data_job_07025
_audit_creation_date              2018-12-19
_audit_creation_method            'Materials Studio'
_symmetry_space_group_name_H-M    'P1'
_symmetry_Int_Tables_number       1
_symmetry_cell_setting            triclinic
loop_
_symmetry_equiv_pos_as_xyz
  x,y,z
_cell_length_a                    22.2867
_cell_length_b                    19.6094
_cell_length_c                    19.1827
_cell_angle_alpha                 75.4294
_cell_angle_beta                  85.3235
_cell_angle_gamma                 85.3159
loop_
_atom_site_label
_atom_site_type_symbol
_atom_site_fract_x
_atom_site_fract_y
_atom_site_fract_z
_atom_site_U_iso_or_equiv
_atom_site_adp_type
_atom_site_occupancy
C1     C     0.75703   0.13002   0.77123   0.00000  Uiso   1.00
C2     C     0.73314   0.05775   0.77830   0.00000  Uiso   1.00
C3     C     0.67933   0.04542   0.75330   0.00000  Uiso   1.00
C4     C     0.66552   0.97549   0.76506   0.00000  Uiso   1.00
C5     C     0.62252   0.87172   0.77066   0.00000  Uiso   1.00
C6     C     0.76730   0.13389   0.84774   0.00000  Uiso   1.00
C7     C     0.74222   0.18559   0.88113   0.00000  Uiso   1.00
C8     C     0.75719   0.17977   0.95133   0.00000  Uiso   1.00
C9     C     0.76726   0.19424   0.06472   0.00000  Uiso   1.00
C10    C     0.81944   0.12835   0.73244   0.00000  Uiso   1.00
C11    C     0.83820   0.17539   0.66889   0.00000  Uiso   1.00
C12    C     0.89707   0.16491   0.64203   0.00000  Uiso   1.00
C13    C     0.98809   0.17077   0.57640   0.00000  Uiso   1.00
C14    C     0.82821   0.02776   0.83655   0.00000  Uiso   1.00
C15    C     0.77180   0.00221   0.81377   0.00000  Uiso   1.00
C16    C     0.75808   0.93228   0.82557   0.00000  Uiso   1.00
C17    C     0.70426   0.91985   0.80060   0.00000  Uiso   1.00
C18    C     0.80596   0.07835   0.88321   0.00000  Uiso   1.00
C19    C     0.82097   0.07245   0.95339   0.00000  Uiso   1.00
C20    C     0.79592   0.12412   0.98688   0.00000  Uiso   1.00
C21    C     0.85810   0.07280   0.76791   0.00000  Uiso   1.00
C22    C     0.91695   0.06225   0.74115   0.00000  Uiso   1.00
C23    C     0.93580   0.10927   0.67757   0.00000  Uiso   1.00
H24    H     0.72694   0.17326   0.74362   0.00000  Uiso   1.00
H25    H     0.64942   0.08842   0.72586   0.00000  Uiso   1.00
H26    H     0.71231   0.22857   0.85366   0.00000  Uiso   1.00
H27    H     0.80827   0.21837   0.64145   0.00000  Uiso   1.00
H28    H     0.58051   0.96986   0.72184   0.00000  Uiso   1.00
H29    H     0.71314   0.26539   0.99129   0.00000  Uiso   1.00
H30    H     0.91550   0.24388   0.54382   0.00000  Uiso   1.00
H31    H     0.85831   0.98452   0.86417   0.00000  Uiso   1.00
H32    H     0.78800   0.88931   0.85302   0.00000  Uiso   1.00
H33    H     0.85089   0.02946   0.98082   0.00000  Uiso   1.00
H34    H     0.94686   0.01926   0.76862   0.00000  Uiso   1.00
H35    H     0.69299   0.80825   0.82505   0.00000  Uiso   1.00
H36    H     0.82562   0.10379   0.09451   0.00000  Uiso   1.00
H37    H     0.02798   0.08227   0.64704   0.00000  Uiso   1.00
O38    O     0.58812   0.82983   0.76396   0.00000  Uiso   1.00
O39    O     0.76213   0.21756   0.11747   0.00000  Uiso   1.00
O40    O     0.02761   0.18934   0.53040   0.00000  Uiso   1.00
N41    N     0.61664   0.94489   0.74764   0.00000  Uiso   1.00
N42    N     0.74063   0.22119   0.99958   0.00000  Uiso   1.00
N43    N     0.92982   0.20109   0.58124   0.00000  Uiso   1.00
N44    N     0.67717   0.85793   0.80318   0.00000  Uiso   1.00
N45    N     0.80116   0.13423   0.05512   0.00000  Uiso   1.00
N46    N     0.99035   0.11413   0.63678   0.00000  Uiso   1.00
C47    C     0.84384   0.69344   0.09775   0.00000  Uiso   1.00
C48    C     0.85273   0.67409   0.02526   0.00000  Uiso   1.00
C49    C     0.83998   0.61036   0.01250   0.00000  Uiso   1.00
C50    C     0.85127   0.60295   0.94244   0.00000  Uiso   1.00
C51    C     0.86157   0.56461   0.83829   0.00000  Uiso   1.00
C52    C     0.90514   0.71384   0.11302   0.00000  Uiso   1.00
C53    C     0.93645   0.68353   0.17405   0.00000  Uiso   1.00
C54    C     0.99185   0.70959   0.17787   0.00000  Uiso   1.00
C55    C     0.08349   0.73299   0.21000   0.00000  Uiso   1.00
C56    C     0.80293   0.76106   0.08526   0.00000  Uiso   1.00
C57    C     0.74830   0.77047   0.12297   0.00000  Uiso   1.00
C58    C     0.71766   0.83631   0.10343   0.00000  Uiso   1.00
C59    C     0.65061   0.93303   0.09246   0.00000  Uiso   1.00
C60    C     0.88655   0.79363   0.99602   0.00000  Uiso   1.00
C61    C     0.87593   0.72851   0.97001   0.00000  Uiso   1.00
C62    C     0.88724   0.72120   0.89994   0.00000  Uiso   1.00
C63    C     0.87451   0.65747   0.88708   0.00000  Uiso   1.00
C64    C     0.92834   0.76825   0.05777   0.00000  Uiso   1.00
C65    C     0.98370   0.79437   0.06150   0.00000  Uiso   1.00
C66    C     0.01509   0.76411   0.12252   0.00000  Uiso   1.00
C67    C     0.82613   0.81548   0.03001   0.00000  Uiso   1.00
C68    C     0.79556   0.88132   0.01041   0.00000  Uiso   1.00
C69    C     0.74090   0.89082   0.04808   0.00000  Uiso   1.00
H70    H     0.82578   0.65108   0.14077   0.00000  Uiso   1.00
H71    H     0.82203   0.56825   0.05527   0.00000  Uiso   1.00
H72    H     0.91848   0.64142   0.21681   0.00000  Uiso   1.00
H73    H     0.73037   0.72835   0.16572   0.00000  Uiso   1.00
H74    H     0.82813   0.50041   0.93612   0.00000  Uiso   1.00
H75    H     0.03148   0.65471   0.27673   0.00000  Uiso   1.00
H76    H     0.63481   0.83801   0.16902   0.00000  Uiso   1.00
H77    H     0.90462   0.83600   0.95300   0.00000  Uiso   1.00
H78    H     0.90519   0.76332   0.85720   0.00000  Uiso   1.00
H79    H     0.00164   0.83649   0.01873   0.00000  Uiso   1.00
H80    H     0.81353   0.92342   0.96765   0.00000  Uiso   1.00
H81    H     0.89563   0.65874   0.77536   0.00000  Uiso   1.00
H82    H     0.09898   0.81303   0.11597   0.00000  Uiso   1.00
H83    H     0.70231   0.99634   0.00825   0.00000  Uiso   1.00
O84    O     0.86085   0.52842   0.79611   0.00000  Uiso   1.00
O85    O     0.12764   0.73086   0.24298   0.00000  Uiso   1.00
O86    O     0.60721   0.97135   0.10166   0.00000  Uiso   1.00
N87    N     0.84392   0.54765   0.91143   0.00000  Uiso   1.00
N88    N     0.03405   0.69190   0.22988   0.00000  Uiso   1.00
N89    N     0.66320   0.86328   0.12919   0.00000  Uiso   1.00
N90    N     0.88024   0.63285   0.82492   0.00000  Uiso   1.00
N91    N     0.07037   0.77710   0.14337   0.00000  Uiso   1.00
N92    N     0.69952   0.94848   0.04268   0.00000  Uiso   1.00
C93    C     0.08259   0.87326   0.70724   0.00000  Uiso   1.00
C94    C     0.01626   0.87268   0.69331   0.00000  Uiso   1.00
C95    C     0.99414   0.86992   0.62858   0.00000  Uiso   1.00
C96    C     0.93199   0.86987   0.62678   0.00000  Uiso   1.00
C97    C     0.83486   0.86862   0.59589   0.00000  Uiso   1.00
C98    C     0.08814   0.93947   0.73367   0.00000  Uiso   1.00
C99    C     0.12645   0.99284   0.70288   0.00000  Uiso   1.00
C100   C     0.12482   0.04901   0.73507   0.00000  Uiso   1.00
C101   C     0.13931   0.15141   0.76687   0.00000  Uiso   1.00
C102   C     0.09470   0.81096   0.77143   0.00000  Uiso   1.00
C103   C     0.13854   0.75629   0.77241   0.00000  Uiso   1.00
C104   C     0.14243   0.70427   0.83641   0.00000  Uiso   1.00
C105   C     0.16711   0.60713   0.92684   0.00000  Uiso   1.00
C106   C     0.01156   0.87810   0.81915   0.00000  Uiso   1.00
C107   C     0.97768   0.87532   0.75410   0.00000  Uiso   1.00
C108   C     0.91555   0.87528   0.75240   0.00000  Uiso   1.00
C109   C     0.89334   0.87251   0.68768   0.00000  Uiso   1.00
C110   C     0.04956   0.94210   0.79445   0.00000  Uiso   1.00
C111   C     0.04787   0.99820   0.82670   0.00000  Uiso   1.00
C112   C     0.08617   0.05165   0.79597   0.00000  Uiso   1.00
C113   C     0.05612   0.81359   0.83222   0.00000  Uiso   1.00
C114   C     0.05995   0.76164   0.89623   0.00000  Uiso   1.00
C115   C     0.10378   0.70690   0.89730   0.00000  Uiso   1.00
H116   H     0.11263   0.87122   0.65991   0.00000  Uiso   1.00
H117   H     0.02401   0.86789   0.58155   0.00000  Uiso   1.00
H118   H     0.15631   0.99079   0.65584   0.00000  Uiso   1.00
H119   H     0.16838   0.75427   0.72536   0.00000  Uiso   1.00
H120   H     0.90874   0.86538   0.52146   0.00000  Uiso   1.00
H121   H     0.18772   0.12451   0.67813   0.00000  Uiso   1.00
H122   H     0.21318   0.62577   0.82473   0.00000  Uiso   1.00
H123   H     0.98153   0.88015   0.86648   0.00000  Uiso   1.00
H124   H     0.88571   0.87731   0.79945   0.00000  Uiso   1.00
H125   H     0.01801   0.00022   0.87374   0.00000  Uiso   1.00
H126   H     0.03008   0.76370   0.94326   0.00000  Uiso   1.00
H127   H     0.79649   0.87304   0.69832   0.00000  Uiso   1.00
H128   H     0.07547   0.13217   0.85499   0.00000  Uiso   1.00
H129   H     0.10093   0.63342   0.00158   0.00000  Uiso   1.00
O130   O     0.79195   0.86721   0.56206   0.00000  Uiso   1.00
O131   O     0.15796   0.20716   0.76761   0.00000  Uiso   1.00
O132   O     0.19137   0.55282   0.95994   0.00000  Uiso   1.00
N133   N     0.89547   0.86756   0.57229   0.00000  Uiso   1.00
N134   N     0.15629   0.10984   0.71876   0.00000  Uiso   1.00
N135   N     0.18011   0.64356   0.85582   0.00000  Uiso   1.00
N136   N     0.83507   0.87168   0.66745   0.00000  Uiso   1.00
N137   N     0.09589   0.11395   0.81392   0.00000  Uiso   1.00
N138   N     0.11971   0.64768   0.95098   0.00000  Uiso   1.00
C139   C     0.24883   0.28680   0.63607   0.00000  Uiso   1.00
C140   C     0.22618   0.30097   0.56054   0.00000  Uiso   1.00
C141   C     0.17183   0.28121   0.54368   0.00000  Uiso   1.00
C142   C     0.15938   0.29908   0.47134   0.00000  Uiso   1.00
C143   C     0.11804   0.31559   0.36219   0.00000  Uiso   1.00
C144   C     0.26123   0.35864   0.64695   0.00000  Uiso   1.00
C145   C     0.23635   0.38737   0.70275   0.00000  Uiso   1.00
C146   C     0.25341   0.45379   0.70315   0.00000  Uiso   1.00
C147   C     0.26651   0.55982   0.72818   0.00000  Uiso   1.00
C148   C     0.31016   0.24663   0.63325   0.00000  Uiso   1.00
C149   C     0.32643   0.18119   0.67754   0.00000  Uiso   1.00
C150   C     0.38469   0.15331   0.66643   0.00000  Uiso   1.00
C151   C     0.47377   0.08542   0.67019   0.00000  Uiso   1.00
C152   C     0.32338   0.35369   0.53758   0.00000  Uiso   1.00
C153   C     0.26668   0.33730   0.50704   0.00000  Uiso   1.00
C154   C     0.25431   0.35521   0.43471   0.00000  Uiso   1.00
C155   C     0.19994   0.33548   0.41774   0.00000  Uiso   1.00
C156   C     0.30172   0.39497   0.59345   0.00000  Uiso   1.00
C157   C     0.31883   0.46137   0.59378   0.00000  Uiso   1.00
C158   C     0.29397   0.49019   0.64956   0.00000  Uiso   1.00
C159   C     0.35065   0.28296   0.57975   0.00000  Uiso   1.00
C160   C     0.40891   0.25519   0.56857   0.00000  Uiso   1.00
C161   C     0.42526   0.18971   0.61284   0.00000  Uiso   1.00
H162   H     0.21730   0.25852   0.67773   0.00000  Uiso   1.00
H163   H     0.14050   0.25310   0.58509   0.00000  Uiso   1.00
H164   H     0.20502   0.35924   0.74414   0.00000  Uiso   1.00
H165   H     0.29508   0.15309   0.71894   0.00000  Uiso   1.00
H166   H     0.07319   0.26313   0.45880   0.00000  Uiso   1.00
H167   H     0.20924   0.48692   0.79418   0.00000  Uiso   1.00
H168   H     0.39916   0.05221   0.74103   0.00000  Uiso   1.00
H169   H     0.35491   0.38197   0.49593   0.00000  Uiso   1.00
H170   H     0.28565   0.38333   0.39332   0.00000  Uiso   1.00
H171   H     0.35017   0.48947   0.55237   0.00000  Uiso   1.00
H172   H     0.44023   0.28332   0.52717   0.00000  Uiso   1.00
H173   H     0.19100   0.36883   0.30315   0.00000  Uiso   1.00
H174   H     0.32706   0.59263   0.63853   0.00000  Uiso   1.00
H175   H     0.51697   0.15792   0.58538   0.00000  Uiso   1.00
O176   O     0.08405   0.31466   0.31676   0.00000  Uiso   1.00
O177   O     0.26255   0.60826   0.75677   0.00000  Uiso   1.00
O178   O     0.51172   0.03794   0.68704   0.00000  Uiso   1.00
N179   N     0.11043   0.28781   0.43625   0.00000  Uiso   1.00
N180   N     0.23762   0.49705   0.74980   0.00000  Uiso   1.00
N181   N     0.41518   0.09064   0.70013   0.00000  Uiso   1.00
N182   N     0.17382   0.34469   0.35250   0.00000  Uiso   1.00
N183   N     0.30101   0.55392   0.66605   0.00000  Uiso   1.00
N184   N     0.47858   0.14752   0.61638   0.00000  Uiso   1.00
C185   C     0.34187   0.58800   0.20060   0.00000  Uiso   1.00
C186   C     0.35010   0.51295   0.19074   0.00000  Uiso   1.00
C187   C     0.33743   0.49217   0.12978   0.00000  Uiso   1.00
C188   C     0.34804   0.42106   0.13134   0.00000  Uiso   1.00
C189   C     0.35743   0.31192   0.10683   0.00000  Uiso   1.00
C190   C     0.40328   0.60564   0.21855   0.00000  Uiso   1.00
C191   C     0.43531   0.66280   0.18097   0.00000  Uiso   1.00
C192   C     0.49069   0.66971   0.20596   0.00000  Uiso   1.00
C193   C     0.58262   0.70450   0.22465   0.00000  Uiso   1.00
C194   C     0.30059   0.58417   0.26872   0.00000  Uiso   1.00
C195   C     0.24629   0.62330   0.27332   0.00000  Uiso   1.00
C196   C     0.21522   0.61216   0.34055   0.00000  Uiso   1.00
C197   C     0.14771   0.61362   0.43714   0.00000  Uiso   1.00
C198   C     0.38325   0.49864   0.31181   0.00000  Uiso   1.00
C199   C     0.37258   0.46442   0.25115   0.00000  Uiso   1.00
C200   C     0.38321   0.39331   0.25282   0.00000  Uiso   1.00
C201   C     0.37056   0.37244   0.19186   0.00000  Uiso   1.00
C202   C     0.42575   0.55711   0.27896   0.00000  Uiso   1.00
C203   C     0.48109   0.56394   0.30401   0.00000  Uiso   1.00
C204   C     0.51321   0.62109   0.26647   0.00000  Uiso   1.00
C205   C     0.32306   0.53564   0.32912   0.00000  Uiso   1.00
C206   C     0.29207   0.52444   0.39636   0.00000  Uiso   1.00
C207   C     0.23773   0.56354   0.40107   0.00000  Uiso   1.00
H208   H     0.32437   0.62578   0.15358   0.00000  Uiso   1.00
H209   H     0.32004   0.52975   0.08304   0.00000  Uiso   1.00
H210   H     0.41791   0.70035   0.13423   0.00000  Uiso   1.00
H211   H     0.22891   0.66085   0.22657   0.00000  Uiso   1.00
H212   H     0.32517   0.40188   0.03146   0.00000  Uiso   1.00
H213   H     0.53151   0.76161   0.13942   0.00000  Uiso   1.00
H214   H     0.13299   0.67834   0.33413   0.00000  Uiso   1.00
H215   H     0.40075   0.46086   0.35884   0.00000  Uiso   1.00
H216   H     0.40060   0.35577   0.29957   0.00000  Uiso   1.00
H217   H     0.49847   0.52637   0.35076   0.00000  Uiso   1.00
H218   H     0.30948   0.48688   0.44309   0.00000  Uiso   1.00
H219   H     0.39056   0.26067   0.20720   0.00000  Uiso   1.00
H220   H     0.59690   0.62041   0.31516   0.00000  Uiso   1.00
H221   H     0.19838   0.53713   0.50987   0.00000  Uiso   1.00
O222   O     0.35641   0.26513   0.07662   0.00000  Uiso   1.00
O223   O     0.62712   0.73709   0.21827   0.00000  Uiso   1.00
O224   O     0.10426   0.62783   0.47372   0.00000  Uiso   1.00
N225   N     0.34057   0.38307   0.08096   0.00000  Uiso   1.00
N226   N     0.53349   0.71939   0.18189   0.00000  Uiso   1.00
N227   N     0.16091   0.64155   0.36393   0.00000  Uiso   1.00
N228   N     0.37575   0.30708   0.17553   0.00000  Uiso   1.00
N229   N     0.56868   0.64341   0.27645   0.00000  Uiso   1.00
N230   N     0.19609   0.56556   0.45850   0.00000  Uiso   1.00
C231   C     0.58592   0.16909   0.39657   0.00000  Uiso   1.00
C232   C     0.52056   0.14927   0.40361   0.00000  Uiso   1.00
C233   C     0.50165   0.08207   0.41046   0.00000  Uiso   1.00
C234   C     0.43987   0.07485   0.41622   0.00000  Uiso   1.00
C235   C     0.34466   0.03525   0.42735   0.00000  Uiso   1.00
C236   C     0.59263   0.20413   0.45780   0.00000  Uiso   1.00
C237   C     0.63434   0.18305   0.51021   0.00000  Uiso   1.00
C238   C     0.63323   0.22202   0.56159   0.00000  Uiso   1.00
C239   C     0.64996   0.26762   0.65682   0.00000  Uiso   1.00
C240   C     0.59241   0.22699   0.32697   0.00000  Uiso   1.00
C241   C     0.63394   0.22515   0.26938   0.00000  Uiso   1.00
C242   C     0.63265   0.28339   0.21061   0.00000  Uiso   1.00
C243   C     0.64902   0.36449   0.10271   0.00000  Uiso   1.00
C244   C     0.50980   0.27579   0.39461   0.00000  Uiso   1.00
C245   C     0.47921   0.20723   0.40254   0.00000  Uiso   1.00
C246   C     0.41744   0.20011   0.40829   0.00000  Uiso   1.00
C247   C     0.39845   0.13291   0.41515   0.00000  Uiso   1.00
C248   C     0.55129   0.26208   0.45674   0.00000  Uiso   1.00
C249   C     0.55012   0.30109   0.50805   0.00000  Uiso   1.00
C250   C     0.59181   0.28008   0.56052   0.00000  Uiso   1.00
C251   C     0.55106   0.28495   0.32590   0.00000  Uiso   1.00
C252   C     0.54972   0.34320   0.26722   0.00000  Uiso   1.00
C253   C     0.59123   0.34144   0.20955   0.00000  Uiso   1.00
H254   H     0.61811   0.12398   0.39740   0.00000  Uiso   1.00
H255   H     0.53366   0.03723   0.41129   0.00000  Uiso   1.00
H256   H     0.66633   0.13821   0.51102   0.00000  Uiso   1.00
H257   H     0.66592   0.18030   0.27023   0.00000  Uiso   1.00
H258   H     0.42181   0.96661   0.42624   0.00000  Uiso   1.00
H259   H     0.70156   0.17953   0.63651   0.00000  Uiso   1.00
H260   H     0.70070   0.26830   0.12875   0.00000  Uiso   1.00
H261   H     0.47761   0.32091   0.39378   0.00000  Uiso   1.00
H262   H     0.38545   0.24497   0.40747   0.00000  Uiso   1.00
H263   H     0.51812   0.34594   0.50720   0.00000  Uiso   1.00
H264   H     0.51772   0.38803   0.26641   0.00000  Uiso   1.00
H265   H     0.30151   0.13522   0.42315   0.00000  Uiso   1.00
H266   H     0.58127   0.34814   0.63342   0.00000  Uiso   1.00
H267   H     0.58041   0.43690   0.12566   0.00000  Uiso   1.00
O268   O     0.30357   0.99740   0.43379   0.00000  Uiso   1.00
O269   O     0.67060   0.27675   0.70965   0.00000  Uiso   1.00
O270   O     0.66947   0.39321   0.04348   0.00000  Uiso   1.00
N271   N     0.40614   0.01672   0.42362   0.00000  Uiso   1.00
N272   N     0.66769   0.21578   0.62022   0.00000  Uiso   1.00
N273   N     0.66690   0.29877   0.14552   0.00000  Uiso   1.00
N274   N     0.34141   0.10744   0.42195   0.00000  Uiso   1.00
N275   N     0.60296   0.30650   0.61855   0.00000  Uiso   1.00
N276   N     0.60217   0.38950   0.14385   0.00000  Uiso   1.00
C277   C     0.24297   0.86998   0.22877   0.00000  Uiso   1.00
C278   C     0.26686   0.94225   0.22170   0.00000  Uiso   1.00
C279   C     0.32067   0.95458   0.24670   0.00000  Uiso   1.00
C280   C     0.33448   0.02451   0.23494   0.00000  Uiso   1.00
C281   C     0.37748   0.12828   0.22934   0.00000  Uiso   1.00
C282   C     0.23270   0.86611   0.15226   0.00000  Uiso   1.00
C283   C     0.25778   0.81441   0.11887   0.00000  Uiso   1.00
C284   C     0.24281   0.82023   0.04867   0.00000  Uiso   1.00
C285   C     0.23274   0.80576   0.93528   0.00000  Uiso   1.00
C286   C     0.18056   0.87165   0.26756   0.00000  Uiso   1.00
C287   C     0.16180   0.82461   0.33111   0.00000  Uiso   1.00
C288   C     0.10293   0.83509   0.35797   0.00000  Uiso   1.00
C289   C     0.01191   0.82923   0.42360   0.00000  Uiso   1.00
C290   C     0.17179   0.97224   0.16345   0.00000  Uiso   1.00
C291   C     0.22820   0.99779   0.18623   0.00000  Uiso   1.00
C292   C     0.24192   0.06772   0.17443   0.00000  Uiso   1.00
C293   C     0.29574   0.08015   0.19940   0.00000  Uiso   1.00
C294   C     0.19404   0.92165   0.11679   0.00000  Uiso   1.00
C295   C     0.17903   0.92755   0.04661   0.00000  Uiso   1.00
C296   C     0.20408   0.87588   0.01312   0.00000  Uiso   1.00
C297   C     0.14190   0.92720   0.23209   0.00000  Uiso   1.00
C298   C     0.08305   0.93775   0.25885   0.00000  Uiso   1.00
C299   C     0.06420   0.89073   0.32243   0.00000  Uiso   1.00
H300   H     0.27306   0.82674   0.25638   0.00000  Uiso   1.00
H301   H     0.35058   0.91158   0.27414   0.00000  Uiso   1.00
H302   H     0.28769   0.77143   0.14634   0.00000  Uiso   1.00
H303   H     0.19173   0.78163   0.35855   0.00000  Uiso   1.00
H304   H     0.41949   0.03014   0.27816   0.00000  Uiso   1.00
H305   H     0.28686   0.73461   0.00871   0.00000  Uiso   1.00
H306   H     0.08450   0.75612   0.45618   0.00000  Uiso   1.00
H307   H     0.14169   0.01548   0.13583   0.00000  Uiso   1.00
H308   H     0.21200   0.11069   0.14698   0.00000  Uiso   1.00
H309   H     0.14911   0.97054   0.01918   0.00000  Uiso   1.00
H310   H     0.05314   0.98074   0.23138   0.00000  Uiso   1.00
H311   H     0.30701   0.19175   0.17495   0.00000  Uiso   1.00
H312   H     0.17438   0.89621   0.90549   0.00000  Uiso   1.00
H313   H     0.97202   0.91773   0.35296   0.00000  Uiso   1.00
O314   O     0.41188   0.17017   0.23604   0.00000  Uiso   1.00
O315   O     0.23787   0.78244   0.88253   0.00000  Uiso   1.00
O316   O     0.97239   0.81066   0.46960   0.00000  Uiso   1.00
N317   N     0.38336   0.05511   0.25236   0.00000  Uiso   1.00
N318   N     0.25937   0.77881   0.00042   0.00000  Uiso   1.00
N319   N     0.07018   0.79891   0.41876   0.00000  Uiso   1.00
N320   N     0.32283   0.14207   0.19682   0.00000  Uiso   1.00
N321   N     0.19884   0.86577   0.94488   0.00000  Uiso   1.00
N322   N     0.00965   0.88587   0.36322   0.00000  Uiso   1.00
C323   C     0.15616   0.30656   0.90225   0.00000  Uiso   1.00
C324   C     0.14727   0.32591   0.97474   0.00000  Uiso   1.00
C325   C     0.16002   0.38964   0.98750   0.00000  Uiso   1.00
C326   C     0.14873   0.39705   0.05756   0.00000  Uiso   1.00
C327   C     0.13843   0.43539   0.16171   0.00000  Uiso   1.00
C328   C     0.09486   0.28616   0.88698   0.00000  Uiso   1.00
C329   C     0.06355   0.31647   0.82595   0.00000  Uiso   1.00
C330   C     0.00815   0.29041   0.82213   0.00000  Uiso   1.00
C331   C     0.91651   0.26701   0.79000   0.00000  Uiso   1.00
C332   C     0.19707   0.23894   0.91474   0.00000  Uiso   1.00
C333   C     0.25170   0.22953   0.87703   0.00000  Uiso   1.00
C334   C     0.28234   0.16369   0.89657   0.00000  Uiso   1.00
C335   C     0.34939   0.06697   0.90754   0.00000  Uiso   1.00
C336   C     0.11345   0.20637   0.00398   0.00000  Uiso   1.00
C337   C     0.12407   0.27149   0.02999   0.00000  Uiso   1.00
C338   C     0.11276   0.27880   0.10006   0.00000  Uiso   1.00
C339   C     0.12549   0.34253   0.11292   0.00000  Uiso   1.00
C340   C     0.07166   0.23175   0.94223   0.00000  Uiso   1.00
C341   C     0.01630   0.20563   0.93850   0.00000  Uiso   1.00
C342   C     0.98491   0.23589   0.87748   0.00000  Uiso   1.00
C343   C     0.17387   0.18452   0.96999   0.00000  Uiso   1.00
C344   C     0.20444   0.11868   0.98959   0.00000  Uiso   1.00
C345   C     0.25910   0.10918   0.95192   0.00000  Uiso   1.00
H346   H     0.17422   0.34892   0.85923   0.00000  Uiso   1.00
H347   H     0.17797   0.43175   0.94473   0.00000  Uiso   1.00
H348   H     0.08152   0.35858   0.78319   0.00000  Uiso   1.00
H349   H     0.26963   0.27165   0.83428   0.00000  Uiso   1.00
H350   H     0.17187   0.49959   0.06388   0.00000  Uiso   1.00
H351   H     0.96852   0.34529   0.72327   0.00000  Uiso   1.00
H352   H     0.36519   0.16199   0.83098   0.00000  Uiso   1.00
H353   H     0.09538   0.16400   0.04700   0.00000  Uiso   1.00
H354   H     0.09481   0.23668   0.14280   0.00000  Uiso   1.00
H355   H     0.99836   0.16351   0.98127   0.00000  Uiso   1.00
H356   H     0.18647   0.07658   0.03235   0.00000  Uiso   1.00
H357   H     0.10437   0.34126   0.22464   0.00000  Uiso   1.00
H358   H     0.90102   0.18697   0.88403   0.00000  Uiso   1.00
H359   H     0.29769   0.00366   0.99175   0.00000  Uiso   1.00
O360   O     0.13915   0.47158   0.20389   0.00000  Uiso   1.00
O361   O     0.87236   0.26914   0.75702   0.00000  Uiso   1.00
O362   O     0.39279   0.02865   0.89834   0.00000  Uiso   1.00
N363   N     0.15608   0.45235   0.08857   0.00000  Uiso   1.00
N364   N     0.96595   0.30810   0.77012   0.00000  Uiso   1.00
N365   N     0.33680   0.13672   0.87081   0.00000  Uiso   1.00
N366   N     0.11976   0.36715   0.17508   0.00000  Uiso   1.00
N367   N     0.92963   0.22290   0.85663   0.00000  Uiso   1.00
N368   N     0.30048   0.05152   0.95732   0.00000  Uiso   1.00
C369   C     0.91741   0.12674   0.29276   0.00000  Uiso   1.00
C370   C     0.98374   0.12732   0.30669   0.00000  Uiso   1.00
C371   C     0.00586   0.13008   0.37142   0.00000  Uiso   1.00
C372   C     0.06801   0.13013   0.37322   0.00000  Uiso   1.00
C373   C     0.16514   0.13138   0.40411   0.00000  Uiso   1.00
C374   C     0.91186   0.06053   0.26633   0.00000  Uiso   1.00
C375   C     0.87355   0.00716   0.29712   0.00000  Uiso   1.00
C376   C     0.87518   0.95099   0.26493   0.00000  Uiso   1.00
C377   C     0.86069   0.84859   0.23313   0.00000  Uiso   1.00
C378   C     0.90530   0.18904   0.22857   0.00000  Uiso   1.00
C379   C     0.86146   0.24371   0.22759   0.00000  Uiso   1.00
C380   C     0.85757   0.29573   0.16359   0.00000  Uiso   1.00
C381   C     0.83289   0.39287   0.07316   0.00000  Uiso   1.00
C382   C     0.98844   0.12190   0.18085   0.00000  Uiso   1.00
C383   C     0.02232   0.12468   0.24590   0.00000  Uiso   1.00
C384   C     0.08445   0.12472   0.24760   0.00000  Uiso   1.00
C385   C     0.10666   0.12749   0.31232   0.00000  Uiso   1.00
C386   C     0.95044   0.05790   0.20555   0.00000  Uiso   1.00
C387   C     0.95213   0.00180   0.17330   0.00000  Uiso   1.00
C388   C     0.91383   0.94835   0.20403   0.00000  Uiso   1.00
C389   C     0.94388   0.18642   0.16778   0.00000  Uiso   1.00
C390   C     0.94005   0.23836   0.10377   0.00000  Uiso   1.00
C391   C     0.89622   0.29310   0.10270   0.00000  Uiso   1.00
H392   H     0.88737   0.12878   0.34009   0.00000  Uiso   1.00
H393   H     0.97599   0.13211   0.41845   0.00000  Uiso   1.00
H394   H     0.84369   0.00921   0.34416   0.00000  Uiso   1.00
H395   H     0.83162   0.24573   0.27464   0.00000  Uiso   1.00
H396   H     0.09126   0.13462   0.47854   0.00000  Uiso   1.00
H397   H     0.81228   0.87549   0.32187   0.00000  Uiso   1.00
H398   H     0.78682   0.37423   0.17527   0.00000  Uiso   1.00
H399   H     0.01847   0.11985   0.13352   0.00000  Uiso   1.00
H400   H     0.11429   0.12269   0.20055   0.00000  Uiso   1.00
H401   H     0.98199   0.99978   0.12626   0.00000  Uiso   1.00
H402   H     0.96992   0.23630   0.05674   0.00000  Uiso   1.00
H403   H     0.20351   0.12696   0.30168   0.00000  Uiso   1.00
H404   H     0.92453   0.86783   0.14501   0.00000  Uiso   1.00
H405   H     0.89907   0.36658   0.99842   0.00000  Uiso   1.00
O406   O     0.20805   0.13279   0.43794   0.00000  Uiso   1.00
O407   O     0.84204   0.79284   0.23239   0.00000  Uiso   1.00
O408   O     0.80863   0.44718   0.04006   0.00000  Uiso   1.00
N409   N     0.10453   0.13244   0.42771   0.00000  Uiso   1.00
N410   N     0.84371   0.89016   0.28124   0.00000  Uiso   1.00
N411   N     0.81989   0.35644   0.14418   0.00000  Uiso   1.00
N412   N     0.16493   0.12832   0.33255   0.00000  Uiso   1.00
N413   N     0.90411   0.88605   0.18608   0.00000  Uiso   1.00
N414   N     0.88029   0.35232   0.04902   0.00000  Uiso   1.00
C415   C     0.75117   0.71320   0.36393   0.00000  Uiso   1.00
C416   C     0.77382   0.69903   0.43946   0.00000  Uiso   1.00
C417   C     0.82817   0.71879   0.45632   0.00000  Uiso   1.00
C418   C     0.84062   0.70092   0.52866   0.00000  Uiso   1.00
C419   C     0.88196   0.68441   0.63781   0.00000  Uiso   1.00
C420   C     0.73877   0.64136   0.35305   0.00000  Uiso   1.00
C421   C     0.76365   0.61263   0.29725   0.00000  Uiso   1.00
C422   C     0.74659   0.54621   0.29685   0.00000  Uiso   1.00
C423   C     0.73349   0.44018   0.27182   0.00000  Uiso   1.00
C424   C     0.68984   0.75337   0.36675   0.00000  Uiso   1.00
C425   C     0.67357   0.81881   0.32246   0.00000  Uiso   1.00
C426   C     0.61531   0.84669   0.33357   0.00000  Uiso   1.00
C427   C     0.52623   0.91458   0.32981   0.00000  Uiso   1.00
C428   C     0.67662   0.64631   0.46242   0.00000  Uiso   1.00
C429   C     0.73332   0.66270   0.49296   0.00000  Uiso   1.00
C430   C     0.74569   0.64479   0.56529   0.00000  Uiso   1.00
C431   C     0.80006   0.66452   0.58226   0.00000  Uiso   1.00
C432   C     0.69828   0.60503   0.40655   0.00000  Uiso   1.00
C433   C     0.68117   0.53863   0.40622   0.00000  Uiso   1.00
C434   C     0.70603   0.50981   0.35044   0.00000  Uiso   1.00
C435   C     0.64935   0.71704   0.42025   0.00000  Uiso   1.00
C436   C     0.59109   0.74481   0.43143   0.00000  Uiso   1.00
C437   C     0.57474   0.81029   0.38716   0.00000  Uiso   1.00
H438   H     0.78270   0.74148   0.32227   0.00000  Uiso   1.00
H439   H     0.85950   0.74690   0.41491   0.00000  Uiso   1.00
H440   H     0.79498   0.64076   0.25586   0.00000  Uiso   1.00
H441   H     0.70492   0.84691   0.28106   0.00000  Uiso   1.00
H442   H     0.92681   0.73687   0.54120   0.00000  Uiso   1.00
H443   H     0.79076   0.51308   0.20582   0.00000  Uiso   1.00
H444   H     0.60084   0.94779   0.25897   0.00000  Uiso   1.00
H445   H     0.64509   0.61803   0.50407   0.00000  Uiso   1.00
H446   H     0.71435   0.61667   0.60668   0.00000  Uiso   1.00
H447   H     0.64983   0.51053   0.44763   0.00000  Uiso   1.00
H448   H     0.55977   0.71668   0.47283   0.00000  Uiso   1.00
H449   H     0.80900   0.63117   0.69685   0.00000  Uiso   1.00
H450   H     0.67294   0.40737   0.36147   0.00000  Uiso   1.00
H451   H     0.48303   0.84208   0.41462   0.00000  Uiso   1.00
O452   O     0.91595   0.68534   0.68324   0.00000  Uiso   1.00
O453   O     0.73745   0.39174   0.24323   0.00000  Uiso   1.00
O454   O     0.48828   0.96206   0.31296   0.00000  Uiso   1.00
N455   N     0.88957   0.71219   0.56375   0.00000  Uiso   1.00
N456   N     0.76238   0.50295   0.25020   0.00000  Uiso   1.00
N457   N     0.58482   0.90936   0.29987   0.00000  Uiso   1.00
N458   N     0.82618   0.65531   0.64750   0.00000  Uiso   1.00
N459   N     0.69899   0.44608   0.33395   0.00000  Uiso   1.00
N460   N     0.52142   0.85248   0.38362   0.00000  Uiso   1.00
C461   C     0.65813   0.41200   0.79940   0.00000  Uiso   1.00
C462   C     0.64990   0.48705   0.80926   0.00000  Uiso   1.00
C463   C     0.66257   0.50783   0.87022   0.00000  Uiso   1.00
C464   C     0.65196   0.57894   0.86866   0.00000  Uiso   1.00
C465   C     0.64257   0.68808   0.89317   0.00000  Uiso   1.00
C466   C     0.59672   0.39436   0.78145   0.00000  Uiso   1.00
C467   C     0.56469   0.33720   0.81903   0.00000  Uiso   1.00
C468   C     0.50931   0.33029   0.79404   0.00000  Uiso   1.00
C469   C     0.41738   0.29550   0.77535   0.00000  Uiso   1.00
C470   C     0.69941   0.41583   0.73128   0.00000  Uiso   1.00
C471   C     0.75371   0.37670   0.72668   0.00000  Uiso   1.00
C472   C     0.78478   0.38784   0.65945   0.00000  Uiso   1.00
C473   C     0.85229   0.38638   0.56286   0.00000  Uiso   1.00
C474   C     0.61675   0.50136   0.68819   0.00000  Uiso   1.00
C475   C     0.62742   0.53558   0.74885   0.00000  Uiso   1.00
C476   C     0.61679   0.60669   0.74718   0.00000  Uiso   1.00
C477   C     0.62944   0.62756   0.80814   0.00000  Uiso   1.00
C478   C     0.57425   0.44289   0.72104   0.00000  Uiso   1.00
C479   C     0.51891   0.43606   0.69599   0.00000  Uiso   1.00
C480   C     0.48679   0.37891   0.73353   0.00000  Uiso   1.00
C481   C     0.67694   0.46436   0.67088   0.00000  Uiso   1.00
C482   C     0.70793   0.47556   0.60364   0.00000  Uiso   1.00
C483   C     0.76227   0.43646   0.59893   0.00000  Uiso   1.00
H484   H     0.67563   0.37422   0.84642   0.00000  Uiso   1.00
H485   H     0.67996   0.47025   0.91696   0.00000  Uiso   1.00
H486   H     0.58209   0.29965   0.86577   0.00000  Uiso   1.00
H487   H     0.77109   0.33915   0.77343   0.00000  Uiso   1.00
H488   H     0.67483   0.59812   0.96854   0.00000  Uiso   1.00
H489   H     0.46849   0.23839   0.86058   0.00000  Uiso   1.00
H490   H     0.86701   0.32166   0.66587   0.00000  Uiso   1.00
H491   H     0.59925   0.53914   0.64116   0.00000  Uiso   1.00
H492   H     0.59940   0.64423   0.70043   0.00000  Uiso   1.00
H493   H     0.50153   0.47363   0.64924   0.00000  Uiso   1.00
H494   H     0.69052   0.51312   0.55691   0.00000  Uiso   1.00
H495   H     0.60944   0.73933   0.79280   0.00000  Uiso   1.00
H496   H     0.40310   0.37959   0.68484   0.00000  Uiso   1.00
H497   H     0.80162   0.46287   0.49013   0.00000  Uiso   1.00
O498   O     0.64359   0.73487   0.92338   0.00000  Uiso   1.00
O499   O     0.37288   0.26291   0.78173   0.00000  Uiso   1.00
O500   O     0.89574   0.37217   0.52628   0.00000  Uiso   1.00
N501   N     0.65943   0.61693   0.91904   0.00000  Uiso   1.00
N502   N     0.46651   0.28061   0.81811   0.00000  Uiso   1.00
N503   N     0.83909   0.35845   0.63607   0.00000  Uiso   1.00
N504   N     0.62425   0.69292   0.82447   0.00000  Uiso   1.00
N505   N     0.43132   0.35659   0.72355   0.00000  Uiso   1.00
N506   N     0.80391   0.43444   0.54150   0.00000  Uiso   1.00
C507   C     0.41408   0.83091   0.60343   0.00000  Uiso   1.00
C508   C     0.47944   0.85073   0.59639   0.00000  Uiso   1.00
C509   C     0.49835   0.91793   0.58954   0.00000  Uiso   1.00
C510   C     0.56013   0.92515   0.58378   0.00000  Uiso   1.00
C511   C     0.65534   0.96475   0.57265   0.00000  Uiso   1.00
C512   C     0.40737   0.79587   0.54220   0.00000  Uiso   1.00
C513   C     0.36566   0.81695   0.48979   0.00000  Uiso   1.00
C514   C     0.36677   0.77798   0.43841   0.00000  Uiso   1.00
C515   C     0.35004   0.73238   0.34318   0.00000  Uiso   1.00
C516   C     0.40759   0.77301   0.67303   0.00000  Uiso   1.00
C517   C     0.36606   0.77485   0.73062   0.00000  Uiso   1.00
C518   C     0.36735   0.71661   0.78939   0.00000  Uiso   1.00
C519   C     0.35098   0.63551   0.89729   0.00000  Uiso   1.00
C520   C     0.49020   0.72421   0.60539   0.00000  Uiso   1.00
C521   C     0.52079   0.79277   0.59746   0.00000  Uiso   1.00
C522   C     0.58256   0.79989   0.59171   0.00000  Uiso   1.00
C523   C     0.60155   0.86709   0.58485   0.00000  Uiso   1.00
C524   C     0.44871   0.73792   0.54326   0.00000  Uiso   1.00
C525   C     0.44988   0.69891   0.49195   0.00000  Uiso   1.00
C526   C     0.40819   0.71992   0.43948   0.00000  Uiso   1.00
C527   C     0.44894   0.71505   0.67410   0.00000  Uiso   1.00
C528   C     0.45028   0.65680   0.73278   0.00000  Uiso   1.00
C529   C     0.40877   0.65856   0.79045   0.00000  Uiso   1.00
H530   H     0.38189   0.87602   0.60260   0.00000  Uiso   1.00
H531   H     0.46634   0.96277   0.58871   0.00000  Uiso   1.00
H532   H     0.33367   0.86179   0.48898   0.00000  Uiso   1.00
H533   H     0.33408   0.81970   0.72977   0.00000  Uiso   1.00
H534   H     0.57819   0.03339   0.57376   0.00000  Uiso   1.00
H535   H     0.29844   0.82047   0.36349   0.00000  Uiso   1.00
H536   H     0.29930   0.73170   0.87125   0.00000  Uiso   1.00
H537   H     0.52239   0.67909   0.60622   0.00000  Uiso   1.00
H538   H     0.61455   0.75503   0.59253   0.00000  Uiso   1.00
H539   H     0.48188   0.65406   0.49280   0.00000  Uiso   1.00
H540   H     0.48228   0.61197   0.73359   0.00000  Uiso   1.00
H541   H     0.69849   0.86478   0.57685   0.00000  Uiso   1.00
H542   H     0.41873   0.65186   0.36658   0.00000  Uiso   1.00
H543   H     0.41959   0.56310   0.87434   0.00000  Uiso   1.00
O544   O     0.69643   0.00260   0.56621   0.00000  Uiso   1.00
O545   O     0.32940   0.72325   0.29035   0.00000  Uiso   1.00
O546   O     0.33053   0.60679   0.95652   0.00000  Uiso   1.00
N547   N     0.59386   0.98328   0.57638   0.00000  Uiso   1.00
N548   N     0.33231   0.78422   0.37978   0.00000  Uiso   1.00
N549   N     0.33310   0.70123   0.85448   0.00000  Uiso   1.00
N550   N     0.65859   0.89256   0.57805   0.00000  Uiso   1.00
N551   N     0.39704   0.69350   0.38145   0.00000  Uiso   1.00
N552   N     0.39783   0.61050   0.85615   0.00000  Uiso   1.00
