data_job_03725
_audit_creation_date              2018-12-19
_audit_creation_method            'Materials Studio'
_symmetry_space_group_name_H-M    'P1'
_symmetry_Int_Tables_number       1
_symmetry_cell_setting            triclinic
loop_
_symmetry_equiv_pos_as_xyz
  x,y,z
_cell_length_a                    10.1070
_cell_length_b                    31.1392
_cell_length_c                    20.8742
_cell_angle_alpha                 90.0000
_cell_angle_beta                  90.0000
_cell_angle_gamma                 90.0000
loop_
_atom_site_label
_atom_site_type_symbol
_atom_site_fract_x
_atom_site_fract_y
_atom_site_fract_z
_atom_site_U_iso_or_equiv
_atom_site_adp_type
_atom_site_occupancy
C1     C     0.31023   0.38246   0.74099   0.00000  Uiso   1.00
C2     C     0.39198   0.40680   0.79051   0.00000  Uiso   1.00
C3     C     0.37374   0.44932   0.80834   0.00000  Uiso   1.00
C4     C     0.45887   0.46568   0.85449   0.00000  Uiso   1.00
C5     C     0.57067   0.50732   0.92720   0.00000  Uiso   1.00
C6     C     0.40852   0.36569   0.69154   0.00000  Uiso   1.00
C7     C     0.40417   0.37364   0.62615   0.00000  Uiso   1.00
C8     C     0.50322   0.35538   0.58898   0.00000  Uiso   1.00
C9     C     0.64064   0.33317   0.50802   0.00000  Uiso   1.00
C10    C     0.25606   0.34299   0.77535   0.00000  Uiso   1.00
C11    C     0.12353   0.33184   0.78043   0.00000  Uiso   1.00
C12    C     0.09423   0.29446   0.81381   0.00000  Uiso   1.00
C13    C     0.99494   0.23701   0.86300   0.00000  Uiso   1.00
C14    C     0.49388   0.33589   0.79123   0.00000  Uiso   1.00
C15    C     0.49173   0.38150   0.81780   0.00000  Uiso   1.00
C16    C     0.57692   0.39780   0.86393   0.00000  Uiso   1.00
C17    C     0.55880   0.44034   0.88183   0.00000  Uiso   1.00
C18    C     0.50827   0.34039   0.71882   0.00000  Uiso   1.00
C19    C     0.60735   0.32212   0.68173   0.00000  Uiso   1.00
C20    C     0.60315   0.33004   0.61631   0.00000  Uiso   1.00
C21    C     0.35581   0.31769   0.80264   0.00000  Uiso   1.00
C22    C     0.32671   0.28032   0.83602   0.00000  Uiso   1.00
C23    C     0.19416   0.26912   0.84115   0.00000  Uiso   1.00
H24    H     0.23258   0.40215   0.71975   0.00000  Uiso   1.00
H25    H     0.29654   0.46889   0.78721   0.00000  Uiso   1.00
H26    H     0.32696   0.39321   0.60505   0.00000  Uiso   1.00
H27    H     0.04637   0.35142   0.75931   0.00000  Uiso   1.00
H28    H     0.41147   0.53173   0.87403   0.00000  Uiso   1.00
H29    H     0.47558   0.37214   0.48992   0.00000  Uiso   1.00
H30    H     0.88389   0.28403   0.81520   0.00000  Uiso   1.00
H31    H     0.57154   0.31620   0.81248   0.00000  Uiso   1.00
H32    H     0.65410   0.37822   0.88503   0.00000  Uiso   1.00
H33    H     0.68452   0.30254   0.70287   0.00000  Uiso   1.00
H34    H     0.40393   0.26075   0.85713   0.00000  Uiso   1.00
H35    H     0.70168   0.45814   0.95342   0.00000  Uiso   1.00
H36    H     0.76579   0.29855   0.56931   0.00000  Uiso   1.00
H37    H     0.17411   0.21044   0.89460   0.00000  Uiso   1.00
O38    O     0.60479   0.53729   0.95976   0.00000  Uiso   1.00
O39    O     0.68889   0.32791   0.45583   0.00000  Uiso   1.00
O40    O     0.91262   0.21231   0.88260   0.00000  Uiso   1.00
N41    N     0.46842   0.50589   0.88276   0.00000  Uiso   1.00
N42    N     0.52837   0.35670   0.52365   0.00000  Uiso   1.00
N43    N     0.97520   0.27431   0.82775   0.00000  Uiso   1.00
N44    N     0.62458   0.46629   0.92549   0.00000  Uiso   1.00
N45    N     0.68453   0.31710   0.56637   0.00000  Uiso   1.00
N46    N     0.13136   0.23471   0.87047   0.00000  Uiso   1.00
C47    C     0.18977   0.61754   0.74099   0.00000  Uiso   1.00
C48    C     0.10802   0.59320   0.79051   0.00000  Uiso   1.00
C49    C     0.12626   0.55068   0.80834   0.00000  Uiso   1.00
C50    C     0.04113   0.53432   0.85449   0.00000  Uiso   1.00
C51    C     0.92933   0.49268   0.92720   0.00000  Uiso   1.00
C52    C     0.09148   0.63431   0.69154   0.00000  Uiso   1.00
C53    C     0.09583   0.62636   0.62615   0.00000  Uiso   1.00
C54    C     0.99678   0.64462   0.58898   0.00000  Uiso   1.00
C55    C     0.85936   0.66683   0.50802   0.00000  Uiso   1.00
C56    C     0.24394   0.65701   0.77535   0.00000  Uiso   1.00
C57    C     0.37647   0.66816   0.78043   0.00000  Uiso   1.00
C58    C     0.40577   0.70554   0.81381   0.00000  Uiso   1.00
C59    C     0.50506   0.76299   0.86300   0.00000  Uiso   1.00
C60    C     0.00612   0.66411   0.79123   0.00000  Uiso   1.00
C61    C     0.00827   0.61850   0.81780   0.00000  Uiso   1.00
C62    C     0.92308   0.60220   0.86393   0.00000  Uiso   1.00
C63    C     0.94120   0.55966   0.88183   0.00000  Uiso   1.00
C64    C     0.99173   0.65961   0.71882   0.00000  Uiso   1.00
C65    C     0.89265   0.67788   0.68173   0.00000  Uiso   1.00
C66    C     0.89685   0.66996   0.61631   0.00000  Uiso   1.00
C67    C     0.14419   0.68231   0.80264   0.00000  Uiso   1.00
C68    C     0.17329   0.71968   0.83602   0.00000  Uiso   1.00
C69    C     0.30584   0.73088   0.84115   0.00000  Uiso   1.00
H70    H     0.26742   0.59785   0.71975   0.00000  Uiso   1.00
H71    H     0.20346   0.53111   0.78721   0.00000  Uiso   1.00
H72    H     0.17304   0.60679   0.60505   0.00000  Uiso   1.00
H73    H     0.45363   0.64858   0.75931   0.00000  Uiso   1.00
H74    H     0.08853   0.46827   0.87403   0.00000  Uiso   1.00
H75    H     0.02442   0.62786   0.48992   0.00000  Uiso   1.00
H76    H     0.61611   0.71597   0.81520   0.00000  Uiso   1.00
H77    H     0.92846   0.68380   0.81248   0.00000  Uiso   1.00
H78    H     0.84590   0.62178   0.88503   0.00000  Uiso   1.00
H79    H     0.81548   0.69746   0.70287   0.00000  Uiso   1.00
H80    H     0.09607   0.73925   0.85713   0.00000  Uiso   1.00
H81    H     0.79832   0.54186   0.95342   0.00000  Uiso   1.00
H82    H     0.73421   0.70145   0.56931   0.00000  Uiso   1.00
H83    H     0.32589   0.78956   0.89460   0.00000  Uiso   1.00
O84    O     0.89521   0.46271   0.95976   0.00000  Uiso   1.00
O85    O     0.81111   0.67209   0.45583   0.00000  Uiso   1.00
O86    O     0.58738   0.78769   0.88260   0.00000  Uiso   1.00
N87    N     0.03158   0.49411   0.88276   0.00000  Uiso   1.00
N88    N     0.97163   0.64330   0.52365   0.00000  Uiso   1.00
N89    N     0.52480   0.72569   0.82775   0.00000  Uiso   1.00
N90    N     0.87542   0.53371   0.92549   0.00000  Uiso   1.00
N91    N     0.81547   0.68290   0.56637   0.00000  Uiso   1.00
N92    N     0.36864   0.76529   0.87047   0.00000  Uiso   1.00
C93    C     0.18977   0.88246   0.75901   0.00000  Uiso   1.00
C94    C     0.10802   0.90680   0.70949   0.00000  Uiso   1.00
C95    C     0.12626   0.94932   0.69166   0.00000  Uiso   1.00
C96    C     0.04113   0.96568   0.64551   0.00000  Uiso   1.00
C97    C     0.92933   0.00732   0.57280   0.00000  Uiso   1.00
C98    C     0.09148   0.86569   0.80846   0.00000  Uiso   1.00
C99    C     0.09583   0.87364   0.87385   0.00000  Uiso   1.00
C100   C     0.99678   0.85538   0.91102   0.00000  Uiso   1.00
C101   C     0.85936   0.83317   0.99198   0.00000  Uiso   1.00
C102   C     0.24394   0.84299   0.72465   0.00000  Uiso   1.00
C103   C     0.37647   0.83184   0.71957   0.00000  Uiso   1.00
C104   C     0.40577   0.79446   0.68619   0.00000  Uiso   1.00
C105   C     0.50506   0.73701   0.63700   0.00000  Uiso   1.00
C106   C     0.00612   0.83589   0.70877   0.00000  Uiso   1.00
C107   C     0.00827   0.88150   0.68220   0.00000  Uiso   1.00
C108   C     0.92308   0.89780   0.63607   0.00000  Uiso   1.00
C109   C     0.94120   0.94034   0.61817   0.00000  Uiso   1.00
C110   C     0.99173   0.84039   0.78118   0.00000  Uiso   1.00
C111   C     0.89265   0.82212   0.81827   0.00000  Uiso   1.00
C112   C     0.89685   0.83004   0.88369   0.00000  Uiso   1.00
C113   C     0.14419   0.81769   0.69736   0.00000  Uiso   1.00
C114   C     0.17329   0.78032   0.66398   0.00000  Uiso   1.00
C115   C     0.30584   0.76912   0.65885   0.00000  Uiso   1.00
H116   H     0.26742   0.90215   0.78025   0.00000  Uiso   1.00
H117   H     0.20346   0.96889   0.71279   0.00000  Uiso   1.00
H118   H     0.17304   0.89321   0.89495   0.00000  Uiso   1.00
H119   H     0.45363   0.85142   0.74069   0.00000  Uiso   1.00
H120   H     0.08853   0.03173   0.62597   0.00000  Uiso   1.00
H121   H     0.02442   0.87214   0.01008   0.00000  Uiso   1.00
H122   H     0.61611   0.78403   0.68480   0.00000  Uiso   1.00
H123   H     0.92846   0.81620   0.68752   0.00000  Uiso   1.00
H124   H     0.84590   0.87822   0.61497   0.00000  Uiso   1.00
H125   H     0.81548   0.80254   0.79713   0.00000  Uiso   1.00
H126   H     0.09607   0.76075   0.64287   0.00000  Uiso   1.00
H127   H     0.79832   0.95814   0.54658   0.00000  Uiso   1.00
H128   H     0.73421   0.79855   0.93069   0.00000  Uiso   1.00
H129   H     0.32589   0.71044   0.60540   0.00000  Uiso   1.00
O130   O     0.89521   0.03729   0.54024   0.00000  Uiso   1.00
O131   O     0.81111   0.82791   0.04417   0.00000  Uiso   1.00
O132   O     0.58738   0.71231   0.61740   0.00000  Uiso   1.00
N133   N     0.03158   0.00589   0.61724   0.00000  Uiso   1.00
N134   N     0.97163   0.85670   0.97635   0.00000  Uiso   1.00
N135   N     0.52480   0.77431   0.67225   0.00000  Uiso   1.00
N136   N     0.87542   0.96629   0.57451   0.00000  Uiso   1.00
N137   N     0.81547   0.81710   0.93363   0.00000  Uiso   1.00
N138   N     0.36864   0.73471   0.62953   0.00000  Uiso   1.00
C139   C     0.31023   0.11754   0.75901   0.00000  Uiso   1.00
C140   C     0.39198   0.09320   0.70949   0.00000  Uiso   1.00
C141   C     0.37374   0.05068   0.69166   0.00000  Uiso   1.00
C142   C     0.45887   0.03432   0.64551   0.00000  Uiso   1.00
C143   C     0.57067   0.99268   0.57280   0.00000  Uiso   1.00
C144   C     0.40852   0.13431   0.80846   0.00000  Uiso   1.00
C145   C     0.40417   0.12636   0.87385   0.00000  Uiso   1.00
C146   C     0.50322   0.14462   0.91102   0.00000  Uiso   1.00
C147   C     0.64064   0.16683   0.99198   0.00000  Uiso   1.00
C148   C     0.25606   0.15701   0.72465   0.00000  Uiso   1.00
C149   C     0.12353   0.16816   0.71957   0.00000  Uiso   1.00
C150   C     0.09423   0.20554   0.68619   0.00000  Uiso   1.00
C151   C     0.99494   0.26299   0.63700   0.00000  Uiso   1.00
C152   C     0.49388   0.16411   0.70877   0.00000  Uiso   1.00
C153   C     0.49173   0.11850   0.68220   0.00000  Uiso   1.00
C154   C     0.57692   0.10220   0.63607   0.00000  Uiso   1.00
C155   C     0.55880   0.05966   0.61817   0.00000  Uiso   1.00
C156   C     0.50827   0.15961   0.78118   0.00000  Uiso   1.00
C157   C     0.60735   0.17788   0.81827   0.00000  Uiso   1.00
C158   C     0.60315   0.16996   0.88369   0.00000  Uiso   1.00
C159   C     0.35581   0.18231   0.69736   0.00000  Uiso   1.00
C160   C     0.32671   0.21968   0.66398   0.00000  Uiso   1.00
C161   C     0.19416   0.23088   0.65885   0.00000  Uiso   1.00
H162   H     0.23258   0.09785   0.78025   0.00000  Uiso   1.00
H163   H     0.29654   0.03111   0.71279   0.00000  Uiso   1.00
H164   H     0.32696   0.10679   0.89495   0.00000  Uiso   1.00
H165   H     0.04637   0.14858   0.74069   0.00000  Uiso   1.00
H166   H     0.41147   0.96827   0.62597   0.00000  Uiso   1.00
H167   H     0.47558   0.12786   0.01008   0.00000  Uiso   1.00
H168   H     0.88389   0.21597   0.68480   0.00000  Uiso   1.00
H169   H     0.57154   0.18380   0.68752   0.00000  Uiso   1.00
H170   H     0.65410   0.12178   0.61497   0.00000  Uiso   1.00
H171   H     0.68452   0.19746   0.79713   0.00000  Uiso   1.00
H172   H     0.40393   0.23925   0.64287   0.00000  Uiso   1.00
H173   H     0.70168   0.04186   0.54658   0.00000  Uiso   1.00
H174   H     0.76579   0.20145   0.93069   0.00000  Uiso   1.00
H175   H     0.17411   0.28956   0.60540   0.00000  Uiso   1.00
O176   O     0.60479   0.96271   0.54024   0.00000  Uiso   1.00
O177   O     0.68889   0.17209   0.04417   0.00000  Uiso   1.00
O178   O     0.91262   0.28769   0.61740   0.00000  Uiso   1.00
N179   N     0.46842   0.99411   0.61724   0.00000  Uiso   1.00
N180   N     0.52837   0.14330   0.97635   0.00000  Uiso   1.00
N181   N     0.97520   0.22569   0.67225   0.00000  Uiso   1.00
N182   N     0.62458   0.03371   0.57451   0.00000  Uiso   1.00
N183   N     0.68453   0.18290   0.93363   0.00000  Uiso   1.00
N184   N     0.13136   0.26529   0.62953   0.00000  Uiso   1.00
C185   C     0.68977   0.61754   0.25901   0.00000  Uiso   1.00
C186   C     0.60802   0.59320   0.20949   0.00000  Uiso   1.00
C187   C     0.62626   0.55068   0.19166   0.00000  Uiso   1.00
C188   C     0.54113   0.53432   0.14551   0.00000  Uiso   1.00
C189   C     0.42933   0.49268   0.07280   0.00000  Uiso   1.00
C190   C     0.59148   0.63431   0.30846   0.00000  Uiso   1.00
C191   C     0.59583   0.62636   0.37385   0.00000  Uiso   1.00
C192   C     0.49678   0.64462   0.41102   0.00000  Uiso   1.00
C193   C     0.35936   0.66683   0.49198   0.00000  Uiso   1.00
C194   C     0.74394   0.65701   0.22465   0.00000  Uiso   1.00
C195   C     0.87647   0.66816   0.21957   0.00000  Uiso   1.00
C196   C     0.90577   0.70554   0.18619   0.00000  Uiso   1.00
C197   C     0.00506   0.76299   0.13700   0.00000  Uiso   1.00
C198   C     0.50612   0.66411   0.20877   0.00000  Uiso   1.00
C199   C     0.50827   0.61850   0.18220   0.00000  Uiso   1.00
C200   C     0.42308   0.60220   0.13607   0.00000  Uiso   1.00
C201   C     0.44120   0.55966   0.11817   0.00000  Uiso   1.00
C202   C     0.49173   0.65961   0.28118   0.00000  Uiso   1.00
C203   C     0.39265   0.67788   0.31827   0.00000  Uiso   1.00
C204   C     0.39685   0.66996   0.38369   0.00000  Uiso   1.00
C205   C     0.64419   0.68231   0.19736   0.00000  Uiso   1.00
C206   C     0.67329   0.71968   0.16398   0.00000  Uiso   1.00
C207   C     0.80584   0.73088   0.15885   0.00000  Uiso   1.00
H208   H     0.76742   0.59785   0.28025   0.00000  Uiso   1.00
H209   H     0.70346   0.53111   0.21279   0.00000  Uiso   1.00
H210   H     0.67304   0.60679   0.39495   0.00000  Uiso   1.00
H211   H     0.95363   0.64858   0.24069   0.00000  Uiso   1.00
H212   H     0.58853   0.46827   0.12597   0.00000  Uiso   1.00
H213   H     0.52442   0.62786   0.51008   0.00000  Uiso   1.00
H214   H     0.11611   0.71597   0.18480   0.00000  Uiso   1.00
H215   H     0.42846   0.68380   0.18752   0.00000  Uiso   1.00
H216   H     0.34590   0.62178   0.11497   0.00000  Uiso   1.00
H217   H     0.31548   0.69746   0.29713   0.00000  Uiso   1.00
H218   H     0.59607   0.73925   0.14287   0.00000  Uiso   1.00
H219   H     0.29832   0.54186   0.04658   0.00000  Uiso   1.00
H220   H     0.23421   0.70145   0.43069   0.00000  Uiso   1.00
H221   H     0.82589   0.78956   0.10540   0.00000  Uiso   1.00
O222   O     0.39521   0.46271   0.04024   0.00000  Uiso   1.00
O223   O     0.31111   0.67209   0.54417   0.00000  Uiso   1.00
O224   O     0.08738   0.78769   0.11740   0.00000  Uiso   1.00
N225   N     0.53158   0.49411   0.11724   0.00000  Uiso   1.00
N226   N     0.47163   0.64330   0.47635   0.00000  Uiso   1.00
N227   N     0.02480   0.72569   0.17225   0.00000  Uiso   1.00
N228   N     0.37542   0.53371   0.07451   0.00000  Uiso   1.00
N229   N     0.31547   0.68290   0.43363   0.00000  Uiso   1.00
N230   N     0.86864   0.76529   0.12953   0.00000  Uiso   1.00
C231   C     0.81023   0.38246   0.25901   0.00000  Uiso   1.00
C232   C     0.89198   0.40680   0.20949   0.00000  Uiso   1.00
C233   C     0.87374   0.44932   0.19166   0.00000  Uiso   1.00
C234   C     0.95887   0.46568   0.14551   0.00000  Uiso   1.00
C235   C     0.07067   0.50732   0.07280   0.00000  Uiso   1.00
C236   C     0.90852   0.36569   0.30846   0.00000  Uiso   1.00
C237   C     0.90417   0.37364   0.37385   0.00000  Uiso   1.00
C238   C     0.00322   0.35538   0.41102   0.00000  Uiso   1.00
C239   C     0.14064   0.33317   0.49198   0.00000  Uiso   1.00
C240   C     0.75606   0.34299   0.22465   0.00000  Uiso   1.00
C241   C     0.62353   0.33184   0.21957   0.00000  Uiso   1.00
C242   C     0.59423   0.29446   0.18619   0.00000  Uiso   1.00
C243   C     0.49494   0.23701   0.13700   0.00000  Uiso   1.00
C244   C     0.99388   0.33589   0.20877   0.00000  Uiso   1.00
C245   C     0.99173   0.38150   0.18220   0.00000  Uiso   1.00
C246   C     0.07692   0.39780   0.13607   0.00000  Uiso   1.00
C247   C     0.05880   0.44034   0.11817   0.00000  Uiso   1.00
C248   C     0.00827   0.34039   0.28118   0.00000  Uiso   1.00
C249   C     0.10735   0.32212   0.31827   0.00000  Uiso   1.00
C250   C     0.10315   0.33004   0.38369   0.00000  Uiso   1.00
C251   C     0.85581   0.31769   0.19736   0.00000  Uiso   1.00
C252   C     0.82671   0.28032   0.16398   0.00000  Uiso   1.00
C253   C     0.69416   0.26912   0.15885   0.00000  Uiso   1.00
H254   H     0.73258   0.40215   0.28025   0.00000  Uiso   1.00
H255   H     0.79654   0.46889   0.21279   0.00000  Uiso   1.00
H256   H     0.82696   0.39321   0.39495   0.00000  Uiso   1.00
H257   H     0.54637   0.35142   0.24069   0.00000  Uiso   1.00
H258   H     0.91147   0.53173   0.12597   0.00000  Uiso   1.00
H259   H     0.97558   0.37214   0.51008   0.00000  Uiso   1.00
H260   H     0.38389   0.28403   0.18480   0.00000  Uiso   1.00
H261   H     0.07154   0.31620   0.18752   0.00000  Uiso   1.00
H262   H     0.15410   0.37822   0.11497   0.00000  Uiso   1.00
H263   H     0.18452   0.30254   0.29713   0.00000  Uiso   1.00
H264   H     0.90393   0.26075   0.14287   0.00000  Uiso   1.00
H265   H     0.20168   0.45814   0.04658   0.00000  Uiso   1.00
H266   H     0.26579   0.29855   0.43069   0.00000  Uiso   1.00
H267   H     0.67411   0.21044   0.10540   0.00000  Uiso   1.00
O268   O     0.10479   0.53729   0.04024   0.00000  Uiso   1.00
O269   O     0.18889   0.32791   0.54417   0.00000  Uiso   1.00
O270   O     0.41262   0.21231   0.11740   0.00000  Uiso   1.00
N271   N     0.96842   0.50589   0.11724   0.00000  Uiso   1.00
N272   N     0.02837   0.35670   0.47635   0.00000  Uiso   1.00
N273   N     0.47520   0.27431   0.17225   0.00000  Uiso   1.00
N274   N     0.12458   0.46629   0.07451   0.00000  Uiso   1.00
N275   N     0.18453   0.31710   0.43363   0.00000  Uiso   1.00
N276   N     0.63136   0.23471   0.12953   0.00000  Uiso   1.00
C277   C     0.81023   0.11754   0.24099   0.00000  Uiso   1.00
C278   C     0.89198   0.09320   0.29051   0.00000  Uiso   1.00
C279   C     0.87374   0.05068   0.30834   0.00000  Uiso   1.00
C280   C     0.95887   0.03432   0.35449   0.00000  Uiso   1.00
C281   C     0.07067   0.99268   0.42720   0.00000  Uiso   1.00
C282   C     0.90852   0.13431   0.19154   0.00000  Uiso   1.00
C283   C     0.90417   0.12636   0.12615   0.00000  Uiso   1.00
C284   C     0.00322   0.14462   0.08898   0.00000  Uiso   1.00
C285   C     0.14064   0.16683   0.00802   0.00000  Uiso   1.00
C286   C     0.75606   0.15701   0.27535   0.00000  Uiso   1.00
C287   C     0.62353   0.16816   0.28043   0.00000  Uiso   1.00
C288   C     0.59423   0.20554   0.31381   0.00000  Uiso   1.00
C289   C     0.49494   0.26299   0.36300   0.00000  Uiso   1.00
C290   C     0.99388   0.16411   0.29123   0.00000  Uiso   1.00
C291   C     0.99173   0.11850   0.31780   0.00000  Uiso   1.00
C292   C     0.07692   0.10220   0.36393   0.00000  Uiso   1.00
C293   C     0.05880   0.05966   0.38183   0.00000  Uiso   1.00
C294   C     0.00827   0.15961   0.21882   0.00000  Uiso   1.00
C295   C     0.10735   0.17788   0.18173   0.00000  Uiso   1.00
C296   C     0.10315   0.16996   0.11631   0.00000  Uiso   1.00
C297   C     0.85581   0.18231   0.30264   0.00000  Uiso   1.00
C298   C     0.82671   0.21968   0.33602   0.00000  Uiso   1.00
C299   C     0.69416   0.23088   0.34115   0.00000  Uiso   1.00
H300   H     0.73258   0.09785   0.21975   0.00000  Uiso   1.00
H301   H     0.79654   0.03111   0.28721   0.00000  Uiso   1.00
H302   H     0.82696   0.10679   0.10505   0.00000  Uiso   1.00
H303   H     0.54637   0.14858   0.25931   0.00000  Uiso   1.00
H304   H     0.91147   0.96827   0.37403   0.00000  Uiso   1.00
H305   H     0.97558   0.12786   0.98992   0.00000  Uiso   1.00
H306   H     0.38389   0.21597   0.31520   0.00000  Uiso   1.00
H307   H     0.07154   0.18380   0.31248   0.00000  Uiso   1.00
H308   H     0.15410   0.12178   0.38503   0.00000  Uiso   1.00
H309   H     0.18452   0.19746   0.20287   0.00000  Uiso   1.00
H310   H     0.90393   0.23925   0.35713   0.00000  Uiso   1.00
H311   H     0.20168   0.04186   0.45342   0.00000  Uiso   1.00
H312   H     0.26579   0.20145   0.06931   0.00000  Uiso   1.00
H313   H     0.67411   0.28956   0.39460   0.00000  Uiso   1.00
O314   O     0.10479   0.96271   0.45976   0.00000  Uiso   1.00
O315   O     0.18889   0.17209   0.95583   0.00000  Uiso   1.00
O316   O     0.41262   0.28769   0.38260   0.00000  Uiso   1.00
N317   N     0.96842   0.99411   0.38276   0.00000  Uiso   1.00
N318   N     0.02837   0.14330   0.02365   0.00000  Uiso   1.00
N319   N     0.47520   0.22569   0.32775   0.00000  Uiso   1.00
N320   N     0.12458   0.03371   0.42549   0.00000  Uiso   1.00
N321   N     0.18453   0.18290   0.06637   0.00000  Uiso   1.00
N322   N     0.63136   0.26529   0.37047   0.00000  Uiso   1.00
C323   C     0.68977   0.88246   0.24099   0.00000  Uiso   1.00
C324   C     0.60802   0.90680   0.29051   0.00000  Uiso   1.00
C325   C     0.62626   0.94932   0.30834   0.00000  Uiso   1.00
C326   C     0.54113   0.96568   0.35449   0.00000  Uiso   1.00
C327   C     0.42933   0.00732   0.42720   0.00000  Uiso   1.00
C328   C     0.59148   0.86569   0.19154   0.00000  Uiso   1.00
C329   C     0.59583   0.87364   0.12615   0.00000  Uiso   1.00
C330   C     0.49678   0.85538   0.08898   0.00000  Uiso   1.00
C331   C     0.35936   0.83317   0.00802   0.00000  Uiso   1.00
C332   C     0.74394   0.84299   0.27535   0.00000  Uiso   1.00
C333   C     0.87647   0.83184   0.28043   0.00000  Uiso   1.00
C334   C     0.90577   0.79446   0.31381   0.00000  Uiso   1.00
C335   C     0.00506   0.73701   0.36300   0.00000  Uiso   1.00
C336   C     0.50612   0.83589   0.29123   0.00000  Uiso   1.00
C337   C     0.50827   0.88150   0.31780   0.00000  Uiso   1.00
C338   C     0.42308   0.89780   0.36393   0.00000  Uiso   1.00
C339   C     0.44120   0.94034   0.38183   0.00000  Uiso   1.00
C340   C     0.49173   0.84039   0.21882   0.00000  Uiso   1.00
C341   C     0.39265   0.82212   0.18173   0.00000  Uiso   1.00
C342   C     0.39685   0.83004   0.11631   0.00000  Uiso   1.00
C343   C     0.64419   0.81769   0.30264   0.00000  Uiso   1.00
C344   C     0.67329   0.78032   0.33602   0.00000  Uiso   1.00
C345   C     0.80584   0.76912   0.34115   0.00000  Uiso   1.00
H346   H     0.76742   0.90215   0.21975   0.00000  Uiso   1.00
H347   H     0.70346   0.96889   0.28721   0.00000  Uiso   1.00
H348   H     0.67304   0.89321   0.10505   0.00000  Uiso   1.00
H349   H     0.95363   0.85142   0.25931   0.00000  Uiso   1.00
H350   H     0.58853   0.03173   0.37403   0.00000  Uiso   1.00
H351   H     0.52442   0.87214   0.98992   0.00000  Uiso   1.00
H352   H     0.11611   0.78403   0.31520   0.00000  Uiso   1.00
H353   H     0.42846   0.81620   0.31248   0.00000  Uiso   1.00
H354   H     0.34590   0.87822   0.38503   0.00000  Uiso   1.00
H355   H     0.31548   0.80254   0.20287   0.00000  Uiso   1.00
H356   H     0.59607   0.76075   0.35713   0.00000  Uiso   1.00
H357   H     0.29832   0.95814   0.45342   0.00000  Uiso   1.00
H358   H     0.23421   0.79855   0.06931   0.00000  Uiso   1.00
H359   H     0.82589   0.71044   0.39460   0.00000  Uiso   1.00
O360   O     0.39521   0.03729   0.45976   0.00000  Uiso   1.00
O361   O     0.31111   0.82791   0.95583   0.00000  Uiso   1.00
O362   O     0.08738   0.71231   0.38260   0.00000  Uiso   1.00
N363   N     0.53158   0.00589   0.38276   0.00000  Uiso   1.00
N364   N     0.47163   0.85670   0.02365   0.00000  Uiso   1.00
N365   N     0.02480   0.77431   0.32775   0.00000  Uiso   1.00
N366   N     0.37542   0.96629   0.42549   0.00000  Uiso   1.00
N367   N     0.31547   0.81710   0.06637   0.00000  Uiso   1.00
N368   N     0.86864   0.73471   0.37047   0.00000  Uiso   1.00
