data_job_05525
_audit_creation_date              2018-12-19
_audit_creation_method            'Materials Studio'
_symmetry_space_group_name_H-M    'P1'
_symmetry_Int_Tables_number       1
_symmetry_cell_setting            triclinic
loop_
_symmetry_equiv_pos_as_xyz
  x,y,z
_cell_length_a                    13.8278
_cell_length_b                    9.4712
_cell_length_c                    23.9613
_cell_angle_alpha                 90.0000
_cell_angle_beta                  105.2750
_cell_angle_gamma                 90.0000
loop_
_atom_site_label
_atom_site_type_symbol
_atom_site_fract_x
_atom_site_fract_y
_atom_site_fract_z
_atom_site_U_iso_or_equiv
_atom_site_adp_type
_atom_site_occupancy
C1     C     0.93291   0.76017   0.25014   0.00000  Uiso   1.00
C2     C     0.90277   0.85154   0.19592   0.00000  Uiso   1.00
C3     C     0.95336   0.85983   0.15311   0.00000  Uiso   1.00
C4     C     0.91376   0.94962   0.10694   0.00000  Uiso   1.00
C5     C     0.88023   0.07960   0.02324   0.00000  Uiso   1.00
C6     C     0.94377   0.86060   0.30116   0.00000  Uiso   1.00
C7     C     0.02884   0.87648   0.34685   0.00000  Uiso   1.00
C8     C     0.02375   0.97389   0.38929   0.00000  Uiso   1.00
C9     C     0.05386   0.11785   0.46901   0.00000  Uiso   1.00
C10    C     0.84234   0.66756   0.24932   0.00000  Uiso   1.00
C11    C     0.84212   0.52113   0.25144   0.00000  Uiso   1.00
C12    C     0.75163   0.45601   0.25024   0.00000  Uiso   1.00
C13    C     0.62426   0.30024   0.24948   0.00000  Uiso   1.00
C14    C     0.77261   0.90490   0.24428   0.00000  Uiso   1.00
C15    C     0.81570   0.93016   0.19273   0.00000  Uiso   1.00
C16    C     0.77601   0.01996   0.14662   0.00000  Uiso   1.00
C17    C     0.82654   0.02837   0.10375   0.00000  Uiso   1.00
C18    C     0.85671   0.93921   0.29798   0.00000  Uiso   1.00
C19    C     0.85149   0.03661   0.34036   0.00000  Uiso   1.00
C20    C     0.93653   0.05265   0.38610   0.00000  Uiso   1.00
C21    C     0.75527   0.74617   0.24614   0.00000  Uiso   1.00
C22    C     0.66477   0.68126   0.24495   0.00000  Uiso   1.00
C23    C     0.66441   0.53476   0.24705   0.00000  Uiso   1.00
H24    H     0.00069   0.69897   0.25262   0.00000  Uiso   1.00
H25    H     0.02074   0.79899   0.15559   0.00000  Uiso   1.00
H26    H     0.09620   0.81563   0.34930   0.00000  Uiso   1.00
H27    H     0.90951   0.46033   0.25390   0.00000  Uiso   1.00
H28    H     0.00459   0.94458   0.04662   0.00000  Uiso   1.00
H29    H     0.16370   0.97963   0.45509   0.00000  Uiso   1.00
H30    H     0.77002   0.23042   0.25391   0.00000  Uiso   1.00
H31    H     0.70483   0.96611   0.24180   0.00000  Uiso   1.00
H32    H     0.70864   0.08078   0.14417   0.00000  Uiso   1.00
H33    H     0.78410   0.09742   0.33789   0.00000  Uiso   1.00
H34    H     0.59741   0.74213   0.24248   0.00000  Uiso   1.00
H35    H     0.75128   0.17330   0.03735   0.00000  Uiso   1.00
H36    H     0.91039   0.20834   0.44582   0.00000  Uiso   1.00
H37    H     0.51671   0.45914   0.24465   0.00000  Uiso   1.00
O38    O     0.88580   0.12959   0.97796   0.00000  Uiso   1.00
O39    O     0.09453   0.17555   0.51387   0.00000  Uiso   1.00
O40    O     0.57804   0.19261   0.24993   0.00000  Uiso   1.00
N41    N     0.94444   0.98265   0.05783   0.00000  Uiso   1.00
N42    N     0.09320   0.01544   0.43972   0.00000  Uiso   1.00
N43    N     0.72515   0.31499   0.25165   0.00000  Uiso   1.00
N44    N     0.80813   0.10572   0.05284   0.00000  Uiso   1.00
N45    N     0.95689   0.13851   0.43473   0.00000  Uiso   1.00
N46    N     0.58885   0.43806   0.24667   0.00000  Uiso   1.00
C47    C     0.06709   0.26017   0.24986   0.00000  Uiso   1.00
C48    C     0.09723   0.35154   0.30408   0.00000  Uiso   1.00
C49    C     0.04664   0.35983   0.34689   0.00000  Uiso   1.00
C50    C     0.08624   0.44962   0.39306   0.00000  Uiso   1.00
C51    C     0.11977   0.57960   0.47676   0.00000  Uiso   1.00
C52    C     0.05623   0.36060   0.19884   0.00000  Uiso   1.00
C53    C     0.97116   0.37648   0.15315   0.00000  Uiso   1.00
C54    C     0.97625   0.47389   0.11071   0.00000  Uiso   1.00
C55    C     0.94614   0.61785   0.03099   0.00000  Uiso   1.00
C56    C     0.15766   0.16756   0.25068   0.00000  Uiso   1.00
C57    C     0.15788   0.02113   0.24856   0.00000  Uiso   1.00
C58    C     0.24837   0.95601   0.24976   0.00000  Uiso   1.00
C59    C     0.37574   0.80024   0.25052   0.00000  Uiso   1.00
C60    C     0.22739   0.40490   0.25572   0.00000  Uiso   1.00
C61    C     0.18430   0.43016   0.30727   0.00000  Uiso   1.00
C62    C     0.22399   0.51996   0.35338   0.00000  Uiso   1.00
C63    C     0.17346   0.52837   0.39625   0.00000  Uiso   1.00
C64    C     0.14329   0.43921   0.20202   0.00000  Uiso   1.00
C65    C     0.14851   0.53661   0.15964   0.00000  Uiso   1.00
C66    C     0.06347   0.55265   0.11390   0.00000  Uiso   1.00
C67    C     0.24473   0.24617   0.25386   0.00000  Uiso   1.00
C68    C     0.33523   0.18126   0.25505   0.00000  Uiso   1.00
C69    C     0.33559   0.03476   0.25295   0.00000  Uiso   1.00
H70    H     0.99931   0.19897   0.24738   0.00000  Uiso   1.00
H71    H     0.97926   0.29899   0.34441   0.00000  Uiso   1.00
H72    H     0.90380   0.31563   0.15070   0.00000  Uiso   1.00
H73    H     0.09049   0.96033   0.24610   0.00000  Uiso   1.00
H74    H     0.99541   0.44458   0.45338   0.00000  Uiso   1.00
H75    H     0.83630   0.47963   0.04491   0.00000  Uiso   1.00
H76    H     0.22998   0.73042   0.24609   0.00000  Uiso   1.00
H77    H     0.29517   0.46611   0.25820   0.00000  Uiso   1.00
H78    H     0.29136   0.58078   0.35583   0.00000  Uiso   1.00
H79    H     0.21590   0.59742   0.16211   0.00000  Uiso   1.00
H80    H     0.40259   0.24213   0.25752   0.00000  Uiso   1.00
H81    H     0.24872   0.67330   0.46265   0.00000  Uiso   1.00
H82    H     0.08961   0.70834   0.05418   0.00000  Uiso   1.00
H83    H     0.48329   0.95914   0.25535   0.00000  Uiso   1.00
O84    O     0.11420   0.62959   0.52204   0.00000  Uiso   1.00
O85    O     0.90547   0.67555   0.98613   0.00000  Uiso   1.00
O86    O     0.42196   0.69261   0.25007   0.00000  Uiso   1.00
N87    N     0.05556   0.48265   0.44217   0.00000  Uiso   1.00
N88    N     0.90680   0.51544   0.06028   0.00000  Uiso   1.00
N89    N     0.27485   0.81499   0.24835   0.00000  Uiso   1.00
N90    N     0.19187   0.60572   0.44716   0.00000  Uiso   1.00
N91    N     0.04311   0.63851   0.06527   0.00000  Uiso   1.00
N92    N     0.41115   0.93806   0.25333   0.00000  Uiso   1.00
C93    C     0.06709   0.23983   0.74986   0.00000  Uiso   1.00
C94    C     0.09723   0.14846   0.80408   0.00000  Uiso   1.00
C95    C     0.04664   0.14017   0.84689   0.00000  Uiso   1.00
C96    C     0.08624   0.05038   0.89306   0.00000  Uiso   1.00
C97    C     0.11977   0.92040   0.97676   0.00000  Uiso   1.00
C98    C     0.05623   0.13940   0.69884   0.00000  Uiso   1.00
C99    C     0.97116   0.12352   0.65315   0.00000  Uiso   1.00
C100   C     0.97625   0.02611   0.61071   0.00000  Uiso   1.00
C101   C     0.94614   0.88215   0.53099   0.00000  Uiso   1.00
C102   C     0.15766   0.33244   0.75068   0.00000  Uiso   1.00
C103   C     0.15788   0.47887   0.74856   0.00000  Uiso   1.00
C104   C     0.24837   0.54399   0.74976   0.00000  Uiso   1.00
C105   C     0.37574   0.69976   0.75052   0.00000  Uiso   1.00
C106   C     0.22739   0.09510   0.75572   0.00000  Uiso   1.00
C107   C     0.18430   0.06984   0.80727   0.00000  Uiso   1.00
C108   C     0.22399   0.98004   0.85338   0.00000  Uiso   1.00
C109   C     0.17346   0.97163   0.89625   0.00000  Uiso   1.00
C110   C     0.14329   0.06079   0.70202   0.00000  Uiso   1.00
C111   C     0.14851   0.96339   0.65964   0.00000  Uiso   1.00
C112   C     0.06347   0.94735   0.61390   0.00000  Uiso   1.00
C113   C     0.24473   0.25383   0.75386   0.00000  Uiso   1.00
C114   C     0.33523   0.31874   0.75505   0.00000  Uiso   1.00
C115   C     0.33559   0.46524   0.75295   0.00000  Uiso   1.00
H116   H     0.99931   0.30103   0.74738   0.00000  Uiso   1.00
H117   H     0.97926   0.20101   0.84441   0.00000  Uiso   1.00
H118   H     0.90380   0.18437   0.65070   0.00000  Uiso   1.00
H119   H     0.09049   0.53967   0.74610   0.00000  Uiso   1.00
H120   H     0.99541   0.05542   0.95338   0.00000  Uiso   1.00
H121   H     0.83630   0.02037   0.54491   0.00000  Uiso   1.00
H122   H     0.22998   0.76958   0.74609   0.00000  Uiso   1.00
H123   H     0.29517   0.03389   0.75820   0.00000  Uiso   1.00
H124   H     0.29136   0.91922   0.85583   0.00000  Uiso   1.00
H125   H     0.21590   0.90258   0.66211   0.00000  Uiso   1.00
H126   H     0.40259   0.25787   0.75752   0.00000  Uiso   1.00
H127   H     0.24872   0.82670   0.96265   0.00000  Uiso   1.00
H128   H     0.08961   0.79166   0.55418   0.00000  Uiso   1.00
H129   H     0.48329   0.54086   0.75535   0.00000  Uiso   1.00
O130   O     0.11420   0.87041   0.02204   0.00000  Uiso   1.00
O131   O     0.90547   0.82445   0.48613   0.00000  Uiso   1.00
O132   O     0.42196   0.80739   0.75007   0.00000  Uiso   1.00
N133   N     0.05556   0.01735   0.94217   0.00000  Uiso   1.00
N134   N     0.90680   0.98456   0.56028   0.00000  Uiso   1.00
N135   N     0.27485   0.68501   0.74835   0.00000  Uiso   1.00
N136   N     0.19187   0.89428   0.94716   0.00000  Uiso   1.00
N137   N     0.04311   0.86149   0.56527   0.00000  Uiso   1.00
N138   N     0.41115   0.56194   0.75333   0.00000  Uiso   1.00
C139   C     0.93291   0.73983   0.75014   0.00000  Uiso   1.00
C140   C     0.90277   0.64846   0.69592   0.00000  Uiso   1.00
C141   C     0.95336   0.64017   0.65311   0.00000  Uiso   1.00
C142   C     0.91376   0.55038   0.60694   0.00000  Uiso   1.00
C143   C     0.88023   0.42040   0.52324   0.00000  Uiso   1.00
C144   C     0.94377   0.63940   0.80116   0.00000  Uiso   1.00
C145   C     0.02884   0.62352   0.84685   0.00000  Uiso   1.00
C146   C     0.02375   0.52611   0.88929   0.00000  Uiso   1.00
C147   C     0.05386   0.38215   0.96901   0.00000  Uiso   1.00
C148   C     0.84234   0.83244   0.74932   0.00000  Uiso   1.00
C149   C     0.84212   0.97887   0.75144   0.00000  Uiso   1.00
C150   C     0.75163   0.04399   0.75024   0.00000  Uiso   1.00
C151   C     0.62426   0.19976   0.74948   0.00000  Uiso   1.00
C152   C     0.77261   0.59510   0.74428   0.00000  Uiso   1.00
C153   C     0.81570   0.56984   0.69273   0.00000  Uiso   1.00
C154   C     0.77601   0.48004   0.64662   0.00000  Uiso   1.00
C155   C     0.82654   0.47163   0.60375   0.00000  Uiso   1.00
C156   C     0.85671   0.56079   0.79798   0.00000  Uiso   1.00
C157   C     0.85149   0.46339   0.84036   0.00000  Uiso   1.00
C158   C     0.93653   0.44735   0.88610   0.00000  Uiso   1.00
C159   C     0.75527   0.75383   0.74614   0.00000  Uiso   1.00
C160   C     0.66477   0.81874   0.74495   0.00000  Uiso   1.00
C161   C     0.66441   0.96524   0.74705   0.00000  Uiso   1.00
H162   H     0.00069   0.80103   0.75262   0.00000  Uiso   1.00
H163   H     0.02074   0.70101   0.65559   0.00000  Uiso   1.00
H164   H     0.09620   0.68437   0.84930   0.00000  Uiso   1.00
H165   H     0.90951   0.03967   0.75390   0.00000  Uiso   1.00
H166   H     0.00459   0.55542   0.54662   0.00000  Uiso   1.00
H167   H     0.16370   0.52037   0.95509   0.00000  Uiso   1.00
H168   H     0.77002   0.26958   0.75391   0.00000  Uiso   1.00
H169   H     0.70483   0.53389   0.74180   0.00000  Uiso   1.00
H170   H     0.70864   0.41922   0.64417   0.00000  Uiso   1.00
H171   H     0.78410   0.40258   0.83789   0.00000  Uiso   1.00
H172   H     0.59741   0.75787   0.74248   0.00000  Uiso   1.00
H173   H     0.75128   0.32670   0.53735   0.00000  Uiso   1.00
H174   H     0.91039   0.29166   0.94582   0.00000  Uiso   1.00
H175   H     0.51671   0.04086   0.74465   0.00000  Uiso   1.00
O176   O     0.88580   0.37041   0.47796   0.00000  Uiso   1.00
O177   O     0.09453   0.32445   0.01387   0.00000  Uiso   1.00
O178   O     0.57804   0.30739   0.74993   0.00000  Uiso   1.00
N179   N     0.94444   0.51735   0.55783   0.00000  Uiso   1.00
N180   N     0.09320   0.48456   0.93972   0.00000  Uiso   1.00
N181   N     0.72515   0.18501   0.75165   0.00000  Uiso   1.00
N182   N     0.80813   0.39428   0.55284   0.00000  Uiso   1.00
N183   N     0.95689   0.36149   0.93473   0.00000  Uiso   1.00
N184   N     0.58885   0.06194   0.74667   0.00000  Uiso   1.00
