data_job_04249
_audit_creation_date              2018-12-19
_audit_creation_method            'Materials Studio'
_symmetry_space_group_name_H-M    'P1'
_symmetry_Int_Tables_number       1
_symmetry_cell_setting            triclinic
loop_
_symmetry_equiv_pos_as_xyz
  x,y,z
_cell_length_a                    12.8943
_cell_length_b                    22.3442
_cell_length_c                    7.6369
_cell_angle_alpha                 90.0000
_cell_angle_beta                  90.0208
_cell_angle_gamma                 90.0000
loop_
_atom_site_label
_atom_site_type_symbol
_atom_site_fract_x
_atom_site_fract_y
_atom_site_fract_z
_atom_site_U_iso_or_equiv
_atom_site_adp_type
_atom_site_occupancy
C1     C     0.55285   0.93236   0.16875   0.00000  Uiso   1.00
C2     C     0.47774   0.88669   0.09166   0.00000  Uiso   1.00
C3     C     0.41463   0.84830   0.18676   0.00000  Uiso   1.00
C4     C     0.35141   0.80984   0.09188   0.00000  Uiso   1.00
C5     C     0.23482   0.73891   0.00007   0.00000  Uiso   1.00
C6     C     0.65890   0.91765   0.09162   0.00000  Uiso   1.00
C7     C     0.74811   0.90530   0.18670   0.00000  Uiso   1.00
C8     C     0.83739   0.89292   0.09178   0.00000  Uiso   1.00
C9     C     0.00208   0.87011   0.99992   0.00000  Uiso   1.00
C10    C     0.52186   0.99271   0.09160   0.00000  Uiso   1.00
C11    C     0.49588   0.04348   0.18666   0.00000  Uiso   1.00
C12    C     0.46980   0.09430   0.09172   0.00000  Uiso   1.00
C13    C     0.42172   0.18802   0.99983   0.00000  Uiso   1.00
C14    C     0.55277   0.93234   0.83113   0.00000  Uiso   1.00
C15    C     0.47770   0.88668   0.90828   0.00000  Uiso   1.00
C16    C     0.41454   0.84827   0.81323   0.00000  Uiso   1.00
C17    C     0.35136   0.80983   0.90817   0.00000  Uiso   1.00
C18    C     0.65886   0.91764   0.90825   0.00000  Uiso   1.00
C19    C     0.74802   0.90528   0.81317   0.00000  Uiso   1.00
C20    C     0.83735   0.89291   0.90807   0.00000  Uiso   1.00
C21    C     0.52181   0.99270   0.90822   0.00000  Uiso   1.00
C22    C     0.49578   0.04345   0.81312   0.00000  Uiso   1.00
C23    C     0.46976   0.09429   0.90801   0.00000  Uiso   1.00
H24    H     0.55289   0.93236   0.31151   0.00000  Uiso   1.00
H25    H     0.41470   0.84831   0.32867   0.00000  Uiso   1.00
H26    H     0.74813   0.90532   0.32860   0.00000  Uiso   1.00
H27    H     0.49592   0.04347   0.32856   0.00000  Uiso   1.00
H28    H     0.26150   0.75511   0.26682   0.00000  Uiso   1.00
H29    H     0.96456   0.87532   0.26668   0.00000  Uiso   1.00
H30    H     0.43274   0.16665   0.26660   0.00000  Uiso   1.00
H31    H     0.55273   0.93233   0.68836   0.00000  Uiso   1.00
H32    H     0.41453   0.84828   0.67132   0.00000  Uiso   1.00
H33    H     0.74796   0.90528   0.67126   0.00000  Uiso   1.00
H34    H     0.49576   0.04343   0.67122   0.00000  Uiso   1.00
H35    H     0.26136   0.75507   0.73329   0.00000  Uiso   1.00
H36    H     0.96443   0.87530   0.73316   0.00000  Uiso   1.00
H37    H     0.43261   0.16661   0.73307   0.00000  Uiso   1.00
O38    O     0.17054   0.69978   0.00009   0.00000  Uiso   1.00
O39    O     0.09293   0.85752   0.99991   0.00000  Uiso   1.00
O40    O     0.39520   0.23972   0.99980   0.00000  Uiso   1.00
N41    N     0.28042   0.76664   0.14359   0.00000  Uiso   1.00
N42    N     0.93773   0.87903   0.14346   0.00000  Uiso   1.00
N43    N     0.44056   0.15139   0.14339   0.00000  Uiso   1.00
N44    N     0.28034   0.76663   0.85651   0.00000  Uiso   1.00
N45    N     0.93766   0.87901   0.85638   0.00000  Uiso   1.00
N46    N     0.44048   0.15138   0.85630   0.00000  Uiso   1.00
C47    C     0.05316   0.09104   0.33110   0.00000  Uiso   1.00
C48    C     0.12693   0.13743   0.40821   0.00000  Uiso   1.00
C49    C     0.18890   0.17643   0.31313   0.00000  Uiso   1.00
C50    C     0.25099   0.21549   0.40802   0.00000  Uiso   1.00
C51    C     0.36548   0.28755   0.49986   0.00000  Uiso   1.00
C52    C     0.94670   0.10470   0.40822   0.00000  Uiso   1.00
C53    C     0.85713   0.11619   0.31314   0.00000  Uiso   1.00
C54    C     0.76751   0.12770   0.40805   0.00000  Uiso   1.00
C55    C     0.60217   0.14890   0.49990   0.00000  Uiso   1.00
C56    C     0.08591   0.03099   0.40824   0.00000  Uiso   1.00
C57    C     0.11337   0.98049   0.31317   0.00000  Uiso   1.00
C58    C     0.14093   0.92993   0.40810   0.00000  Uiso   1.00
C59    C     0.19174   0.83668   0.49997   0.00000  Uiso   1.00
C60    C     0.05323   0.09105   0.66871   0.00000  Uiso   1.00
C61    C     0.12696   0.13743   0.59159   0.00000  Uiso   1.00
C62    C     0.18898   0.17644   0.68666   0.00000  Uiso   1.00
C63    C     0.25104   0.21550   0.59173   0.00000  Uiso   1.00
C64    C     0.94673   0.10471   0.59159   0.00000  Uiso   1.00
C65    C     0.85721   0.11620   0.68667   0.00000  Uiso   1.00
C66    C     0.76754   0.12770   0.59176   0.00000  Uiso   1.00
C67    C     0.08595   0.03099   0.59162   0.00000  Uiso   1.00
C68    C     0.11345   0.98050   0.68671   0.00000  Uiso   1.00
C69    C     0.14096   0.92993   0.59181   0.00000  Uiso   1.00
H70    H     0.05313   0.09103   0.18834   0.00000  Uiso   1.00
H71    H     0.18884   0.17642   0.17121   0.00000  Uiso   1.00
H72    H     0.85713   0.11618   0.17123   0.00000  Uiso   1.00
H73    H     0.11333   0.98050   0.17127   0.00000  Uiso   1.00
H74    H     0.33930   0.27110   0.23310   0.00000  Uiso   1.00
H75    H     0.63985   0.14406   0.23314   0.00000  Uiso   1.00
H76    H     0.18010   0.85795   0.23321   0.00000  Uiso   1.00
H77    H     0.05326   0.09105   0.81149   0.00000  Uiso   1.00
H78    H     0.18899   0.17644   0.82856   0.00000  Uiso   1.00
H79    H     0.85727   0.11620   0.82858   0.00000  Uiso   1.00
H80    H     0.11347   0.98052   0.82861   0.00000  Uiso   1.00
H81    H     0.33941   0.27112   0.76663   0.00000  Uiso   1.00
H82    H     0.63996   0.14407   0.76666   0.00000  Uiso   1.00
H83    H     0.18022   0.85797   0.76674   0.00000  Uiso   1.00
O84    O     0.42861   0.32729   0.49985   0.00000  Uiso   1.00
O85    O     0.51096   0.16060   0.49990   0.00000  Uiso   1.00
O86    O     0.21977   0.78525   0.49999   0.00000  Uiso   1.00
N87    N     0.32071   0.25938   0.35632   0.00000  Uiso   1.00
N88    N     0.66677   0.14061   0.35636   0.00000  Uiso   1.00
N89    N     0.17184   0.87312   0.35642   0.00000  Uiso   1.00
N90    N     0.32078   0.25939   0.64341   0.00000  Uiso   1.00
N91    N     0.66684   0.14062   0.64344   0.00000  Uiso   1.00
N92    N     0.17190   0.87313   0.64351   0.00000  Uiso   1.00
C93    C     0.44715   0.43236   0.83125   0.00000  Uiso   1.00
C94    C     0.52226   0.38669   0.90834   0.00000  Uiso   1.00
C95    C     0.58537   0.34830   0.81324   0.00000  Uiso   1.00
C96    C     0.64859   0.30984   0.90812   0.00000  Uiso   1.00
C97    C     0.76518   0.23891   0.99993   0.00000  Uiso   1.00
C98    C     0.34110   0.41765   0.90838   0.00000  Uiso   1.00
C99    C     0.25189   0.40530   0.81330   0.00000  Uiso   1.00
C100   C     0.16261   0.39292   0.90822   0.00000  Uiso   1.00
C101   C     0.99792   0.37011   0.00008   0.00000  Uiso   1.00
C102   C     0.47814   0.49271   0.90840   0.00000  Uiso   1.00
C103   C     0.50412   0.54348   0.81334   0.00000  Uiso   1.00
C104   C     0.53020   0.59430   0.90828   0.00000  Uiso   1.00
C105   C     0.57828   0.68802   0.00017   0.00000  Uiso   1.00
C106   C     0.44723   0.43234   0.16887   0.00000  Uiso   1.00
C107   C     0.52230   0.38668   0.09172   0.00000  Uiso   1.00
C108   C     0.58546   0.34827   0.18677   0.00000  Uiso   1.00
C109   C     0.64864   0.30983   0.09183   0.00000  Uiso   1.00
C110   C     0.34114   0.41764   0.09175   0.00000  Uiso   1.00
C111   C     0.25198   0.40528   0.18683   0.00000  Uiso   1.00
C112   C     0.16265   0.39291   0.09193   0.00000  Uiso   1.00
C113   C     0.47819   0.49270   0.09178   0.00000  Uiso   1.00
C114   C     0.50422   0.54345   0.18688   0.00000  Uiso   1.00
C115   C     0.53024   0.59429   0.09199   0.00000  Uiso   1.00
H116   H     0.44711   0.43236   0.68849   0.00000  Uiso   1.00
H117   H     0.58530   0.34831   0.67133   0.00000  Uiso   1.00
H118   H     0.25187   0.40532   0.67140   0.00000  Uiso   1.00
H119   H     0.50408   0.54347   0.67144   0.00000  Uiso   1.00
H120   H     0.73850   0.25511   0.73318   0.00000  Uiso   1.00
H121   H     0.03544   0.37532   0.73332   0.00000  Uiso   1.00
H122   H     0.56726   0.66665   0.73340   0.00000  Uiso   1.00
H123   H     0.44727   0.43233   0.31164   0.00000  Uiso   1.00
H124   H     0.58547   0.34828   0.32868   0.00000  Uiso   1.00
H125   H     0.25204   0.40528   0.32874   0.00000  Uiso   1.00
H126   H     0.50424   0.54343   0.32878   0.00000  Uiso   1.00
H127   H     0.73864   0.25507   0.26671   0.00000  Uiso   1.00
H128   H     0.03557   0.37530   0.26684   0.00000  Uiso   1.00
H129   H     0.56739   0.66661   0.26693   0.00000  Uiso   1.00
O130   O     0.82946   0.19978   0.99991   0.00000  Uiso   1.00
O131   O     0.90707   0.35752   0.00009   0.00000  Uiso   1.00
O132   O     0.60480   0.73972   0.00020   0.00000  Uiso   1.00
N133   N     0.71958   0.26664   0.85641   0.00000  Uiso   1.00
N134   N     0.06227   0.37903   0.85654   0.00000  Uiso   1.00
N135   N     0.55944   0.65139   0.85661   0.00000  Uiso   1.00
N136   N     0.71966   0.26663   0.14349   0.00000  Uiso   1.00
N137   N     0.06234   0.37901   0.14362   0.00000  Uiso   1.00
N138   N     0.55952   0.65138   0.14370   0.00000  Uiso   1.00
C139   C     0.94684   0.59104   0.66890   0.00000  Uiso   1.00
C140   C     0.87307   0.63743   0.59179   0.00000  Uiso   1.00
C141   C     0.81110   0.67643   0.68687   0.00000  Uiso   1.00
C142   C     0.74901   0.71549   0.59198   0.00000  Uiso   1.00
C143   C     0.63452   0.78755   0.50014   0.00000  Uiso   1.00
C144   C     0.05330   0.60470   0.59178   0.00000  Uiso   1.00
C145   C     0.14287   0.61619   0.68686   0.00000  Uiso   1.00
C146   C     0.23249   0.62770   0.59195   0.00000  Uiso   1.00
C147   C     0.39783   0.64890   0.50010   0.00000  Uiso   1.00
C148   C     0.91409   0.53099   0.59176   0.00000  Uiso   1.00
C149   C     0.88663   0.48049   0.68683   0.00000  Uiso   1.00
C150   C     0.85907   0.42993   0.59190   0.00000  Uiso   1.00
C151   C     0.80826   0.33668   0.50003   0.00000  Uiso   1.00
C152   C     0.94677   0.59105   0.33129   0.00000  Uiso   1.00
C153   C     0.87304   0.63743   0.40841   0.00000  Uiso   1.00
C154   C     0.81102   0.67644   0.31334   0.00000  Uiso   1.00
C155   C     0.74896   0.71550   0.40827   0.00000  Uiso   1.00
C156   C     0.05327   0.60471   0.40841   0.00000  Uiso   1.00
C157   C     0.14279   0.61620   0.31333   0.00000  Uiso   1.00
C158   C     0.23246   0.62770   0.40824   0.00000  Uiso   1.00
C159   C     0.91405   0.53099   0.40838   0.00000  Uiso   1.00
C160   C     0.88655   0.48050   0.31329   0.00000  Uiso   1.00
C161   C     0.85904   0.42993   0.40819   0.00000  Uiso   1.00
H162   H     0.94687   0.59103   0.81166   0.00000  Uiso   1.00
H163   H     0.81116   0.67642   0.82879   0.00000  Uiso   1.00
H164   H     0.14287   0.61618   0.82877   0.00000  Uiso   1.00
H165   H     0.88667   0.48050   0.82873   0.00000  Uiso   1.00
H166   H     0.66070   0.77110   0.76690   0.00000  Uiso   1.00
H167   H     0.36015   0.64406   0.76686   0.00000  Uiso   1.00
H168   H     0.81990   0.35795   0.76679   0.00000  Uiso   1.00
H169   H     0.94674   0.59105   0.18851   0.00000  Uiso   1.00
H170   H     0.81101   0.67644   0.17144   0.00000  Uiso   1.00
H171   H     0.14273   0.61620   0.17142   0.00000  Uiso   1.00
H172   H     0.88653   0.48052   0.17139   0.00000  Uiso   1.00
H173   H     0.66059   0.77112   0.23337   0.00000  Uiso   1.00
H174   H     0.36004   0.64407   0.23334   0.00000  Uiso   1.00
H175   H     0.81978   0.35797   0.23326   0.00000  Uiso   1.00
O176   O     0.57139   0.82729   0.50015   0.00000  Uiso   1.00
O177   O     0.48904   0.66060   0.50010   0.00000  Uiso   1.00
O178   O     0.78023   0.28525   0.50001   0.00000  Uiso   1.00
N179   N     0.67929   0.75938   0.64368   0.00000  Uiso   1.00
N180   N     0.33323   0.64061   0.64364   0.00000  Uiso   1.00
N181   N     0.82816   0.37312   0.64358   0.00000  Uiso   1.00
N182   N     0.67922   0.75939   0.35659   0.00000  Uiso   1.00
N183   N     0.33316   0.64062   0.35656   0.00000  Uiso   1.00
N184   N     0.82810   0.37313   0.35649   0.00000  Uiso   1.00
