data_job_00547
_audit_creation_date              2018-12-19
_audit_creation_method            'Materials Studio'
_symmetry_space_group_name_H-M    'P1'
_symmetry_Int_Tables_number       1
_symmetry_cell_setting            triclinic
loop_
_symmetry_equiv_pos_as_xyz
  x,y,z
_cell_length_a                    7.5295
_cell_length_b                    12.1518
_cell_length_c                    15.8606
_cell_angle_alpha                 100.9325
_cell_angle_beta                  90.0050
_cell_angle_gamma                 108.0038
loop_
_atom_site_label
_atom_site_type_symbol
_atom_site_fract_x
_atom_site_fract_y
_atom_site_fract_z
_atom_site_U_iso_or_equiv
_atom_site_adp_type
_atom_site_occupancy
C1     C     0.58088   0.00435   0.23360   0.00000  Uiso   1.00
C2     C     0.69815   0.08240   0.17598   0.00000  Uiso   1.00
C3     C     0.63458   0.14810   0.12753   0.00000  Uiso   1.00
C4     C     0.76369   0.21378   0.07901   0.00000  Uiso   1.00
C5     C     0.91746   0.33495   0.98952   0.00000  Uiso   1.00
C6     C     0.59773   0.88162   0.20196   0.00000  Uiso   1.00
C7     C     0.44974   0.77850   0.17535   0.00000  Uiso   1.00
C8     C     0.49433   0.67516   0.14871   0.00000  Uiso   1.00
C9     C     0.49220   0.48458   0.09960   0.00000  Uiso   1.00
C10    C     0.68136   0.04889   0.32285   0.00000  Uiso   1.00
C11    C     0.60367   0.08639   0.39790   0.00000  Uiso   1.00
C12    C     0.71866   0.12386   0.47305   0.00000  Uiso   1.00
C13    C     0.84637   0.19300   0.61165   0.00000  Uiso   1.00
C14    C     0.92322   0.00416   0.23360   0.00000  Uiso   1.00
C15    C     0.88409   0.08230   0.17598   0.00000  Uiso   1.00
C16    C     0.01333   0.14790   0.12753   0.00000  Uiso   1.00
C17    C     0.94997   0.21369   0.07902   0.00000  Uiso   1.00
C18    C     0.78367   0.88151   0.20196   0.00000  Uiso   1.00
C19    C     0.82849   0.77829   0.17536   0.00000  Uiso   1.00
C20    C     0.68061   0.67505   0.14871   0.00000  Uiso   1.00
C21    C     0.86731   0.04879   0.32285   0.00000  Uiso   1.00
C22    C     0.98243   0.08619   0.39790   0.00000  Uiso   1.00
C23    C     0.90493   0.12375   0.47305   0.00000  Uiso   1.00
H24    H     0.43612   0.00442   0.23360   0.00000  Uiso   1.00
H25    H     0.49066   0.14815   0.12754   0.00000  Uiso   1.00
H26    H     0.30586   0.77860   0.17537   0.00000  Uiso   1.00
H27    H     0.45977   0.08646   0.39788   0.00000  Uiso   1.00
H28    H     0.63313   0.30742   0.00993   0.00000  Uiso   1.00
H29    H     0.24345   0.52821   0.11081   0.00000  Uiso   1.00
H30    H     0.56800   0.17737   0.58002   0.00000  Uiso   1.00
H31    H     0.06798   0.00408   0.23360   0.00000  Uiso   1.00
H32    H     0.15721   0.14780   0.12755   0.00000  Uiso   1.00
H33    H     0.97240   0.77825   0.17537   0.00000  Uiso   1.00
H34    H     0.12631   0.08610   0.39788   0.00000  Uiso   1.00
H35    H     0.17412   0.30714   0.00993   0.00000  Uiso   1.00
H36    H     0.78443   0.52792   0.11081   0.00000  Uiso   1.00
H37    H     0.10899   0.17708   0.58002   0.00000  Uiso   1.00
O38    O     0.95090   0.40180   0.94015   0.00000  Uiso   1.00
O39    O     0.43965   0.37950   0.07250   0.00000  Uiso   1.00
O40    O     0.86546   0.23119   0.68809   0.00000  Uiso   1.00
N41    N     0.74822   0.28765   0.02450   0.00000  Uiso   1.00
N42    N     0.38389   0.55913   0.11880   0.00000  Uiso   1.00
N43    N     0.68730   0.16602   0.55747   0.00000  Uiso   1.00
N44    N     0.03932   0.28750   0.02450   0.00000  Uiso   1.00
N45    N     0.67499   0.55898   0.11880   0.00000  Uiso   1.00
N46    N     0.97840   0.16586   0.55747   0.00000  Uiso   1.00
C47    C     0.41912   0.99565   0.76640   0.00000  Uiso   1.00
C48    C     0.30185   0.91760   0.82402   0.00000  Uiso   1.00
C49    C     0.36542   0.85190   0.87247   0.00000  Uiso   1.00
C50    C     0.23631   0.78622   0.92099   0.00000  Uiso   1.00
C51    C     0.08254   0.66505   0.01048   0.00000  Uiso   1.00
C52    C     0.40227   0.11838   0.79804   0.00000  Uiso   1.00
C53    C     0.55026   0.22150   0.82465   0.00000  Uiso   1.00
C54    C     0.50567   0.32484   0.85129   0.00000  Uiso   1.00
C55    C     0.50780   0.51542   0.90040   0.00000  Uiso   1.00
C56    C     0.31864   0.95111   0.67715   0.00000  Uiso   1.00
C57    C     0.39633   0.91361   0.60210   0.00000  Uiso   1.00
C58    C     0.28134   0.87614   0.52695   0.00000  Uiso   1.00
C59    C     0.15363   0.80700   0.38835   0.00000  Uiso   1.00
C60    C     0.07678   0.99584   0.76640   0.00000  Uiso   1.00
C61    C     0.11591   0.91770   0.82402   0.00000  Uiso   1.00
C62    C     0.98667   0.85210   0.87247   0.00000  Uiso   1.00
C63    C     0.05003   0.78631   0.92098   0.00000  Uiso   1.00
C64    C     0.21633   0.11849   0.79804   0.00000  Uiso   1.00
C65    C     0.17151   0.22171   0.82464   0.00000  Uiso   1.00
C66    C     0.31939   0.32495   0.85129   0.00000  Uiso   1.00
C67    C     0.13269   0.95121   0.67715   0.00000  Uiso   1.00
C68    C     0.01757   0.91381   0.60210   0.00000  Uiso   1.00
C69    C     0.09507   0.87625   0.52695   0.00000  Uiso   1.00
H70    H     0.56388   0.99558   0.76640   0.00000  Uiso   1.00
H71    H     0.50934   0.85185   0.87246   0.00000  Uiso   1.00
H72    H     0.69414   0.22140   0.82463   0.00000  Uiso   1.00
H73    H     0.54023   0.91354   0.60212   0.00000  Uiso   1.00
H74    H     0.36687   0.69258   0.99007   0.00000  Uiso   1.00
H75    H     0.75655   0.47179   0.88919   0.00000  Uiso   1.00
H76    H     0.43200   0.82263   0.41998   0.00000  Uiso   1.00
H77    H     0.93202   0.99592   0.76640   0.00000  Uiso   1.00
H78    H     0.84279   0.85220   0.87245   0.00000  Uiso   1.00
H79    H     0.02760   0.22175   0.82463   0.00000  Uiso   1.00
H80    H     0.87369   0.91390   0.60212   0.00000  Uiso   1.00
H81    H     0.82588   0.69286   0.99007   0.00000  Uiso   1.00
H82    H     0.21557   0.47208   0.88919   0.00000  Uiso   1.00
H83    H     0.89101   0.82292   0.41998   0.00000  Uiso   1.00
O84    O     0.04910   0.59820   0.05985   0.00000  Uiso   1.00
O85    O     0.56035   0.62050   0.92750   0.00000  Uiso   1.00
O86    O     0.13454   0.76881   0.31191   0.00000  Uiso   1.00
N87    N     0.25178   0.71235   0.97550   0.00000  Uiso   1.00
N88    N     0.61611   0.44087   0.88120   0.00000  Uiso   1.00
N89    N     0.31270   0.83398   0.44253   0.00000  Uiso   1.00
N90    N     0.96068   0.71250   0.97550   0.00000  Uiso   1.00
N91    N     0.32501   0.44102   0.88120   0.00000  Uiso   1.00
N92    N     0.02160   0.83414   0.44253   0.00000  Uiso   1.00
