data_job_00446
_audit_creation_date              2018-12-19
_audit_creation_method            'Materials Studio'
_symmetry_space_group_name_H-M    'P1'
_symmetry_Int_Tables_number       1
_symmetry_cell_setting            triclinic
loop_
_symmetry_equiv_pos_as_xyz
  x,y,z
_cell_length_a                    7.5407
_cell_length_b                    10.1493
_cell_length_c                    15.1192
_cell_angle_alpha                 85.0980
_cell_angle_beta                  90.0064
_cell_angle_gamma                 68.2638
loop_
_atom_site_label
_atom_site_type_symbol
_atom_site_fract_x
_atom_site_fract_y
_atom_site_fract_z
_atom_site_U_iso_or_equiv
_atom_site_adp_type
_atom_site_occupancy
C1     C     0.44974   0.44205   0.26096   0.00000  Uiso   1.00
C2     C     0.29672   0.59141   0.25846   0.00000  Uiso   1.00
C3     C     0.32986   0.71732   0.25629   0.00000  Uiso   1.00
C4     C     0.17070   0.84300   0.25421   0.00000  Uiso   1.00
C5     C     0.96133   0.07497   0.25035   0.00000  Uiso   1.00
C6     C     0.41355   0.35871   0.34315   0.00000  Uiso   1.00
C7     C     0.54493   0.28895   0.41219   0.00000  Uiso   1.00
C8     C     0.48412   0.21873   0.48139   0.00000  Uiso   1.00
C9     C     0.45617   0.08934   0.60899   0.00000  Uiso   1.00
C10    C     0.40488   0.37554   0.18139   0.00000  Uiso   1.00
C11    C     0.52898   0.31991   0.11443   0.00000  Uiso   1.00
C12    C     0.46089   0.26382   0.04746   0.00000  Uiso   1.00
C13    C     0.41948   0.16058   0.92390   0.00000  Uiso   1.00
C14    C     0.10818   0.44134   0.26111   0.00000  Uiso   1.00
C15    C     0.11120   0.59102   0.25854   0.00000  Uiso   1.00
C16    C     0.95195   0.71654   0.25645   0.00000  Uiso   1.00
C17    C     0.98484   0.84262   0.25429   0.00000  Uiso   1.00
C18    C     0.22804   0.35832   0.34323   0.00000  Uiso   1.00
C19    C     0.16703   0.28818   0.41235   0.00000  Uiso   1.00
C20    C     0.29826   0.21834   0.48147   0.00000  Uiso   1.00
C21    C     0.21936   0.37516   0.18147   0.00000  Uiso   1.00
C22    C     0.15107   0.31914   0.11459   0.00000  Uiso   1.00
C23    C     0.27503   0.26344   0.04754   0.00000  Uiso   1.00
H24    H     0.59418   0.44234   0.26090   0.00000  Uiso   1.00
H25    H     0.47346   0.71757   0.25624   0.00000  Uiso   1.00
H26    H     0.68849   0.28926   0.41210   0.00000  Uiso   1.00
H27    H     0.67254   0.32022   0.11439   0.00000  Uiso   1.00
H28    H     0.25779   0.02254   0.25114   0.00000  Uiso   1.00
H29    H     0.71123   0.11938   0.57976   0.00000  Uiso   1.00
H30    H     0.67760   0.18466   0.95198   0.00000  Uiso   1.00
H31    H     0.96374   0.44104   0.26117   0.00000  Uiso   1.00
H32    H     0.80840   0.71621   0.25652   0.00000  Uiso   1.00
H33    H     0.02345   0.28790   0.41238   0.00000  Uiso   1.00
H34    H     0.00749   0.31886   0.11467   0.00000  Uiso   1.00
H35    H     0.71801   0.02144   0.25137   0.00000  Uiso   1.00
H36    H     0.17146   0.11827   0.57999   0.00000  Uiso   1.00
H37    H     0.13782   0.18357   0.95221   0.00000  Uiso   1.00
O38    O     0.89709   0.20302   0.24822   0.00000  Uiso   1.00
O39    O     0.49201   0.01809   0.67935   0.00000  Uiso   1.00
O40    O     0.44788   0.10375   0.85572   0.00000  Uiso   1.00
N41    N     0.15207   0.98452   0.25181   0.00000  Uiso   1.00
N42    N     0.57600   0.14014   0.55907   0.00000  Uiso   1.00
N43    N     0.54457   0.20114   0.97216   0.00000  Uiso   1.00
N44    N     0.86161   0.98393   0.25193   0.00000  Uiso   1.00
N45    N     0.28555   0.13955   0.55919   0.00000  Uiso   1.00
N46    N     0.25412   0.20055   0.97228   0.00000  Uiso   1.00
C47    C     0.55026   0.55795   0.73904   0.00000  Uiso   1.00
C48    C     0.70328   0.40859   0.74154   0.00000  Uiso   1.00
C49    C     0.67014   0.28268   0.74371   0.00000  Uiso   1.00
C50    C     0.82930   0.15700   0.74579   0.00000  Uiso   1.00
C51    C     0.03867   0.92503   0.74965   0.00000  Uiso   1.00
C52    C     0.58645   0.64129   0.65685   0.00000  Uiso   1.00
C53    C     0.45507   0.71105   0.58781   0.00000  Uiso   1.00
C54    C     0.51588   0.78127   0.51861   0.00000  Uiso   1.00
C55    C     0.54383   0.91066   0.39101   0.00000  Uiso   1.00
C56    C     0.59512   0.62446   0.81861   0.00000  Uiso   1.00
C57    C     0.47102   0.68009   0.88557   0.00000  Uiso   1.00
C58    C     0.53911   0.73618   0.95254   0.00000  Uiso   1.00
C59    C     0.58052   0.83942   0.07610   0.00000  Uiso   1.00
C60    C     0.89182   0.55866   0.73889   0.00000  Uiso   1.00
C61    C     0.88880   0.40898   0.74146   0.00000  Uiso   1.00
C62    C     0.04805   0.28346   0.74355   0.00000  Uiso   1.00
C63    C     0.01516   0.15738   0.74571   0.00000  Uiso   1.00
C64    C     0.77196   0.64168   0.65677   0.00000  Uiso   1.00
C65    C     0.83297   0.71182   0.58765   0.00000  Uiso   1.00
C66    C     0.70174   0.78166   0.51853   0.00000  Uiso   1.00
C67    C     0.78064   0.62484   0.81853   0.00000  Uiso   1.00
C68    C     0.84893   0.68086   0.88541   0.00000  Uiso   1.00
C69    C     0.72497   0.73656   0.95246   0.00000  Uiso   1.00
H70    H     0.40582   0.55766   0.73910   0.00000  Uiso   1.00
H71    H     0.52654   0.28243   0.74376   0.00000  Uiso   1.00
H72    H     0.31151   0.71074   0.58790   0.00000  Uiso   1.00
H73    H     0.32746   0.67978   0.88561   0.00000  Uiso   1.00
H74    H     0.74221   0.97746   0.74886   0.00000  Uiso   1.00
H75    H     0.28877   0.88062   0.42024   0.00000  Uiso   1.00
H76    H     0.32240   0.81534   0.04802   0.00000  Uiso   1.00
H77    H     0.03626   0.55896   0.73883   0.00000  Uiso   1.00
H78    H     0.19160   0.28379   0.74348   0.00000  Uiso   1.00
H79    H     0.97655   0.71210   0.58762   0.00000  Uiso   1.00
H80    H     0.99251   0.68114   0.88533   0.00000  Uiso   1.00
H81    H     0.28199   0.97856   0.74863   0.00000  Uiso   1.00
H82    H     0.82854   0.88173   0.42001   0.00000  Uiso   1.00
H83    H     0.86218   0.81643   0.04779   0.00000  Uiso   1.00
O84    O     0.10291   0.79698   0.75178   0.00000  Uiso   1.00
O85    O     0.50799   0.98191   0.32065   0.00000  Uiso   1.00
O86    O     0.55212   0.89625   0.14428   0.00000  Uiso   1.00
N87    N     0.84793   0.01548   0.74819   0.00000  Uiso   1.00
N88    N     0.42400   0.85986   0.44093   0.00000  Uiso   1.00
N89    N     0.45543   0.79886   0.02784   0.00000  Uiso   1.00
N90    N     0.13839   0.01607   0.74807   0.00000  Uiso   1.00
N91    N     0.71445   0.86045   0.44081   0.00000  Uiso   1.00
N92    N     0.74588   0.79945   0.02772   0.00000  Uiso   1.00
