data_job_05191
_audit_creation_date              2018-12-19
_audit_creation_method            'Materials Studio'
_symmetry_space_group_name_H-M    'P1'
_symmetry_Int_Tables_number       1
_symmetry_cell_setting            triclinic
loop_
_symmetry_equiv_pos_as_xyz
  x,y,z
_cell_length_a                    20.7881
_cell_length_b                    8.0143
_cell_length_c                    30.1749
_cell_angle_alpha                 90.0000
_cell_angle_beta                  147.8590
_cell_angle_gamma                 90.0000
loop_
_atom_site_label
_atom_site_type_symbol
_atom_site_fract_x
_atom_site_fract_y
_atom_site_fract_z
_atom_site_U_iso_or_equiv
_atom_site_adp_type
_atom_site_occupancy
C1     C     0.27047   0.17961   0.46352   0.00000  Uiso   1.00
C2     C     0.23360   0.23555   0.48839   0.00000  Uiso   1.00
C3     C     0.16087   0.14653   0.47504   0.00000  Uiso   1.00
C4     C     0.13764   0.21915   0.50238   0.00000  Uiso   1.00
C5     C     0.07306   0.28231   0.53499   0.00000  Uiso   1.00
C6     C     0.22984   0.31800   0.40850   0.00000  Uiso   1.00
C7     C     0.15395   0.29829   0.32797   0.00000  Uiso   1.00
C8     C     0.12757   0.44031   0.28807   0.00000  Uiso   1.00
C9     C     0.05723   0.63144   0.19665   0.00000  Uiso   1.00
C10    C     0.40832   0.18214   0.54322   0.00000  Uiso   1.00
C11    C     0.48252   0.04822   0.57598   0.00000  Uiso   1.00
C12    C     0.60640   0.07588   0.64949   0.00000  Uiso   1.00
C13    C     0.81318   0.05609   0.76727   0.00000  Uiso   1.00
C14    C     0.35856   0.46687   0.53583   0.00000  Uiso   1.00
C15    C     0.28145   0.39158   0.52766   0.00000  Uiso   1.00
C16    C     0.25833   0.46435   0.55504   0.00000  Uiso   1.00
C17    C     0.18557   0.37545   0.54173   0.00000  Uiso   1.00
C18    C     0.27768   0.47402   0.44777   0.00000  Uiso   1.00
C19    C     0.25141   0.61610   0.40798   0.00000  Uiso   1.00
C20    C     0.17550   0.59661   0.32741   0.00000  Uiso   1.00
C21    C     0.45617   0.33817   0.58250   0.00000  Uiso   1.00
C22    C     0.57997   0.36604   0.65598   0.00000  Uiso   1.00
C23    C     0.65434   0.23219   0.68884   0.00000  Uiso   1.00
H24    H     0.23322   0.05814   0.43294   0.00000  Uiso   1.00
H25    H     0.12385   0.02580   0.44463   0.00000  Uiso   1.00
H26    H     0.11695   0.17753   0.29760   0.00000  Uiso   1.00
H27    H     0.44546   0.92750   0.54556   0.00000  Uiso   1.00
H28    H     0.02366   0.05877   0.47489   0.00000  Uiso   1.00
H29    H     0.00914   0.37869   0.16487   0.00000  Uiso   1.00
H30    H     0.70186   0.85146   0.68775   0.00000  Uiso   1.00
H31    H     0.39581   0.58834   0.56641   0.00000  Uiso   1.00
H32    H     0.29537   0.58509   0.58543   0.00000  Uiso   1.00
H33    H     0.28846   0.73682   0.43839   0.00000  Uiso   1.00
H34    H     0.61697   0.48680   0.68636   0.00000  Uiso   1.00
H35    H     0.16286   0.51272   0.58917   0.00000  Uiso   1.00
H36    H     0.14835   0.83263   0.27914   0.00000  Uiso   1.00
H37    H     0.84107   0.30541   0.80202   0.00000  Uiso   1.00
O38    O     0.02421   0.27406   0.54211   0.00000  Uiso   1.00
O39    O     0.00519   0.69377   0.13538   0.00000  Uiso   1.00
O40    O     0.91402   0.00207   0.82139   0.00000  Uiso   1.00
N41    N     0.07022   0.16604   0.49919   0.00000  Uiso   1.00
N42    N     0.05664   0.46514   0.20933   0.00000  Uiso   1.00
N43    N     0.70427   0.97225   0.69817   0.00000  Uiso   1.00
N44    N     0.14513   0.41030   0.56068   0.00000  Uiso   1.00
N45    N     0.13154   0.70941   0.27082   0.00000  Uiso   1.00
N46    N     0.77918   0.21651   0.75966   0.00000  Uiso   1.00
C47    C     0.67541   0.00422   0.00609   0.00000  Uiso   1.00
C48    C     0.71348   0.06079   0.98211   0.00000  Uiso   1.00
C49    C     0.78746   0.97253   0.99645   0.00000  Uiso   1.00
C50    C     0.81166   0.04563   0.96980   0.00000  Uiso   1.00
C51    C     0.87814   0.10981   0.93862   0.00000  Uiso   1.00
C52    C     0.71452   0.14267   0.06047   0.00000  Uiso   1.00
C53    C     0.78936   0.12326   0.14069   0.00000  Uiso   1.00
C54    C     0.81443   0.26529   0.18000   0.00000  Uiso   1.00
C55    C     0.88246   0.45657   0.27045   0.00000  Uiso   1.00
C56    C     0.53753   0.00572   0.92581   0.00000  Uiso   1.00
C57    C     0.46355   0.87116   0.89280   0.00000  Uiso   1.00
C58    C     0.33960   0.89790   0.81875   0.00000  Uiso   1.00
C59    C     0.13283   0.87654   0.70011   0.00000  Uiso   1.00
C60    C     0.58683   0.29097   0.93328   0.00000  Uiso   1.00
C61    C     0.66537   0.21654   0.94257   0.00000  Uiso   1.00
C62    C     0.68946   0.28979   0.91589   0.00000  Uiso   1.00
C63    C     0.76346   0.20166   0.93018   0.00000  Uiso   1.00
C64    C     0.66642   0.29842   0.02093   0.00000  Uiso   1.00
C65    C     0.69137   0.44051   0.06013   0.00000  Uiso   1.00
C66    C     0.76623   0.42132   0.14039   0.00000  Uiso   1.00
C67    C     0.48942   0.16147   0.88626   0.00000  Uiso   1.00
C68    C     0.36556   0.18842   0.81225   0.00000  Uiso   1.00
C69    C     0.29141   0.05393   0.77913   0.00000  Uiso   1.00
H70    H     0.71286   0.88297   0.03688   0.00000  Uiso   1.00
H71    H     0.82468   0.85201   0.02706   0.00000  Uiso   1.00
H72    H     0.82657   0.00271   0.17127   0.00000  Uiso   1.00
H73    H     0.50081   0.75066   0.92342   0.00000  Uiso   1.00
H74    H     0.92747   0.88640   0.99875   0.00000  Uiso   1.00
H75    H     0.93142   0.20415   0.30282   0.00000  Uiso   1.00
H76    H     0.24450   0.67264   0.78019   0.00000  Uiso   1.00
H77    H     0.54938   0.41223   0.90250   0.00000  Uiso   1.00
H78    H     0.65222   0.41032   0.88529   0.00000  Uiso   1.00
H79    H     0.65412   0.56102   0.02951   0.00000  Uiso   1.00
H80    H     0.32836   0.30896   0.78166   0.00000  Uiso   1.00
H81    H     0.78750   0.33955   0.88369   0.00000  Uiso   1.00
H82    H     0.79145   0.65729   0.18776   0.00000  Uiso   1.00
H83    H     0.10453   0.12579   0.66513   0.00000  Uiso   1.00
O84    O     0.92812   0.10219   0.93236   0.00000  Uiso   1.00
O85    O     0.93329   0.51905   0.33128   0.00000  Uiso   1.00
O86    O     0.03207   0.82172   0.64559   0.00000  Uiso   1.00
N87    N     0.88039   0.99330   0.97402   0.00000  Uiso   1.00
N88    N     0.88411   0.29038   0.25831   0.00000  Uiso   1.00
N89    N     0.24189   0.79347   0.76970   0.00000  Uiso   1.00
N90    N     0.80508   0.23713   0.91211   0.00000  Uiso   1.00
N91    N     0.80879   0.53421   0.19640   0.00000  Uiso   1.00
N92    N     0.16658   0.03731   0.70779   0.00000  Uiso   1.00
C93    C     0.27047   0.82039   0.96352   0.00000  Uiso   1.00
C94    C     0.23360   0.76445   0.98839   0.00000  Uiso   1.00
C95    C     0.16087   0.85347   0.97504   0.00000  Uiso   1.00
C96    C     0.13764   0.78085   0.00238   0.00000  Uiso   1.00
C97    C     0.07306   0.71769   0.03499   0.00000  Uiso   1.00
C98    C     0.22984   0.68200   0.90850   0.00000  Uiso   1.00
C99    C     0.15395   0.70171   0.82797   0.00000  Uiso   1.00
C100   C     0.12757   0.55969   0.78807   0.00000  Uiso   1.00
C101   C     0.05723   0.36856   0.69665   0.00000  Uiso   1.00
C102   C     0.40832   0.81786   0.04322   0.00000  Uiso   1.00
C103   C     0.48252   0.95178   0.07598   0.00000  Uiso   1.00
C104   C     0.60640   0.92412   0.14949   0.00000  Uiso   1.00
C105   C     0.81318   0.94391   0.26727   0.00000  Uiso   1.00
C106   C     0.35856   0.53313   0.03583   0.00000  Uiso   1.00
C107   C     0.28145   0.60842   0.02766   0.00000  Uiso   1.00
C108   C     0.25833   0.53565   0.05504   0.00000  Uiso   1.00
C109   C     0.18557   0.62455   0.04173   0.00000  Uiso   1.00
C110   C     0.27768   0.52598   0.94777   0.00000  Uiso   1.00
C111   C     0.25141   0.38390   0.90798   0.00000  Uiso   1.00
C112   C     0.17550   0.40339   0.82741   0.00000  Uiso   1.00
C113   C     0.45617   0.66183   0.08250   0.00000  Uiso   1.00
C114   C     0.57997   0.63396   0.15598   0.00000  Uiso   1.00
C115   C     0.65434   0.76781   0.18884   0.00000  Uiso   1.00
H116   H     0.23322   0.94186   0.93294   0.00000  Uiso   1.00
H117   H     0.12385   0.97420   0.94463   0.00000  Uiso   1.00
H118   H     0.11695   0.82247   0.79760   0.00000  Uiso   1.00
H119   H     0.44546   0.07250   0.04556   0.00000  Uiso   1.00
H120   H     0.02366   0.94123   0.97489   0.00000  Uiso   1.00
H121   H     0.00914   0.62131   0.66487   0.00000  Uiso   1.00
H122   H     0.70186   0.14854   0.18775   0.00000  Uiso   1.00
H123   H     0.39581   0.41166   0.06641   0.00000  Uiso   1.00
H124   H     0.29537   0.41491   0.08543   0.00000  Uiso   1.00
H125   H     0.28846   0.26318   0.93839   0.00000  Uiso   1.00
H126   H     0.61697   0.51320   0.18636   0.00000  Uiso   1.00
H127   H     0.16286   0.48728   0.08917   0.00000  Uiso   1.00
H128   H     0.14835   0.16737   0.77914   0.00000  Uiso   1.00
H129   H     0.84107   0.69459   0.30202   0.00000  Uiso   1.00
O130   O     0.02421   0.72594   0.04211   0.00000  Uiso   1.00
O131   O     0.00519   0.30623   0.63538   0.00000  Uiso   1.00
O132   O     0.91402   0.99793   0.32139   0.00000  Uiso   1.00
N133   N     0.07022   0.83396   0.99919   0.00000  Uiso   1.00
N134   N     0.05664   0.53486   0.70933   0.00000  Uiso   1.00
N135   N     0.70427   0.02775   0.19817   0.00000  Uiso   1.00
N136   N     0.14513   0.58970   0.06068   0.00000  Uiso   1.00
N137   N     0.13154   0.29059   0.77082   0.00000  Uiso   1.00
N138   N     0.77918   0.78349   0.25966   0.00000  Uiso   1.00
C139   C     0.67541   0.99578   0.50609   0.00000  Uiso   1.00
C140   C     0.71348   0.93921   0.48211   0.00000  Uiso   1.00
C141   C     0.78746   0.02747   0.49645   0.00000  Uiso   1.00
C142   C     0.81166   0.95437   0.46980   0.00000  Uiso   1.00
C143   C     0.87814   0.89019   0.43862   0.00000  Uiso   1.00
C144   C     0.71452   0.85733   0.56047   0.00000  Uiso   1.00
C145   C     0.78936   0.87674   0.64069   0.00000  Uiso   1.00
C146   C     0.81443   0.73471   0.68000   0.00000  Uiso   1.00
C147   C     0.88246   0.54343   0.77045   0.00000  Uiso   1.00
C148   C     0.53753   0.99428   0.42581   0.00000  Uiso   1.00
C149   C     0.46355   0.12884   0.39280   0.00000  Uiso   1.00
C150   C     0.33960   0.10210   0.31875   0.00000  Uiso   1.00
C151   C     0.13283   0.12346   0.20011   0.00000  Uiso   1.00
C152   C     0.58683   0.70903   0.43328   0.00000  Uiso   1.00
C153   C     0.66537   0.78346   0.44257   0.00000  Uiso   1.00
C154   C     0.68946   0.71021   0.41589   0.00000  Uiso   1.00
C155   C     0.76346   0.79834   0.43018   0.00000  Uiso   1.00
C156   C     0.66642   0.70158   0.52093   0.00000  Uiso   1.00
C157   C     0.69137   0.55949   0.56013   0.00000  Uiso   1.00
C158   C     0.76623   0.57868   0.64039   0.00000  Uiso   1.00
C159   C     0.48942   0.83853   0.38626   0.00000  Uiso   1.00
C160   C     0.36556   0.81158   0.31225   0.00000  Uiso   1.00
C161   C     0.29141   0.94607   0.27913   0.00000  Uiso   1.00
H162   H     0.71286   0.11703   0.53688   0.00000  Uiso   1.00
H163   H     0.82468   0.14799   0.52706   0.00000  Uiso   1.00
H164   H     0.82657   0.99729   0.67127   0.00000  Uiso   1.00
H165   H     0.50081   0.24934   0.42342   0.00000  Uiso   1.00
H166   H     0.92747   0.11360   0.49875   0.00000  Uiso   1.00
H167   H     0.93142   0.79585   0.80282   0.00000  Uiso   1.00
H168   H     0.24450   0.32736   0.28019   0.00000  Uiso   1.00
H169   H     0.54938   0.58777   0.40250   0.00000  Uiso   1.00
H170   H     0.65222   0.58968   0.38529   0.00000  Uiso   1.00
H171   H     0.65412   0.43898   0.52951   0.00000  Uiso   1.00
H172   H     0.32836   0.69104   0.28166   0.00000  Uiso   1.00
H173   H     0.78750   0.66045   0.38369   0.00000  Uiso   1.00
H174   H     0.79145   0.34271   0.68776   0.00000  Uiso   1.00
H175   H     0.10453   0.87421   0.16513   0.00000  Uiso   1.00
O176   O     0.92812   0.89781   0.43236   0.00000  Uiso   1.00
O177   O     0.93329   0.48095   0.83128   0.00000  Uiso   1.00
O178   O     0.03207   0.17828   0.14559   0.00000  Uiso   1.00
N179   N     0.88039   0.00670   0.47402   0.00000  Uiso   1.00
N180   N     0.88411   0.70962   0.75831   0.00000  Uiso   1.00
N181   N     0.24189   0.20653   0.26970   0.00000  Uiso   1.00
N182   N     0.80508   0.76287   0.41211   0.00000  Uiso   1.00
N183   N     0.80879   0.46579   0.69640   0.00000  Uiso   1.00
N184   N     0.16658   0.96269   0.20779   0.00000  Uiso   1.00
