data_job_06960
_audit_creation_date              2018-12-19
_audit_creation_method            'Materials Studio'
_symmetry_space_group_name_H-M    'P1'
_symmetry_Int_Tables_number       1
_symmetry_cell_setting            triclinic
loop_
_symmetry_equiv_pos_as_xyz
  x,y,z
_cell_length_a                    23.2683
_cell_length_b                    23.4728
_cell_length_c                    26.2102
_cell_angle_alpha                 114.0860
_cell_angle_beta                  81.3579
_cell_angle_gamma                 114.4047
loop_
_atom_site_label
_atom_site_type_symbol
_atom_site_fract_x
_atom_site_fract_y
_atom_site_fract_z
_atom_site_U_iso_or_equiv
_atom_site_adp_type
_atom_site_occupancy
C1     C     0.58335   0.24889   0.31023   0.00000  Uiso   1.00
C2     C     0.55149   0.25325   0.26595   0.00000  Uiso   1.00
C3     C     0.52846   0.20211   0.21420   0.00000  Uiso   1.00
C4     C     0.50094   0.21606   0.17964   0.00000  Uiso   1.00
C5     C     0.45214   0.21328   0.10835   0.00000  Uiso   1.00
C6     C     0.64771   0.30770   0.32259   0.00000  Uiso   1.00
C7     C     0.70558   0.30234   0.31847   0.00000  Uiso   1.00
C8     C     0.75905   0.36213   0.33160   0.00000  Uiso   1.00
C9     C     0.85963   0.44390   0.34829   0.00000  Uiso   1.00
C10    C     0.54544   0.26502   0.36315   0.00000  Uiso   1.00
C11    C     0.51733   0.22377   0.39313   0.00000  Uiso   1.00
C12    C     0.48471   0.24764   0.44042   0.00000  Uiso   1.00
C13    C     0.42651   0.26313   0.52006   0.00000  Uiso   1.00
C14    C     0.57541   0.36462   0.34089   0.00000  Uiso   1.00
C15    C     0.54718   0.31611   0.28260   0.00000  Uiso   1.00
C16    C     0.51968   0.33015   0.24812   0.00000  Uiso   1.00
C17    C     0.49661   0.27903   0.19633   0.00000  Uiso   1.00
C18    C     0.64339   0.37056   0.33924   0.00000  Uiso   1.00
C19    C     0.69679   0.43038   0.35239   0.00000  Uiso   1.00
C20    C     0.75473   0.42511   0.34829   0.00000  Uiso   1.00
C21    C     0.54112   0.32788   0.37980   0.00000  Uiso   1.00
C22    C     0.50854   0.35181   0.42705   0.00000  Uiso   1.00
C23    C     0.48039   0.31061   0.45710   0.00000  Uiso   1.00
H24    H     0.58672   0.19995   0.29726   0.00000  Uiso   1.00
H25    H     0.53182   0.15347   0.20133   0.00000  Uiso   1.00
H26    H     0.70890   0.25369   0.30559   0.00000  Uiso   1.00
H27    H     0.52068   0.17513   0.38023   0.00000  Uiso   1.00
H28    H     0.46906   0.12966   0.10230   0.00000  Uiso   1.00
H29    H     0.84246   0.34098   0.32216   0.00000  Uiso   1.00
H30    H     0.44556   0.17534   0.47956   0.00000  Uiso   1.00
H31    H     0.57206   0.41356   0.35385   0.00000  Uiso   1.00
H32    H     0.51634   0.37879   0.26102   0.00000  Uiso   1.00
H33    H     0.69343   0.47901   0.36528   0.00000  Uiso   1.00
H34    H     0.50522   0.40046   0.43992   0.00000  Uiso   1.00
H35    H     0.45651   0.31255   0.15074   0.00000  Uiso   1.00
H36    H     0.82991   0.52387   0.37061   0.00000  Uiso   1.00
H37    H     0.43301   0.35822   0.52801   0.00000  Uiso   1.00
O38    O     0.42642   0.19439   0.06442   0.00000  Uiso   1.00
O39    O     0.91630   0.47163   0.35288   0.00000  Uiso   1.00
O40    O     0.39558   0.25431   0.55939   0.00000  Uiso   1.00
N41    N     0.47374   0.17747   0.12644   0.00000  Uiso   1.00
N42    N     0.82285   0.37504   0.33199   0.00000  Uiso   1.00
N43    N     0.45180   0.22018   0.47916   0.00000  Uiso   1.00
N44    N     0.46699   0.27588   0.15251   0.00000  Uiso   1.00
N45    N     0.81609   0.47345   0.35806   0.00000  Uiso   1.00
N46    N     0.44504   0.31859   0.50523   0.00000  Uiso   1.00
C47    C     0.39658   0.54917   0.21195   0.00000  Uiso   1.00
C48    C     0.40173   0.62111   0.22695   0.00000  Uiso   1.00
C49    C     0.41845   0.65496   0.19085   0.00000  Uiso   1.00
C50    C     0.42048   0.72052   0.21261   0.00000  Uiso   1.00
C51    C     0.43066   0.82759   0.22742   0.00000  Uiso   1.00
C52    C     0.44037   0.55451   0.25300   0.00000  Uiso   1.00
C53    C     0.48958   0.53235   0.23879   0.00000  Uiso   1.00
C54    C     0.52413   0.54185   0.28248   0.00000  Uiso   1.00
C55    C     0.59429   0.54548   0.33772   0.00000  Uiso   1.00
C56    C     0.32972   0.51043   0.22639   0.00000  Uiso   1.00
C57    C     0.28590   0.45120   0.18982   0.00000  Uiso   1.00
C58    C     0.22729   0.42357   0.21111   0.00000  Uiso   1.00
C59    C     0.12564   0.35877   0.22504   0.00000  Uiso   1.00
C60    C     0.37043   0.60541   0.31481   0.00000  Uiso   1.00
C61    C     0.38752   0.65165   0.28283   0.00000  Uiso   1.00
C62    C     0.38952   0.71718   0.30465   0.00000  Uiso   1.00
C63    C     0.40624   0.75112   0.26858   0.00000  Uiso   1.00
C64    C     0.42617   0.58506   0.30887   0.00000  Uiso   1.00
C65    C     0.46065   0.59458   0.35259   0.00000  Uiso   1.00
C66    C     0.50990   0.57245   0.33845   0.00000  Uiso   1.00
C67    C     0.31551   0.54098   0.28226   0.00000  Uiso   1.00
C68    C     0.25696   0.51343   0.30362   0.00000  Uiso   1.00
C69    C     0.21306   0.45418   0.26709   0.00000  Uiso   1.00
H70    H     0.40764   0.52538   0.16845   0.00000  Uiso   1.00
H71    H     0.42945   0.63130   0.14761   0.00000  Uiso   1.00
H72    H     0.50056   0.50871   0.19555   0.00000  Uiso   1.00
H73    H     0.29691   0.42758   0.14658   0.00000  Uiso   1.00
H74    H     0.44738   0.76221   0.14915   0.00000  Uiso   1.00
H75    H     0.59732   0.50370   0.25022   0.00000  Uiso   1.00
H76    H     0.16787   0.33261   0.14697   0.00000  Uiso   1.00
H77    H     0.35937   0.62919   0.35831   0.00000  Uiso   1.00
H78    H     0.37852   0.74081   0.34789   0.00000  Uiso   1.00
H79    H     0.44964   0.61822   0.39583   0.00000  Uiso   1.00
H80    H     0.24599   0.53708   0.34686   0.00000  Uiso   1.00
H81    H     0.40606   0.85109   0.31170   0.00000  Uiso   1.00
H82    H     0.55599   0.59258   0.41278   0.00000  Uiso   1.00
H83    H     0.12654   0.42149   0.30953   0.00000  Uiso   1.00
O84    O     0.44021   0.87821   0.22015   0.00000  Uiso   1.00
O85    O     0.63691   0.53904   0.35275   0.00000  Uiso   1.00
O86    O     0.07349   0.31458   0.21729   0.00000  Uiso   1.00
N87    N     0.43502   0.76781   0.18883   0.00000  Uiso   1.00
N88    N     0.57520   0.52613   0.28333   0.00000  Uiso   1.00
N89    N     0.17371   0.36616   0.18681   0.00000  Uiso   1.00
N90    N     0.41278   0.81563   0.27630   0.00000  Uiso   1.00
N91    N     0.55296   0.57395   0.37080   0.00000  Uiso   1.00
N92    N     0.15147   0.41399   0.27427   0.00000  Uiso   1.00
C93    C     0.11399   0.81824   0.61767   0.00000  Uiso   1.00
C94    C     0.08748   0.81907   0.67472   0.00000  Uiso   1.00
C95    C     0.10785   0.87344   0.72545   0.00000  Uiso   1.00
C96    C     0.07754   0.86408   0.77296   0.00000  Uiso   1.00
C97    C     0.04384   0.87472   0.86202   0.00000  Uiso   1.00
C98    C     0.13473   0.75878   0.59256   0.00000  Uiso   1.00
C99    C     0.19482   0.76246   0.57420   0.00000  Uiso   1.00
C100   C     0.20429   0.70234   0.55255   0.00000  Uiso   1.00
C101   C     0.24393   0.61937   0.51402   0.00000  Uiso   1.00
C102   C     0.05805   0.79921   0.58174   0.00000  Uiso   1.00
C103   C     0.05368   0.83687   0.55427   0.00000  Uiso   1.00
C104   C     0.99859   0.81077   0.52348   0.00000  Uiso   1.00
C105   C     0.91918   0.79057   0.46815   0.00000  Uiso   1.00
C106   C     0.02394   0.70492   0.61183   0.00000  Uiso   1.00
C107   C     0.03857   0.75752   0.67154   0.00000  Uiso   1.00
C108   C     0.00822   0.74807   0.71899   0.00000  Uiso   1.00
C109   C     0.02854   0.80242   0.76978   0.00000  Uiso   1.00
C110   C     0.08582   0.69723   0.58939   0.00000  Uiso   1.00
C111   C     0.09519   0.63708   0.56775   0.00000  Uiso   1.00
C112   C     0.15529   0.64067   0.54937   0.00000  Uiso   1.00
C113   C     0.00914   0.73765   0.57856   0.00000  Uiso   1.00
C114   C     0.95405   0.71149   0.54781   0.00000  Uiso   1.00
C115   C     0.94959   0.74911   0.52030   0.00000  Uiso   1.00
H116   H     0.15207   0.86616   0.62014   0.00000  Uiso   1.00
H117   H     0.14571   0.92107   0.72788   0.00000  Uiso   1.00
H118   H     0.23266   0.81010   0.57666   0.00000  Uiso   1.00
H119   H     0.09154   0.88450   0.55673   0.00000  Uiso   1.00
H120   H     0.11710   0.95480   0.84594   0.00000  Uiso   1.00
H121   H     0.30044   0.72081   0.52706   0.00000  Uiso   1.00
H122   H     0.00286   0.87769   0.48503   0.00000  Uiso   1.00
H123   H     0.98586   0.65699   0.60936   0.00000  Uiso   1.00
H124   H     0.97037   0.70043   0.71652   0.00000  Uiso   1.00
H125   H     0.05733   0.58946   0.56530   0.00000  Uiso   1.00
H126   H     0.91621   0.66386   0.54537   0.00000  Uiso   1.00
H127   H     0.97479   0.77572   0.83672   0.00000  Uiso   1.00
H128   H     0.15814   0.54173   0.51784   0.00000  Uiso   1.00
H129   H     0.86055   0.69861   0.47581   0.00000  Uiso   1.00
O130   O     0.03878   0.89760   0.91202   0.00000  Uiso   1.00
O131   O     0.27931   0.59061   0.49365   0.00000  Uiso   1.00
O132   O     0.88889   0.79644   0.43851   0.00000  Uiso   1.00
N133   N     0.08572   0.90669   0.82907   0.00000  Uiso   1.00
N134   N     0.25714   0.68793   0.53094   0.00000  Uiso   1.00
N135   N     0.97893   0.83459   0.49163   0.00000  Uiso   1.00
N136   N     0.00915   0.81033   0.82411   0.00000  Uiso   1.00
N137   N     0.18057   0.59157   0.52598   0.00000  Uiso   1.00
N138   N     0.90236   0.73823   0.48667   0.00000  Uiso   1.00
C139   C     0.62606   0.49248   0.84133   0.00000  Uiso   1.00
C140   C     0.58916   0.50872   0.80947   0.00000  Uiso   1.00
C141   C     0.60662   0.57045   0.80472   0.00000  Uiso   1.00
C142   C     0.56647   0.57511   0.77376   0.00000  Uiso   1.00
C143   C     0.51765   0.60870   0.72811   0.00000  Uiso   1.00
C144   C     0.63827   0.43101   0.79922   0.00000  Uiso   1.00
C145   C     0.69702   0.42740   0.78586   0.00000  Uiso   1.00
C146   C     0.69821   0.36664   0.74628   0.00000  Uiso   1.00
C147   C     0.72563   0.27957   0.68475   0.00000  Uiso   1.00
C148   C     0.58061   0.46815   0.88341   0.00000  Uiso   1.00
C149   C     0.59089   0.49575   0.94082   0.00000  Uiso   1.00
C150   C     0.54354   0.46624   0.97212   0.00000  Uiso   1.00
C151   C     0.48144   0.43684   0.04130   0.00000  Uiso   1.00
C152   C     0.52371   0.39098   0.79480   0.00000  Uiso   1.00
C153   C     0.53357   0.45358   0.78420   0.00000  Uiso   1.00
C154   C     0.49338   0.45815   0.75324   0.00000  Uiso   1.00
C155   C     0.51078   0.51988   0.74844   0.00000  Uiso   1.00
C156   C     0.58268   0.37588   0.77395   0.00000  Uiso   1.00
C157   C     0.58378   0.31510   0.73438   0.00000  Uiso   1.00
C158   C     0.64252   0.31140   0.72096   0.00000  Uiso   1.00
C159   C     0.52502   0.41301   0.85814   0.00000  Uiso   1.00
C160   C     0.47765   0.38345   0.88935   0.00000  Uiso   1.00
C161   C     0.48785   0.41101   0.94680   0.00000  Uiso   1.00
H162   H     0.66934   0.53540   0.86100   0.00000  Uiso   1.00
H163   H     0.64965   0.61310   0.82428   0.00000  Uiso   1.00
H164   H     0.74003   0.47007   0.80542   0.00000  Uiso   1.00
H165   H     0.63391   0.53842   0.96037   0.00000  Uiso   1.00
H166   H     0.60331   0.67493   0.77240   0.00000  Uiso   1.00
H167   H     0.79388   0.37334   0.73266   0.00000  Uiso   1.00
H168   H     0.57012   0.51745   0.05939   0.00000  Uiso   1.00
H169   H     0.48043   0.34805   0.77513   0.00000  Uiso   1.00
H170   H     0.45036   0.41547   0.73369   0.00000  Uiso   1.00
H171   H     0.54075   0.27244   0.71484   0.00000  Uiso   1.00
H172   H     0.43464   0.34079   0.86978   0.00000  Uiso   1.00
H173   H     0.44156   0.51453   0.69887   0.00000  Uiso   1.00
H174   H     0.63214   0.21293   0.65914   0.00000  Uiso   1.00
H175   H     0.40838   0.35705   0.98586   0.00000  Uiso   1.00
O176   O     0.50608   0.64246   0.70991   0.00000  Uiso   1.00
O177   O     0.75611   0.24678   0.65779   0.00000  Uiso   1.00
O178   O     0.46254   0.43585   0.08644   0.00000  Uiso   1.00
N179   N     0.56936   0.62793   0.76079   0.00000  Uiso   1.00
N180   N     0.74754   0.34596   0.72363   0.00000  Uiso   1.00
N181   N     0.53835   0.48068   0.02909   0.00000  Uiso   1.00
N182   N     0.48233   0.54162   0.72123   0.00000  Uiso   1.00
N183   N     0.66051   0.25965   0.68407   0.00000  Uiso   1.00
N184   N     0.45132   0.39437   0.98953   0.00000  Uiso   1.00
C185   C     0.15934   0.15644   0.44147   0.00000  Uiso   1.00
C186   C     0.09363   0.15519   0.43957   0.00000  Uiso   1.00
C187   C     0.05280   0.11854   0.39343   0.00000  Uiso   1.00
C188   C     0.99478   0.12415   0.40019   0.00000  Uiso   1.00
C189   C     0.89526   0.11598   0.38947   0.00000  Uiso   1.00
C190   C     0.15915   0.13490   0.48910   0.00000  Uiso   1.00
C191   C     0.17342   0.08119   0.48459   0.00000  Uiso   1.00
C192   C     0.17056   0.06973   0.53304   0.00000  Uiso   1.00
C193   C     0.17280   0.03007   0.59921   0.00000  Uiso   1.00
C194   C     0.20436   0.23072   0.46020   0.00000  Uiso   1.00
C195   C     0.25666   0.25759   0.43141   0.00000  Uiso   1.00
C196   C     0.29188   0.32680   0.45554   0.00000  Uiso   1.00
C197   C     0.36432   0.43593   0.47686   0.00000  Uiso   1.00
C198   C     0.12890   0.23159   0.53552   0.00000  Uiso   1.00
C199   C     0.07710   0.19601   0.49066   0.00000  Uiso   1.00
C200   C     0.01912   0.20168   0.49748   0.00000  Uiso   1.00
C201   C     0.97821   0.16504   0.45136   0.00000  Uiso   1.00
C202   C     0.14262   0.17571   0.54018   0.00000  Uiso   1.00
C203   C     0.13974   0.16433   0.58864   0.00000  Uiso   1.00
C204   C     0.15399   0.11061   0.58421   0.00000  Uiso   1.00
C205   C     0.18783   0.27154   0.51128   0.00000  Uiso   1.00
C206   C     0.22298   0.34073   0.53546   0.00000  Uiso   1.00
C207   C     0.27531   0.36769   0.50671   0.00000  Uiso   1.00
H208   H     0.17221   0.12466   0.40171   0.00000  Uiso   1.00
H209   H     0.06561   0.08696   0.35391   0.00000  Uiso   1.00
H210   H     0.18622   0.04962   0.44506   0.00000  Uiso   1.00
H211   H     0.26944   0.22599   0.39189   0.00000  Uiso   1.00
H212   H     0.94013   0.06313   0.32345   0.00000  Uiso   1.00
H213   H     0.19445   0.98441   0.51564   0.00000  Uiso   1.00
H214   H     0.36995   0.35632   0.40352   0.00000  Uiso   1.00
H215   H     0.11602   0.26336   0.57529   0.00000  Uiso   1.00
H216   H     0.00634   0.23327   0.53701   0.00000  Uiso   1.00
H217   H     0.12694   0.19593   0.62816   0.00000  Uiso   1.00
H218   H     0.21017   0.37230   0.57499   0.00000  Uiso   1.00
H219   H     0.89202   0.18188   0.47206   0.00000  Uiso   1.00
H220   H     0.14634   0.10316   0.66426   0.00000  Uiso   1.00
H221   H     0.32184   0.47507   0.55214   0.00000  Uiso   1.00
O222   O     0.84493   0.10019   0.36945   0.00000  Uiso   1.00
O223   O     0.17860   0.99692   0.62160   0.00000  Uiso   1.00
O224   O     0.40885   0.48486   0.47450   0.00000  Uiso   1.00
N225   N     0.94386   0.09522   0.36368   0.00000  Uiso   1.00
N226   N     0.18163   0.02161   0.54336   0.00000  Uiso   1.00
N227   N     0.34572   0.36932   0.43855   0.00000  Uiso   1.00
N228   N     0.91798   0.15912   0.44364   0.00000  Uiso   1.00
N229   N     0.15574   0.08551   0.62333   0.00000  Uiso   1.00
N230   N     0.31983   0.43322   0.51851   0.00000  Uiso   1.00
C231   C     0.58041   0.92511   0.78337   0.00000  Uiso   1.00
C232   C     0.55890   0.96565   0.83903   0.00000  Uiso   1.00
C233   C     0.53843   0.94599   0.88405   0.00000  Uiso   1.00
C234   C     0.52077   0.99020   0.93124   0.00000  Uiso   1.00
C235   C     0.48698   0.04379   0.01737   0.00000  Uiso   1.00
C236   C     0.64689   0.97158   0.77520   0.00000  Uiso   1.00
C237   C     0.70040   0.95691   0.76655   0.00000  Uiso   1.00
C238   C     0.75682   0.00611   0.76001   0.00000  Uiso   1.00
C239   C     0.85964   0.06889   0.74700   0.00000  Uiso   1.00
C240   C     0.53891   0.91586   0.73845   0.00000  Uiso   1.00
C241   C     0.50163   0.85433   0.69889   0.00000  Uiso   1.00
C242   C     0.46715   0.85662   0.66140   0.00000  Uiso   1.00
C243   C     0.40230   0.83287   0.59134   0.00000  Uiso   1.00
C244   C     0.58546   0.03857   0.78713   0.00000  Uiso   1.00
C245   C     0.56164   0.02728   0.84107   0.00000  Uiso   1.00
C246   C     0.54401   0.07153   0.88821   0.00000  Uiso   1.00
C247   C     0.52352   0.05194   0.93329   0.00000  Uiso   1.00
C248   C     0.64964   0.03321   0.77724   0.00000  Uiso   1.00
C249   C     0.70599   0.08244   0.77071   0.00000  Uiso   1.00
C250   C     0.75957   0.06785   0.76206   0.00000  Uiso   1.00
C251   C     0.54165   0.97749   0.74050   0.00000  Uiso   1.00
C252   C     0.50722   0.97987   0.70306   0.00000  Uiso   1.00
C253   C     0.46990   0.91836   0.66345   0.00000  Uiso   1.00
H254   H     0.57828   0.87713   0.78178   0.00000  Uiso   1.00
H255   H     0.53632   0.89830   0.88245   0.00000  Uiso   1.00
H256   H     0.69827   0.90921   0.76496   0.00000  Uiso   1.00
H257   H     0.49952   0.80665   0.69732   0.00000  Uiso   1.00
H258   H     0.49103   0.94896   0.99498   0.00000  Uiso   1.00
H259   H     0.83250   0.97195   0.74723   0.00000  Uiso   1.00
H260   H     0.41342   0.75568   0.60459   0.00000  Uiso   1.00
H261   H     0.58760   0.08656   0.78872   0.00000  Uiso   1.00
H262   H     0.54614   0.11922   0.88978   0.00000  Uiso   1.00
H263   H     0.70810   0.13013   0.77229   0.00000  Uiso   1.00
H264   H     0.50935   0.02757   0.70465   0.00000  Uiso   1.00
H265   H     0.49900   0.12827   0.00093   0.00000  Uiso   1.00
H266   H     0.84048   0.15126   0.75318   0.00000  Uiso   1.00
H267   H     0.42140   0.93499   0.61054   0.00000  Uiso   1.00
O268   O     0.46760   0.05633   0.06431   0.00000  Uiso   1.00
O269   O     0.91560   0.08649   0.73927   0.00000  Uiso   1.00
O270   O     0.36577   0.80275   0.55213   0.00000  Uiso   1.00
N271   N     0.49858   0.98667   0.98250   0.00000  Uiso   1.00
N272   N     0.81784   0.00817   0.75089   0.00000  Uiso   1.00
N273   N     0.42604   0.80598   0.61752   0.00000  Uiso   1.00
N274   N     0.50287   0.08315   0.98570   0.00000  Uiso   1.00
N275   N     0.82213   0.10466   0.75409   0.00000  Uiso   1.00
N276   N     0.43034   0.90246   0.62072   0.00000  Uiso   1.00
C277   C     0.21334   0.43792   0.81238   0.00000  Uiso   1.00
C278   C     0.23988   0.43302   0.85953   0.00000  Uiso   1.00
C279   C     0.26151   0.48470   0.91136   0.00000  Uiso   1.00
C280   C     0.28396   0.47011   0.94877   0.00000  Uiso   1.00
C281   C     0.32502   0.47223   0.02412   0.00000  Uiso   1.00
C282   C     0.14773   0.38130   0.79835   0.00000  Uiso   1.00
C283   C     0.09189   0.38949   0.79874   0.00000  Uiso   1.00
C284   C     0.03678   0.33136   0.78464   0.00000  Uiso   1.00
C285   C     0.93478   0.25317   0.76497   0.00000  Uiso   1.00
C286   C     0.25338   0.41871   0.76164   0.00000  Uiso   1.00
C287   C     0.28636   0.45835   0.73115   0.00000  Uiso   1.00
C288   C     0.32019   0.43171   0.68613   0.00000  Uiso   1.00
C289   C     0.38223   0.41161   0.60946   0.00000  Uiso   1.00
C290   C     0.21476   0.32013   0.78667   0.00000  Uiso   1.00
C291   C     0.24064   0.36904   0.84556   0.00000  Uiso   1.00
C292   C     0.26307   0.35437   0.88291   0.00000  Uiso   1.00
C293   C     0.28474   0.40602   0.93478   0.00000  Uiso   1.00
C294   C     0.14850   0.31732   0.78439   0.00000  Uiso   1.00
C295   C     0.09345   0.25916   0.77028   0.00000  Uiso   1.00
C296   C     0.03755   0.26726   0.77065   0.00000  Uiso   1.00
C297   C     0.25415   0.35473   0.74768   0.00000  Uiso   1.00
C298   C     0.28793   0.32802   0.70270   0.00000  Uiso   1.00
C299   C     0.32095   0.36761   0.67214   0.00000  Uiso   1.00
H300   H     0.21274   0.48773   0.82326   0.00000  Uiso   1.00
H301   H     0.26090   0.53420   0.92215   0.00000  Uiso   1.00
H302   H     0.09131   0.43901   0.80954   0.00000  Uiso   1.00
H303   H     0.28576   0.50786   0.74197   0.00000  Uiso   1.00
H304   H     0.31462   0.55750   0.02565   0.00000  Uiso   1.00
H305   H     0.95703   0.35678   0.78818   0.00000  Uiso   1.00
H306   H     0.36705   0.50196   0.64568   0.00000  Uiso   1.00
H307   H     0.21535   0.27031   0.77579   0.00000  Uiso   1.00
H308   H     0.26366   0.30486   0.87209   0.00000  Uiso   1.00
H309   H     0.09407   0.20966   0.75947   0.00000  Uiso   1.00
H310   H     0.28851   0.27851   0.69190   0.00000  Uiso   1.00
H311   H     0.31685   0.37136   0.98501   0.00000  Uiso   1.00
H312   H     0.95926   0.17063   0.74754   0.00000  Uiso   1.00
H313   H     0.36928   0.31581   0.60505   0.00000  Uiso   1.00
O314   O     0.34744   0.49107   0.06954   0.00000  Uiso   1.00
O315   O     0.87831   0.22772   0.75798   0.00000  Uiso   1.00
O316   O     0.41624   0.41820   0.57103   0.00000  Uiso   1.00
N317   N     0.30852   0.50896   0.00286   0.00000  Uiso   1.00
N318   N     0.97420   0.32129   0.78086   0.00000  Uiso   1.00
N319   N     0.35752   0.45702   0.64762   0.00000  Uiso   1.00
N320   N     0.30973   0.40879   0.98100   0.00000  Uiso   1.00
N321   N     0.97540   0.22113   0.75899   0.00000  Uiso   1.00
N322   N     0.35872   0.35685   0.62576   0.00000  Uiso   1.00
C323   C     0.37804   0.14923   0.90541   0.00000  Uiso   1.00
C324   C     0.37381   0.08087   0.90121   0.00000  Uiso   1.00
C325   C     0.35753   0.05709   0.94407   0.00000  Uiso   1.00
C326   C     0.35634   0.99321   0.93184   0.00000  Uiso   1.00
C327   C     0.34752   0.89293   0.93342   0.00000  Uiso   1.00
C328   C     0.33399   0.13365   0.85963   0.00000  Uiso   1.00
C329   C     0.28424   0.15425   0.86752   0.00000  Uiso   1.00
C330   C     0.24953   0.13482   0.82029   0.00000  Uiso   1.00
C331   C     0.17892   0.11652   0.75730   0.00000  Uiso   1.00
C332   C     0.44472   0.18441   0.88827   0.00000  Uiso   1.00
C333   C     0.48806   0.24771   0.92023   0.00000  Uiso   1.00
C334   C     0.54657   0.27102   0.89710   0.00000  Uiso   1.00
C335   C     0.64788   0.33155   0.87857   0.00000  Uiso   1.00
C336   C     0.40489   0.07809   0.80749   0.00000  Uiso   1.00
C337   C     0.38839   0.04223   0.84803   0.00000  Uiso   1.00
C338   C     0.38723   0.97837   0.83573   0.00000  Uiso   1.00
C339   C     0.37095   0.95450   0.87856   0.00000  Uiso   1.00
C340   C     0.34857   0.09501   0.80645   0.00000  Uiso   1.00
C341   C     0.31394   0.07554   0.75919   0.00000  Uiso   1.00
C342   C     0.26414   0.09611   0.76701   0.00000  Uiso   1.00
C343   C     0.45930   0.14577   0.83508   0.00000  Uiso   1.00
C344   C     0.51776   0.16899   0.81190   0.00000  Uiso   1.00
C345   C     0.56118   0.23231   0.84382   0.00000  Uiso   1.00
H346   H     0.36669   0.17932   0.94681   0.00000  Uiso   1.00
H347   H     0.34624   0.08700   0.98522   0.00000  Uiso   1.00
H348   H     0.27297   0.18416   0.90869   0.00000  Uiso   1.00
H349   H     0.47675   0.27760   0.96139   0.00000  Uiso   1.00
H350   H     0.32998   0.96761   0.00434   0.00000  Uiso   1.00
H351   H     0.17549   0.17249   0.84297   0.00000  Uiso   1.00
H352   H     0.60522   0.36953   0.95409   0.00000  Uiso   1.00
H353   H     0.41624   0.04800   0.76608   0.00000  Uiso   1.00
H354   H     0.39852   0.94848   0.79457   0.00000  Uiso   1.00
H355   H     0.32524   0.04564   0.71804   0.00000  Uiso   1.00
H356   H     0.52903   0.13908   0.77074   0.00000  Uiso   1.00
H357   H     0.37241   0.85518   0.84961   0.00000  Uiso   1.00
H358   H     0.21792   0.06006   0.68823   0.00000  Uiso   1.00
H359   H     0.64764   0.25710   0.79936   0.00000  Uiso   1.00
O360   O     0.33862   0.84828   0.94898   0.00000  Uiso   1.00
O361   O     0.13594   0.11710   0.73725   0.00000  Uiso   1.00
O362   O     0.69973   0.37560   0.88305   0.00000  Uiso   1.00
N363   N     0.34241   0.95481   0.96402   0.00000  Uiso   1.00
N364   N     0.19796   0.14636   0.81314   0.00000  Uiso   1.00
N365   N     0.59972   0.33058   0.91703   0.00000  Uiso   1.00
N366   N     0.36524   0.89431   0.88076   0.00000  Uiso   1.00
N367   N     0.22079   0.08586   0.72988   0.00000  Uiso   1.00
N368   N     0.62255   0.27008   0.83377   0.00000  Uiso   1.00
C369   C     0.54062   0.78275   0.47629   0.00000  Uiso   1.00
C370   C     0.60148   0.77363   0.45195   0.00000  Uiso   1.00
C371   C     0.61418   0.74835   0.39549   0.00000  Uiso   1.00
C372   C     0.67263   0.74399   0.38175   0.00000  Uiso   1.00
C373   C     0.76043   0.72679   0.33769   0.00000  Uiso   1.00
C374   C     0.56021   0.85723   0.51494   0.00000  Uiso   1.00
C375   C     0.53820   0.90224   0.51146   0.00000  Uiso   1.00
C376   C     0.56190   0.96825   0.55075   0.00000  Uiso   1.00
C377   C     0.58559   0.08082   0.60451   0.00000  Uiso   1.00
C378   C     0.51583   0.74290   0.51404   0.00000  Uiso   1.00
C379   C     0.45651   0.69177   0.50980   0.00000  Uiso   1.00
C380   C     0.44285   0.66153   0.54835   0.00000  Uiso   1.00
C381   C     0.39764   0.59658   0.60070   0.00000  Uiso   1.00
C382   C     0.62183   0.81996   0.55228   0.00000  Uiso   1.00
C383   C     0.64559   0.79385   0.49323   0.00000  Uiso   1.00
C384   C     0.70403   0.78952   0.47957   0.00000  Uiso   1.00
C385   C     0.71682   0.76423   0.42310   0.00000  Uiso   1.00
C386   C     0.60431   0.87745   0.55622   0.00000  Uiso   1.00
C387   C     0.62805   0.94341   0.59553   0.00000  Uiso   1.00
C388   C     0.60609   0.98850   0.59210   0.00000  Uiso   1.00
C389   C     0.55994   0.76311   0.55531   0.00000  Uiso   1.00
C390   C     0.54637   0.73294   0.59387   0.00000  Uiso   1.00
C391   C     0.48704   0.68178   0.58970   0.00000  Uiso   1.00
H392   H     0.50628   0.76702   0.44415   0.00000  Uiso   1.00
H393   H     0.58004   0.73272   0.36356   0.00000  Uiso   1.00
H394   H     0.50406   0.88658   0.47951   0.00000  Uiso   1.00
H395   H     0.42239   0.67615   0.47786   0.00000  Uiso   1.00
H396   H     0.68127   0.70363   0.29242   0.00000  Uiso   1.00
H397   H     0.52106   0.02804   0.53692   0.00000  Uiso   1.00
H398   H     0.34884   0.58430   0.53342   0.00000  Uiso   1.00
H399   H     0.65617   0.83570   0.58441   0.00000  Uiso   1.00
H400   H     0.73816   0.80516   0.51152   0.00000  Uiso   1.00
H401   H     0.66218   0.95903   0.62747   0.00000  Uiso   1.00
H402   H     0.58051   0.74860   0.62581   0.00000  Uiso   1.00
H403   H     0.80961   0.76243   0.41250   0.00000  Uiso   1.00
H404   H     0.64939   0.08685   0.65700   0.00000  Uiso   1.00
H405   H     0.47718   0.64311   0.65351   0.00000  Uiso   1.00
O406   O     0.79668   0.71172   0.30198   0.00000  Uiso   1.00
O407   O     0.58647   0.13734   0.62275   0.00000  Uiso   1.00
O408   O     0.36053   0.55517   0.61817   0.00000  Uiso   1.00
N409   N     0.70022   0.72164   0.33068   0.00000  Uiso   1.00
N410   N     0.55044   0.02496   0.55927   0.00000  Uiso   1.00
N411   N     0.38942   0.61011   0.55601   0.00000  Uiso   1.00
N412   N     0.76928   0.75328   0.39530   0.00000  Uiso   1.00
N413   N     0.61949   0.05660   0.62388   0.00000  Uiso   1.00
N414   N     0.45848   0.64175   0.62063   0.00000  Uiso   1.00
C415   C     0.22023   0.22504   0.24482   0.00000  Uiso   1.00
C416   C     0.26563   0.20507   0.26346   0.00000  Uiso   1.00
C417   C     0.25320   0.14116   0.26173   0.00000  Uiso   1.00
C418   C     0.30090   0.13319   0.28070   0.00000  Uiso   1.00
C419   C     0.36256   0.09398   0.30664   0.00000  Uiso   1.00
C420   C     0.21344   0.28441   0.29513   0.00000  Uiso   1.00
C421   C     0.15713   0.28720   0.32002   0.00000  Uiso   1.00
C422   C     0.16090   0.34602   0.36565   0.00000  Uiso   1.00
C423   C     0.14152   0.42999   0.44072   0.00000  Uiso   1.00
C424   C     0.25483   0.25381   0.20106   0.00000  Uiso   1.00
C425   C     0.23331   0.23090   0.14686   0.00000  Uiso   1.00
C426   C     0.27192   0.26398   0.11328   0.00000  Uiso   1.00
C427   C     0.31681   0.30045   0.04230   0.00000  Uiso   1.00
C428   C     0.32707   0.32453   0.28159   0.00000  Uiso   1.00
C429   C     0.32366   0.25912   0.28344   0.00000  Uiso   1.00
C430   C     0.37139   0.25124   0.30241   0.00000  Uiso   1.00
C431   C     0.35903   0.18733   0.30071   0.00000  Uiso   1.00
C432   C     0.27147   0.33845   0.31510   0.00000  Uiso   1.00
C433   C     0.27532   0.39728   0.36070   0.00000  Uiso   1.00
C434   C     0.21903   0.40016   0.38565   0.00000  Uiso   1.00
C435   C     0.31286   0.30786   0.22103   0.00000  Uiso   1.00
C436   C     0.35151   0.34098   0.18754   0.00000  Uiso   1.00
C437   C     0.33005   0.31812   0.13329   0.00000  Uiso   1.00
H438   H     0.17506   0.18297   0.22927   0.00000  Uiso   1.00
H439   H     0.20828   0.09936   0.24628   0.00000  Uiso   1.00
H440   H     0.11223   0.24537   0.30455   0.00000  Uiso   1.00
H441   H     0.18841   0.18908   0.13142   0.00000  Uiso   1.00
H442   H     0.27070   0.03050   0.27396   0.00000  Uiso   1.00
H443   H     0.06817   0.33839   0.39682   0.00000  Uiso   1.00
H444   H     0.22879   0.21969   0.03173   0.00000  Uiso   1.00
H445   H     0.37224   0.36661   0.29714   0.00000  Uiso   1.00
H446   H     0.41629   0.29307   0.31787   0.00000  Uiso   1.00
H447   H     0.32024   0.43909   0.37614   0.00000  Uiso   1.00
H448   H     0.39641   0.38280   0.20301   0.00000  Uiso   1.00
H449   H     0.43953   0.18773   0.33207   0.00000  Uiso   1.00
H450   H     0.23699   0.49562   0.45493   0.00000  Uiso   1.00
H451   H     0.39762   0.37692   0.08984   0.00000  Uiso   1.00
O452   O     0.38053   0.05743   0.31544   0.00000  Uiso   1.00
O453   O     0.11481   0.46138   0.47662   0.00000  Uiso   1.00
O454   O     0.32555   0.30564   0.99763   0.00000  Uiso   1.00
N455   N     0.30440   0.07759   0.28478   0.00000  Uiso   1.00
N456   N     0.11504   0.36545   0.39965   0.00000  Uiso   1.00
N457   N     0.26520   0.25448   0.05833   0.00000  Uiso   1.00
N458   N     0.39524   0.16219   0.31605   0.00000  Uiso   1.00
N459   N     0.20588   0.45005   0.43092   0.00000  Uiso   1.00
N460   N     0.35605   0.33908   0.08959   0.00000  Uiso   1.00
C461   C     0.62376   0.43727   0.62301   0.00000  Uiso   1.00
C462   C     0.69313   0.46917   0.64076   0.00000  Uiso   1.00
C463   C     0.71656   0.50439   0.69538   0.00000  Uiso   1.00
C464   C     0.78151   0.52968   0.70289   0.00000  Uiso   1.00
C465   C     0.88314   0.58072   0.73738   0.00000  Uiso   1.00
C466   C     0.61923   0.46791   0.58319   0.00000  Uiso   1.00
C467   C     0.58051   0.50204   0.58940   0.00000  Uiso   1.00
C468   C     0.58325   0.52627   0.54844   0.00000  Uiso   1.00
C469   C     0.57011   0.57529   0.49354   0.00000  Uiso   1.00
C470   C     0.60941   0.36261   0.58765   0.00000  Uiso   1.00
C471   C     0.56242   0.30821   0.59759   0.00000  Uiso   1.00
C472   C     0.55688   0.24378   0.56037   0.00000  Uiso   1.00
C473   C     0.52850   0.12932   0.51238   0.00000  Uiso   1.00
C474   C     0.69745   0.41958   0.53922   0.00000  Uiso   1.00
C475   C     0.73316   0.45957   0.59525   0.00000  Uiso   1.00
C476   C     0.79809   0.48482   0.60268   0.00000  Uiso   1.00
C477   C     0.82160   0.52006   0.65729   0.00000  Uiso   1.00
C478   C     0.65925   0.45830   0.53768   0.00000  Uiso   1.00
C479   C     0.66204   0.48247   0.49670   0.00000  Uiso   1.00
C480   C     0.62334   0.51664   0.50285   0.00000  Uiso   1.00
C481   C     0.64944   0.35300   0.54214   0.00000  Uiso   1.00
C482   C     0.64396   0.28865   0.50489   0.00000  Uiso   1.00
C483   C     0.59698   0.23416   0.51478   0.00000  Uiso   1.00
H484   H     0.59260   0.44475   0.65844   0.00000  Uiso   1.00
H485   H     0.68557   0.51181   0.73059   0.00000  Uiso   1.00
H486   H     0.54954   0.50946   0.62463   0.00000  Uiso   1.00
H487   H     0.53146   0.31567   0.63281   0.00000  Uiso   1.00
H488   H     0.80630   0.58195   0.79051   0.00000  Uiso   1.00
H489   H     0.51946   0.57698   0.56707   0.00000  Uiso   1.00
H490   H     0.48133   0.16832   0.58433   0.00000  Uiso   1.00
H491   H     0.72861   0.41210   0.50378   0.00000  Uiso   1.00
H492   H     0.82905   0.47737   0.56745   0.00000  Uiso   1.00
H493   H     0.69302   0.47503   0.46149   0.00000  Uiso   1.00
H494   H     0.67494   0.28123   0.46967   0.00000  Uiso   1.00
H495   H     0.92275   0.55400   0.65810   0.00000  Uiso   1.00
H496   H     0.63591   0.54903   0.43466   0.00000  Uiso   1.00
H497   H     0.59778   0.14037   0.45192   0.00000  Uiso   1.00
O498   O     0.92815   0.61153   0.76897   0.00000  Uiso   1.00
O499   O     0.55181   0.60499   0.47583   0.00000  Uiso   1.00
O500   O     0.50179   0.06884   0.49848   0.00000  Uiso   1.00
N501   N     0.81992   0.56640   0.75061   0.00000  Uiso   1.00
N502   N     0.55175   0.56176   0.54171   0.00000  Uiso   1.00
N503   N     0.51609   0.17970   0.55784   0.00000  Uiso   1.00
N504   N     0.88258   0.55137   0.67936   0.00000  Uiso   1.00
N505   N     0.61441   0.54672   0.47047   0.00000  Uiso   1.00
N506   N     0.57876   0.16466   0.48660   0.00000  Uiso   1.00
C507   C     0.18779   0.78860   0.32449   0.00000  Uiso   1.00
C508   C     0.21443   0.74573   0.27412   0.00000  Uiso   1.00
C509   C     0.23264   0.75614   0.22468   0.00000  Uiso   1.00
C510   C     0.25584   0.71132   0.18359   0.00000  Uiso   1.00
C511   C     0.29645   0.65283   0.10412   0.00000  Uiso   1.00
C512   C     0.12426   0.73970   0.33548   0.00000  Uiso   1.00
C513   C     0.06665   0.74505   0.33764   0.00000  Uiso   1.00
C514   C     0.01395   0.69517   0.34821   0.00000  Uiso   1.00
C515   C     0.91456   0.62736   0.36405   0.00000  Uiso   1.00
C516   C     0.23073   0.81315   0.37412   0.00000  Uiso   1.00
C517   C     0.26263   0.88026   0.40879   0.00000  Uiso   1.00
C518   C     0.29956   0.89222   0.45191   0.00000  Uiso   1.00
C519   C     0.36549   0.93844   0.52774   0.00000  Uiso   1.00
C520   C     0.19662   0.69052   0.33943   0.00000  Uiso   1.00
C521   C     0.21923   0.69245   0.28223   0.00000  Uiso   1.00
C522   C     0.24241   0.64761   0.24121   0.00000  Uiso   1.00
C523   C     0.26065   0.65795   0.19172   0.00000  Uiso   1.00
C524   C     0.12905   0.68643   0.34359   0.00000  Uiso   1.00
C525   C     0.07642   0.63653   0.35417   0.00000  Uiso   1.00
C526   C     0.01875   0.64180   0.35634   0.00000  Uiso   1.00
C527   C     0.23553   0.75988   0.38224   0.00000  Uiso   1.00
C528   C     0.27241   0.77173   0.42531   0.00000  Uiso   1.00
C529   C     0.30436   0.83884   0.46004   0.00000  Uiso   1.00
H530   H     0.18405   0.83008   0.31818   0.00000  Uiso   1.00
H531   H     0.22891   0.79737   0.21841   0.00000  Uiso   1.00
H532   H     0.06295   0.78629   0.33136   0.00000  Uiso   1.00
H533   H     0.25891   0.92147   0.40249   0.00000  Uiso   1.00
H534   H     0.28075   0.73759   0.11138   0.00000  Uiso   1.00
H535   H     0.93081   0.71425   0.34956   0.00000  Uiso   1.00
H536   H     0.34402   0.99931   0.49956   0.00000  Uiso   1.00
H537   H     0.20036   0.64903   0.34575   0.00000  Uiso   1.00
H538   H     0.24612   0.60639   0.24750   0.00000  Uiso   1.00
H539   H     0.08015   0.59531   0.36045   0.00000  Uiso   1.00
H540   H     0.27611   0.73049   0.43158   0.00000  Uiso   1.00
H541   H     0.29470   0.58258   0.13499   0.00000  Uiso   1.00
H542   H     0.94477   0.55924   0.37317   0.00000  Uiso   1.00
H543   H     0.35798   0.84430   0.52316   0.00000  Uiso   1.00
O544   O     0.31751   0.63529   0.05805   0.00000  Uiso   1.00
O545   O     0.85842   0.60467   0.37054   0.00000  Uiso   1.00
O546   O     0.40054   0.97866   0.56733   0.00000  Uiso   1.00
N547   N     0.27776   0.70697   0.13042   0.00000  Uiso   1.00
N548   N     0.95059   0.68514   0.35310   0.00000  Uiso   1.00
N549   N     0.33690   0.95165   0.49334   0.00000  Uiso   1.00
N550   N     0.28527   0.62356   0.14313   0.00000  Uiso   1.00
N551   N     0.95810   0.60173   0.36580   0.00000  Uiso   1.00
N552   N     0.34441   0.86824   0.50604   0.00000  Uiso   1.00
