data_job_05928
_audit_creation_date              2018-12-19
_audit_creation_method            'Materials Studio'
_symmetry_space_group_name_H-M    'P1'
_symmetry_Int_Tables_number       1
_symmetry_cell_setting            triclinic
loop_
_symmetry_equiv_pos_as_xyz
  x,y,z
_cell_length_a                    7.6130
_cell_length_b                    22.3387
_cell_length_c                    22.7339
_cell_angle_alpha                 118.7030
_cell_angle_beta                  81.7540
_cell_angle_gamma                 87.3848
loop_
_atom_site_label
_atom_site_type_symbol
_atom_site_fract_x
_atom_site_fract_y
_atom_site_fract_z
_atom_site_U_iso_or_equiv
_atom_site_adp_type
_atom_site_occupancy
C1     C     0.77515   0.61927   0.78779   0.00000  Uiso   1.00
C2     C     0.86354   0.61223   0.71980   0.00000  Uiso   1.00
C3     C     0.77834   0.60088   0.66600   0.00000  Uiso   1.00
C4     C     0.88267   0.59597   0.60812   0.00000  Uiso   1.00
C5     C     0.99212   0.58406   0.50312   0.00000  Uiso   1.00
C6     C     0.88073   0.56479   0.79579   0.00000  Uiso   1.00
C7     C     0.80996   0.51355   0.80588   0.00000  Uiso   1.00
C8     C     0.92877   0.46870   0.81198   0.00000  Uiso   1.00
C9     C     0.06488   0.38317   0.82501   0.00000  Uiso   1.00
C10    C     0.81198   0.68863   0.84291   0.00000  Uiso   1.00
C11    C     0.68342   0.74152   0.89264   0.00000  Uiso   1.00
C12    C     0.74434   0.80093   0.93843   0.00000  Uiso   1.00
C13    C     0.77371   0.90768   0.02463   0.00000  Uiso   1.00
C14    C     0.11195   0.63073   0.78068   0.00000  Uiso   1.00
C15    C     0.04649   0.61846   0.71594   0.00000  Uiso   1.00
C16    C     0.15098   0.61356   0.65813   0.00000  Uiso   1.00
C17    C     0.06594   0.60220   0.60425   0.00000  Uiso   1.00
C18    C     0.06367   0.57101   0.79193   0.00000  Uiso   1.00
C19    C     0.18260   0.52624   0.79802   0.00000  Uiso   1.00
C20    C     0.11204   0.47494   0.80812   0.00000  Uiso   1.00
C21    C     0.99492   0.69486   0.83905   0.00000  Uiso   1.00
C22    C     0.05606   0.75420   0.88478   0.00000  Uiso   1.00
C23    C     0.92761   0.80717   0.93457   0.00000  Uiso   1.00
H24    H     0.63273   0.61442   0.79079   0.00000  Uiso   1.00
H25    H     0.63676   0.59606   0.66900   0.00000  Uiso   1.00
H26    H     0.66839   0.50875   0.80887   0.00000  Uiso   1.00
H27    H     0.54186   0.73668   0.89561   0.00000  Uiso   1.00
H28    H     0.72193   0.57842   0.53225   0.00000  Uiso   1.00
H29    H     0.78860   0.39434   0.82720   0.00000  Uiso   1.00
H30    H     0.52180   0.87498   0.01012   0.00000  Uiso   1.00
H31    H     0.25439   0.63558   0.77768   0.00000  Uiso   1.00
H32    H     0.29254   0.61838   0.65516   0.00000  Uiso   1.00
H33    H     0.32416   0.53107   0.79503   0.00000  Uiso   1.00
H34    H     0.19764   0.75900   0.88178   0.00000  Uiso   1.00
H35    H     0.25419   0.59654   0.52102   0.00000  Uiso   1.00
H36    H     0.32085   0.41246   0.81598   0.00000  Uiso   1.00
H37    H     0.05405   0.89309   0.99889   0.00000  Uiso   1.00
O38    O     0.00196   0.57576   0.44627   0.00000  Uiso   1.00
O39    O     0.08941   0.33427   0.83325   0.00000  Uiso   1.00
O40    O     0.73937   0.96485   0.07323   0.00000  Uiso   1.00
N41    N     0.84196   0.58506   0.54643   0.00000  Uiso   1.00
N42    N     0.90429   0.41295   0.82218   0.00000  Uiso   1.00
N43    N     0.65485   0.86229   0.99321   0.00000  Uiso   1.00
N44    N     0.12836   0.59481   0.54039   0.00000  Uiso   1.00
N45    N     0.19069   0.42270   0.81614   0.00000  Uiso   1.00
N46    N     0.94125   0.87204   0.98716   0.00000  Uiso   1.00
C47    C     0.59384   0.21375   0.83384   0.00000  Uiso   1.00
C48    C     0.61554   0.28289   0.89342   0.00000  Uiso   1.00
C49    C     0.47802   0.33538   0.93691   0.00000  Uiso   1.00
C50    C     0.52550   0.39465   0.98830   0.00000  Uiso   1.00
C51    C     0.53205   0.50103   0.07964   0.00000  Uiso   1.00
C52    C     0.71354   0.20765   0.77087   0.00000  Uiso   1.00
C53    C     0.65841   0.19685   0.71131   0.00000  Uiso   1.00
C54    C     0.78840   0.19277   0.65954   0.00000  Uiso   1.00
C55    C     0.94710   0.18227   0.56059   0.00000  Uiso   1.00
C56    C     0.67780   0.15890   0.84678   0.00000  Uiso   1.00
C57    C     0.59264   0.10711   0.85104   0.00000  Uiso   1.00
C58    C     0.69255   0.06198   0.86315   0.00000  Uiso   1.00
C59    C     0.79576   0.97581   0.88207   0.00000  Uiso   1.00
C60    C     0.92271   0.22568   0.84778   0.00000  Uiso   1.00
C61    C     0.79418   0.28937   0.90099   0.00000  Uiso   1.00
C62    C     0.84188   0.34858   0.95233   0.00000  Uiso   1.00
C63    C     0.70445   0.40114   0.99589   0.00000  Uiso   1.00
C64    C     0.89216   0.21412   0.77844   0.00000  Uiso   1.00
C65    C     0.02227   0.21005   0.72674   0.00000  Uiso   1.00
C66    C     0.96735   0.19926   0.66712   0.00000  Uiso   1.00
C67    C     0.85643   0.16538   0.85435   0.00000  Uiso   1.00
C68    C     0.95650   0.12031   0.86646   0.00000  Uiso   1.00
C69    C     0.87150   0.06847   0.87074   0.00000  Uiso   1.00
H70    H     0.45477   0.20871   0.82795   0.00000  Uiso   1.00
H71    H     0.33980   0.33035   0.93103   0.00000  Uiso   1.00
H72    H     0.52017   0.19183   0.70547   0.00000  Uiso   1.00
H73    H     0.45441   0.10212   0.84517   0.00000  Uiso   1.00
H74    H     0.29112   0.46807   0.04864   0.00000  Uiso   1.00
H75    H     0.67145   0.17599   0.57303   0.00000  Uiso   1.00
H76    H     0.53277   0.98679   0.86762   0.00000  Uiso   1.00
H77    H     0.06179   0.23072   0.85367   0.00000  Uiso   1.00
H78    H     0.98012   0.35357   0.95818   0.00000  Uiso   1.00
H79    H     0.16049   0.21506   0.73261   0.00000  Uiso   1.00
H80    H     0.09473   0.12534   0.87232   0.00000  Uiso   1.00
H81    H     0.81083   0.48693   0.07067   0.00000  Uiso   1.00
H82    H     0.19116   0.19483   0.59505   0.00000  Uiso   1.00
H83    H     0.05248   0.00564   0.88965   0.00000  Uiso   1.00
O84    O     0.48631   0.55793   0.12792   0.00000  Uiso   1.00
O85    O     0.98529   0.17470   0.50393   0.00000  Uiso   1.00
O86    O     0.80334   0.92649   0.89043   0.00000  Uiso   1.00
N87    N     0.42464   0.45565   0.03949   0.00000  Uiso   1.00
N88    N     0.78021   0.18257   0.59483   0.00000  Uiso   1.00
N89    N     0.65058   0.00568   0.87023   0.00000  Uiso   1.00
N90    N     0.70429   0.46579   0.05135   0.00000  Uiso   1.00
N91    N     0.05987   0.19272   0.60668   0.00000  Uiso   1.00
N92    N     0.93023   0.01583   0.88208   0.00000  Uiso   1.00
C93    C     0.40237   0.16278   0.37825   0.00000  Uiso   1.00
C94    C     0.47564   0.10326   0.38673   0.00000  Uiso   1.00
C95    C     0.37535   0.05757   0.39693   0.00000  Uiso   1.00
C96    C     0.46739   0.00666   0.40351   0.00000  Uiso   1.00
C97    C     0.55291   0.91502   0.41724   0.00000  Uiso   1.00
C98    C     0.46031   0.22736   0.43334   0.00000  Uiso   1.00
C99    C     0.34712   0.28602   0.48271   0.00000  Uiso   1.00
C100   C     0.42625   0.33958   0.52851   0.00000  Uiso   1.00
C101   C     0.48797   0.44063   0.61457   0.00000  Uiso   1.00
C102   C     0.50538   0.15142   0.31028   0.00000  Uiso   1.00
C103   C     0.43010   0.14625   0.25618   0.00000  Uiso   1.00
C104   C     0.54718   0.13589   0.19838   0.00000  Uiso   1.00
C105   C     0.67889   0.11904   0.09337   0.00000  Uiso   1.00
C106   C     0.74416   0.15360   0.37181   0.00000  Uiso   1.00
C107   C     0.66129   0.09828   0.38323   0.00000  Uiso   1.00
C108   C     0.75350   0.04742   0.38980   0.00000  Uiso   1.00
C109   C     0.65336   0.00166   0.40000   0.00000  Uiso   1.00
C110   C     0.64595   0.22238   0.42984   0.00000  Uiso   1.00
C111   C     0.72527   0.27587   0.47558   0.00000  Uiso   1.00
C112   C     0.61223   0.33459   0.52500   0.00000  Uiso   1.00
C113   C     0.69103   0.14644   0.30677   0.00000  Uiso   1.00
C114   C     0.80825   0.13609   0.24905   0.00000  Uiso   1.00
C115   C     0.73316   0.13090   0.19487   0.00000  Uiso   1.00
H116   H     0.25784   0.16666   0.38098   0.00000  Uiso   1.00
H117   H     0.23168   0.06145   0.39964   0.00000  Uiso   1.00
H118   H     0.20346   0.28986   0.48540   0.00000  Uiso   1.00
H119   H     0.28643   0.15011   0.25891   0.00000  Uiso   1.00
H120   H     0.28455   0.94262   0.41881   0.00000  Uiso   1.00
H121   H     0.22504   0.42425   0.59962   0.00000  Uiso   1.00
H122   H     0.40000   0.12956   0.12202   0.00000  Uiso   1.00
H123   H     0.88870   0.14972   0.36908   0.00000  Uiso   1.00
H124   H     0.89717   0.04357   0.38709   0.00000  Uiso   1.00
H125   H     0.86894   0.27199   0.47285   0.00000  Uiso   1.00
H126   H     0.95190   0.13224   0.24636   0.00000  Uiso   1.00
H127   H     0.82468   0.92811   0.40862   0.00000  Uiso   1.00
H128   H     0.76517   0.40975   0.58944   0.00000  Uiso   1.00
H129   H     0.94012   0.11506   0.11184   0.00000  Uiso   1.00
O130   O     0.54879   0.86586   0.42579   0.00000  Uiso   1.00
O131   O     0.47072   0.49775   0.66301   0.00000  Uiso   1.00
O132   O     0.70026   0.11112   0.03641   0.00000  Uiso   1.00
N133   N     0.41051   0.95376   0.41392   0.00000  Uiso   1.00
N134   N     0.35487   0.40406   0.58298   0.00000  Uiso   1.00
N135   N     0.51844   0.12857   0.13647   0.00000  Uiso   1.00
N136   N     0.70115   0.94596   0.40844   0.00000  Uiso   1.00
N137   N     0.64551   0.39625   0.57750   0.00000  Uiso   1.00
N138   N     0.80907   0.12076   0.13099   0.00000  Uiso   1.00
C139   C     0.22485   0.38073   0.21221   0.00000  Uiso   1.00
C140   C     0.13646   0.38776   0.28020   0.00000  Uiso   1.00
C141   C     0.22166   0.39912   0.33400   0.00000  Uiso   1.00
C142   C     0.11733   0.40403   0.39188   0.00000  Uiso   1.00
C143   C     0.00788   0.41594   0.49688   0.00000  Uiso   1.00
C144   C     0.11927   0.43521   0.20421   0.00000  Uiso   1.00
C145   C     0.19004   0.48645   0.19412   0.00000  Uiso   1.00
C146   C     0.07123   0.53130   0.18802   0.00000  Uiso   1.00
C147   C     0.93512   0.61683   0.17499   0.00000  Uiso   1.00
C148   C     0.18802   0.31137   0.15709   0.00000  Uiso   1.00
C149   C     0.31658   0.25848   0.10736   0.00000  Uiso   1.00
C150   C     0.25566   0.19907   0.06157   0.00000  Uiso   1.00
C151   C     0.22629   0.09232   0.97537   0.00000  Uiso   1.00
C152   C     0.88805   0.36927   0.21932   0.00000  Uiso   1.00
C153   C     0.95351   0.38154   0.28406   0.00000  Uiso   1.00
C154   C     0.84902   0.38644   0.34187   0.00000  Uiso   1.00
C155   C     0.93406   0.39780   0.39575   0.00000  Uiso   1.00
C156   C     0.93633   0.42899   0.20807   0.00000  Uiso   1.00
C157   C     0.81740   0.47376   0.20198   0.00000  Uiso   1.00
C158   C     0.88796   0.52506   0.19188   0.00000  Uiso   1.00
C159   C     0.00508   0.30514   0.16095   0.00000  Uiso   1.00
C160   C     0.94394   0.24580   0.11522   0.00000  Uiso   1.00
C161   C     0.07239   0.19283   0.06543   0.00000  Uiso   1.00
H162   H     0.36728   0.38558   0.20920   0.00000  Uiso   1.00
H163   H     0.36324   0.40394   0.33100   0.00000  Uiso   1.00
H164   H     0.33161   0.49125   0.19113   0.00000  Uiso   1.00
H165   H     0.45814   0.26332   0.10439   0.00000  Uiso   1.00
H166   H     0.27807   0.42158   0.46775   0.00000  Uiso   1.00
H167   H     0.21140   0.60566   0.17280   0.00000  Uiso   1.00
H168   H     0.47820   0.12502   0.98987   0.00000  Uiso   1.00
H169   H     0.74561   0.36442   0.22232   0.00000  Uiso   1.00
H170   H     0.70746   0.38162   0.34484   0.00000  Uiso   1.00
H171   H     0.67584   0.46893   0.20496   0.00000  Uiso   1.00
H172   H     0.80236   0.24100   0.11822   0.00000  Uiso   1.00
H173   H     0.74581   0.40346   0.47898   0.00000  Uiso   1.00
H174   H     0.67915   0.58754   0.18402   0.00000  Uiso   1.00
H175   H     0.94595   0.10691   0.00111   0.00000  Uiso   1.00
O176   O     0.99804   0.42424   0.55373   0.00000  Uiso   1.00
O177   O     0.91059   0.66573   0.16675   0.00000  Uiso   1.00
O178   O     0.26063   0.03515   0.92677   0.00000  Uiso   1.00
N179   N     0.15804   0.41494   0.45357   0.00000  Uiso   1.00
N180   N     0.09571   0.58705   0.17782   0.00000  Uiso   1.00
N181   N     0.34515   0.13771   0.00679   0.00000  Uiso   1.00
N182   N     0.87164   0.40519   0.45961   0.00000  Uiso   1.00
N183   N     0.80931   0.57730   0.18386   0.00000  Uiso   1.00
N184   N     0.05875   0.12796   0.01284   0.00000  Uiso   1.00
C185   C     0.40617   0.78625   0.16615   0.00000  Uiso   1.00
C186   C     0.38446   0.71711   0.10657   0.00000  Uiso   1.00
C187   C     0.52198   0.66462   0.06309   0.00000  Uiso   1.00
C188   C     0.47450   0.60535   0.01170   0.00000  Uiso   1.00
C189   C     0.46796   0.49897   0.92036   0.00000  Uiso   1.00
C190   C     0.28646   0.79235   0.22913   0.00000  Uiso   1.00
C191   C     0.34159   0.80315   0.28868   0.00000  Uiso   1.00
C192   C     0.21160   0.80723   0.34046   0.00000  Uiso   1.00
C193   C     0.05290   0.81773   0.43941   0.00000  Uiso   1.00
C194   C     0.32220   0.84110   0.15322   0.00000  Uiso   1.00
C195   C     0.40736   0.89289   0.14896   0.00000  Uiso   1.00
C196   C     0.30745   0.93802   0.13685   0.00000  Uiso   1.00
C197   C     0.20424   0.02419   0.11793   0.00000  Uiso   1.00
C198   C     0.07729   0.77432   0.15222   0.00000  Uiso   1.00
C199   C     0.20582   0.71063   0.09901   0.00000  Uiso   1.00
C200   C     0.15812   0.65142   0.04767   0.00000  Uiso   1.00
C201   C     0.29555   0.59886   0.00411   0.00000  Uiso   1.00
C202   C     0.10784   0.78588   0.22156   0.00000  Uiso   1.00
C203   C     0.97773   0.78995   0.27326   0.00000  Uiso   1.00
C204   C     0.03265   0.80074   0.33288   0.00000  Uiso   1.00
C205   C     0.14357   0.83462   0.14565   0.00000  Uiso   1.00
C206   C     0.04351   0.87969   0.13354   0.00000  Uiso   1.00
C207   C     0.12850   0.93153   0.12926   0.00000  Uiso   1.00
H208   H     0.54523   0.79129   0.17205   0.00000  Uiso   1.00
H209   H     0.66020   0.66965   0.06897   0.00000  Uiso   1.00
H210   H     0.47983   0.80817   0.29453   0.00000  Uiso   1.00
H211   H     0.54559   0.89788   0.15482   0.00000  Uiso   1.00
H212   H     0.70888   0.53193   0.95136   0.00000  Uiso   1.00
H213   H     0.32855   0.82401   0.42697   0.00000  Uiso   1.00
H214   H     0.46723   0.01321   0.13238   0.00000  Uiso   1.00
H215   H     0.93822   0.76928   0.14633   0.00000  Uiso   1.00
H216   H     0.01988   0.64643   0.04182   0.00000  Uiso   1.00
H217   H     0.83951   0.78494   0.26739   0.00000  Uiso   1.00
H218   H     0.90528   0.87466   0.12768   0.00000  Uiso   1.00
H219   H     0.18917   0.51307   0.92933   0.00000  Uiso   1.00
H220   H     0.80884   0.80517   0.40495   0.00000  Uiso   1.00
H221   H     0.94752   0.99435   0.11035   0.00000  Uiso   1.00
O222   O     0.51369   0.44207   0.87208   0.00000  Uiso   1.00
O223   O     0.01471   0.82530   0.49607   0.00000  Uiso   1.00
O224   O     0.19666   0.07351   0.10957   0.00000  Uiso   1.00
N225   N     0.57536   0.54435   0.96050   0.00000  Uiso   1.00
N226   N     0.21979   0.81743   0.40517   0.00000  Uiso   1.00
N227   N     0.34942   0.99432   0.12977   0.00000  Uiso   1.00
N228   N     0.29571   0.53421   0.94865   0.00000  Uiso   1.00
N229   N     0.94014   0.80728   0.39332   0.00000  Uiso   1.00
N230   N     0.06977   0.98417   0.11792   0.00000  Uiso   1.00
C231   C     0.59763   0.83722   0.62175   0.00000  Uiso   1.00
C232   C     0.52436   0.89674   0.61327   0.00000  Uiso   1.00
C233   C     0.62465   0.94243   0.60307   0.00000  Uiso   1.00
C234   C     0.53262   0.99334   0.59649   0.00000  Uiso   1.00
C235   C     0.44709   0.08498   0.58276   0.00000  Uiso   1.00
C236   C     0.53969   0.77264   0.56666   0.00000  Uiso   1.00
C237   C     0.65288   0.71398   0.51729   0.00000  Uiso   1.00
C238   C     0.57375   0.66042   0.47149   0.00000  Uiso   1.00
C239   C     0.51203   0.55937   0.38543   0.00000  Uiso   1.00
C240   C     0.49462   0.84858   0.68972   0.00000  Uiso   1.00
C241   C     0.56990   0.85375   0.74382   0.00000  Uiso   1.00
C242   C     0.45282   0.86411   0.80162   0.00000  Uiso   1.00
C243   C     0.32111   0.88096   0.90663   0.00000  Uiso   1.00
C244   C     0.25584   0.84640   0.62819   0.00000  Uiso   1.00
C245   C     0.33871   0.90172   0.61677   0.00000  Uiso   1.00
C246   C     0.24650   0.95258   0.61020   0.00000  Uiso   1.00
C247   C     0.34664   0.99834   0.60000   0.00000  Uiso   1.00
C248   C     0.35406   0.77762   0.57016   0.00000  Uiso   1.00
C249   C     0.27473   0.72413   0.52442   0.00000  Uiso   1.00
C250   C     0.38777   0.66541   0.47499   0.00000  Uiso   1.00
C251   C     0.30897   0.85356   0.69323   0.00000  Uiso   1.00
C252   C     0.19175   0.86391   0.75095   0.00000  Uiso   1.00
C253   C     0.26684   0.86910   0.80512   0.00000  Uiso   1.00
H254   H     0.74216   0.83334   0.61902   0.00000  Uiso   1.00
H255   H     0.76832   0.93855   0.60036   0.00000  Uiso   1.00
H256   H     0.79654   0.71014   0.51460   0.00000  Uiso   1.00
H257   H     0.71357   0.84989   0.74109   0.00000  Uiso   1.00
H258   H     0.71545   0.05738   0.58119   0.00000  Uiso   1.00
H259   H     0.77496   0.57575   0.40038   0.00000  Uiso   1.00
H260   H     0.60000   0.87044   0.87798   0.00000  Uiso   1.00
H261   H     0.11130   0.85028   0.63092   0.00000  Uiso   1.00
H262   H     0.10284   0.95643   0.61291   0.00000  Uiso   1.00
H263   H     0.13107   0.72801   0.52715   0.00000  Uiso   1.00
H264   H     0.04810   0.86776   0.75364   0.00000  Uiso   1.00
H265   H     0.17533   0.07189   0.59138   0.00000  Uiso   1.00
H266   H     0.23483   0.59025   0.41056   0.00000  Uiso   1.00
H267   H     0.05988   0.88494   0.88816   0.00000  Uiso   1.00
O268   O     0.45121   0.13414   0.57420   0.00000  Uiso   1.00
O269   O     0.52928   0.50225   0.33699   0.00000  Uiso   1.00
O270   O     0.29975   0.88888   0.96359   0.00000  Uiso   1.00
N271   N     0.58949   0.04624   0.58608   0.00000  Uiso   1.00
N272   N     0.64513   0.59594   0.41702   0.00000  Uiso   1.00
N273   N     0.48156   0.87143   0.86353   0.00000  Uiso   1.00
N274   N     0.29885   0.05404   0.59156   0.00000  Uiso   1.00
N275   N     0.35449   0.60375   0.42250   0.00000  Uiso   1.00
N276   N     0.19093   0.87924   0.86901   0.00000  Uiso   1.00
