data_job_05036
_audit_creation_date              2018-12-19
_audit_creation_method            'Materials Studio'
_symmetry_space_group_name_H-M    'P1'
_symmetry_Int_Tables_number       1
_symmetry_cell_setting            triclinic
loop_
_symmetry_equiv_pos_as_xyz
  x,y,z
_cell_length_a                    12.4463
_cell_length_b                    15.0941
_cell_length_c                    32.0755
_cell_angle_alpha                 90.0000
_cell_angle_beta                  111.7344
_cell_angle_gamma                 90.0000
loop_
_atom_site_label
_atom_site_type_symbol
_atom_site_fract_x
_atom_site_fract_y
_atom_site_fract_z
_atom_site_U_iso_or_equiv
_atom_site_adp_type
_atom_site_occupancy
C1     C     0.21956   0.47819   0.16942   0.00000  Uiso   1.00
C2     C     0.10712   0.43187   0.14132   0.00000  Uiso   1.00
C3     C     0.99679   0.46695   0.12970   0.00000  Uiso   1.00
C4     C     0.90510   0.41407   0.10380   0.00000  Uiso   1.00
C5     C     0.72775   0.35504   0.06227   0.00000  Uiso   1.00
C6     C     0.28056   0.41655   0.20877   0.00000  Uiso   1.00
C7     C     0.31606   0.43877   0.25387   0.00000  Uiso   1.00
C8     C     0.37038   0.37300   0.28475   0.00000  Uiso   1.00
C9     C     0.46238   0.29022   0.34795   0.00000  Uiso   1.00
C10    C     0.29384   0.47903   0.14082   0.00000  Uiso   1.00
C11    C     0.34055   0.55377   0.12877   0.00000  Uiso   1.00
C12    C     0.40608   0.54059   0.10245   0.00000  Uiso   1.00
C13    C     0.51870   0.55481   0.06013   0.00000  Uiso   1.00
C14    C     0.25291   0.32189   0.14409   0.00000  Uiso   1.00
C15    C     0.12524   0.34697   0.12756   0.00000  Uiso   1.00
C16    C     0.03369   0.29403   0.10167   0.00000  Uiso   1.00
C17    C     0.92324   0.32902   0.09001   0.00000  Uiso   1.00
C18    C     0.29867   0.33166   0.19502   0.00000  Uiso   1.00
C19    C     0.35296   0.26585   0.22584   0.00000  Uiso   1.00
C20    C     0.38853   0.28795   0.27097   0.00000  Uiso   1.00
C21    C     0.31196   0.39413   0.12706   0.00000  Uiso   1.00
C22    C     0.37744   0.38084   0.10075   0.00000  Uiso   1.00
C23    C     0.42423   0.45554   0.08866   0.00000  Uiso   1.00
H24    H     0.20546   0.54428   0.18014   0.00000  Uiso   1.00
H25    H     0.98281   0.53265   0.14035   0.00000  Uiso   1.00
H26    H     0.30204   0.50447   0.26450   0.00000  Uiso   1.00
H27    H     0.32652   0.61945   0.13943   0.00000  Uiso   1.00
H28    H     0.74395   0.48230   0.09019   0.00000  Uiso   1.00
H29    H     0.41710   0.42291   0.35197   0.00000  Uiso   1.00
H30    H     0.46871   0.66536   0.08822   0.00000  Uiso   1.00
H31    H     0.26701   0.25579   0.13338   0.00000  Uiso   1.00
H32    H     0.04773   0.22833   0.09103   0.00000  Uiso   1.00
H33    H     0.36696   0.20016   0.21518   0.00000  Uiso   1.00
H34    H     0.39143   0.31514   0.09011   0.00000  Uiso   1.00
H35    H     0.79664   0.23530   0.05016   0.00000  Uiso   1.00
H36    H     0.46980   0.17591   0.31194   0.00000  Uiso   1.00
H37    H     0.52140   0.41836   0.04819   0.00000  Uiso   1.00
O38    O     0.62493   0.34593   0.04318   0.00000  Uiso   1.00
O39    O     0.50810   0.26802   0.38661   0.00000  Uiso   1.00
O40    O     0.57581   0.58611   0.04059   0.00000  Uiso   1.00
N41    N     0.78644   0.42794   0.08658   0.00000  Uiso   1.00
N42    N     0.41578   0.37241   0.33132   0.00000  Uiso   1.00
N43    N     0.46406   0.59908   0.08475   0.00000  Uiso   1.00
N44    N     0.81479   0.29504   0.06504   0.00000  Uiso   1.00
N45    N     0.44414   0.23951   0.30978   0.00000  Uiso   1.00
N46    N     0.49241   0.46618   0.06321   0.00000  Uiso   1.00
C47    C     0.85073   0.95433   0.12580   0.00000  Uiso   1.00
C48    C     0.73826   0.91711   0.09203   0.00000  Uiso   1.00
C49    C     0.63092   0.95810   0.07827   0.00000  Uiso   1.00
C50    C     0.53862   0.91321   0.04711   0.00000  Uiso   1.00
C51    C     0.36174   0.86801   0.99724   0.00000  Uiso   1.00
C52    C     0.89660   0.88445   0.16248   0.00000  Uiso   1.00
C53    C     0.92241   0.89800   0.20796   0.00000  Uiso   1.00
C54    C     0.96342   0.82561   0.23610   0.00000  Uiso   1.00
C55    C     0.03245   0.72973   0.29562   0.00000  Uiso   1.00
C56    C     0.93581   0.95683   0.10172   0.00000  Uiso   1.00
C57    C     0.99461   0.03122   0.09611   0.00000  Uiso   1.00
C58    C     0.06866   0.01977   0.07310   0.00000  Uiso   1.00
C59    C     0.19857   0.03626   0.03827   0.00000  Uiso   1.00
C60    C     0.87770   0.80171   0.09491   0.00000  Uiso   1.00
C61    C     0.75291   0.83421   0.07525   0.00000  Uiso   1.00
C62    C     0.66075   0.78925   0.04410   0.00000  Uiso   1.00
C63    C     0.55329   0.83017   0.03030   0.00000  Uiso   1.00
C64    C     0.91125   0.80156   0.14571   0.00000  Uiso   1.00
C65    C     0.95225   0.72914   0.17379   0.00000  Uiso   1.00
C66    C     0.97810   0.74257   0.21930   0.00000  Uiso   1.00
C67    C     0.95046   0.87393   0.08493   0.00000  Uiso   1.00
C68    C     0.02444   0.86236   0.06193   0.00000  Uiso   1.00
C69    C     0.08333   0.93672   0.05629   0.00000  Uiso   1.00
H70    H     0.83933   0.01886   0.13886   0.00000  Uiso   1.00
H71    H     0.61961   0.02225   0.09127   0.00000  Uiso   1.00
H72    H     0.91107   0.96215   0.22094   0.00000  Uiso   1.00
H73    H     0.98325   0.09536   0.10910   0.00000  Uiso   1.00
H74    H     0.38247   0.98944   0.03112   0.00000  Uiso   1.00
H75    H     0.99706   0.86273   0.30453   0.00000  Uiso   1.00
H76    H     0.14928   0.14361   0.06870   0.00000  Uiso   1.00
H77    H     0.88911   0.73717   0.08184   0.00000  Uiso   1.00
H78    H     0.67212   0.72510   0.03112   0.00000  Uiso   1.00
H79    H     0.96358   0.66500   0.16079   0.00000  Uiso   1.00
H80    H     0.03576   0.79820   0.04895   0.00000  Uiso   1.00
H81    H     0.42508   0.74825   0.98230   0.00000  Uiso   1.00
H82    H     0.03968   0.62154   0.25571   0.00000  Uiso   1.00
H83    H     0.19189   0.90243   0.01988   0.00000  Uiso   1.00
O84    O     0.26013   0.86598   0.97438   0.00000  Uiso   1.00
O85    O     0.06647   0.69974   0.33309   0.00000  Uiso   1.00
O86    O     0.26616   0.06825   0.02369   0.00000  Uiso   1.00
N87    N     0.42228   0.93434   0.02658   0.00000  Uiso   1.00
N88    N     0.99687   0.81587   0.28221   0.00000  Uiso   1.00
N89    N     0.13920   0.07847   0.06174   0.00000  Uiso   1.00
N90    N     0.44521   0.80456   0.00031   0.00000  Uiso   1.00
N91    N     0.01980   0.68609   0.25594   0.00000  Uiso   1.00
N92    N     0.16213   0.94869   0.03547   0.00000  Uiso   1.00
C93    C     0.78044   0.97819   0.33058   0.00000  Uiso   1.00
C94    C     0.89288   0.93187   0.35868   0.00000  Uiso   1.00
C95    C     0.00321   0.96695   0.37030   0.00000  Uiso   1.00
C96    C     0.09490   0.91407   0.39620   0.00000  Uiso   1.00
C97    C     0.27225   0.85504   0.43773   0.00000  Uiso   1.00
C98    C     0.71944   0.91655   0.29123   0.00000  Uiso   1.00
C99    C     0.68394   0.93877   0.24613   0.00000  Uiso   1.00
C100   C     0.62962   0.87300   0.21525   0.00000  Uiso   1.00
C101   C     0.53762   0.79022   0.15205   0.00000  Uiso   1.00
C102   C     0.70616   0.97903   0.35918   0.00000  Uiso   1.00
C103   C     0.65945   0.05377   0.37123   0.00000  Uiso   1.00
C104   C     0.59392   0.04059   0.39755   0.00000  Uiso   1.00
C105   C     0.48130   0.05481   0.43987   0.00000  Uiso   1.00
C106   C     0.74709   0.82189   0.35591   0.00000  Uiso   1.00
C107   C     0.87476   0.84697   0.37244   0.00000  Uiso   1.00
C108   C     0.96631   0.79403   0.39833   0.00000  Uiso   1.00
C109   C     0.07676   0.82902   0.40999   0.00000  Uiso   1.00
C110   C     0.70133   0.83166   0.30498   0.00000  Uiso   1.00
C111   C     0.64704   0.76585   0.27416   0.00000  Uiso   1.00
C112   C     0.61147   0.78795   0.22903   0.00000  Uiso   1.00
C113   C     0.68804   0.89413   0.37294   0.00000  Uiso   1.00
C114   C     0.62256   0.88084   0.39925   0.00000  Uiso   1.00
C115   C     0.57577   0.95554   0.41134   0.00000  Uiso   1.00
H116   H     0.79454   0.04428   0.31986   0.00000  Uiso   1.00
H117   H     0.01719   0.03265   0.35965   0.00000  Uiso   1.00
H118   H     0.69796   0.00447   0.23550   0.00000  Uiso   1.00
H119   H     0.67348   0.11945   0.36057   0.00000  Uiso   1.00
H120   H     0.25605   0.98230   0.40981   0.00000  Uiso   1.00
H121   H     0.58290   0.92291   0.14803   0.00000  Uiso   1.00
H122   H     0.53129   0.16536   0.41178   0.00000  Uiso   1.00
H123   H     0.73299   0.75579   0.36662   0.00000  Uiso   1.00
H124   H     0.95227   0.72833   0.40897   0.00000  Uiso   1.00
H125   H     0.63304   0.70016   0.28482   0.00000  Uiso   1.00
H126   H     0.60857   0.81514   0.40989   0.00000  Uiso   1.00
H127   H     0.20336   0.73530   0.44984   0.00000  Uiso   1.00
H128   H     0.53020   0.67591   0.18806   0.00000  Uiso   1.00
H129   H     0.47860   0.91836   0.45181   0.00000  Uiso   1.00
O130   O     0.37507   0.84593   0.45682   0.00000  Uiso   1.00
O131   O     0.49190   0.76802   0.11339   0.00000  Uiso   1.00
O132   O     0.42419   0.08611   0.45941   0.00000  Uiso   1.00
N133   N     0.21356   0.92794   0.41342   0.00000  Uiso   1.00
N134   N     0.58422   0.87241   0.16868   0.00000  Uiso   1.00
N135   N     0.53594   0.09908   0.41525   0.00000  Uiso   1.00
N136   N     0.18521   0.79504   0.43496   0.00000  Uiso   1.00
N137   N     0.55586   0.73951   0.19022   0.00000  Uiso   1.00
N138   N     0.50759   0.96618   0.43679   0.00000  Uiso   1.00
C139   C     0.14927   0.45433   0.37420   0.00000  Uiso   1.00
C140   C     0.26174   0.41711   0.40797   0.00000  Uiso   1.00
C141   C     0.36908   0.45810   0.42173   0.00000  Uiso   1.00
C142   C     0.46138   0.41321   0.45289   0.00000  Uiso   1.00
C143   C     0.63826   0.36801   0.50276   0.00000  Uiso   1.00
C144   C     0.10340   0.38445   0.33752   0.00000  Uiso   1.00
C145   C     0.07759   0.39800   0.29204   0.00000  Uiso   1.00
C146   C     0.03658   0.32561   0.26390   0.00000  Uiso   1.00
C147   C     0.96755   0.22973   0.20438   0.00000  Uiso   1.00
C148   C     0.06419   0.45683   0.39828   0.00000  Uiso   1.00
C149   C     0.00539   0.53122   0.40389   0.00000  Uiso   1.00
C150   C     0.93134   0.51977   0.42690   0.00000  Uiso   1.00
C151   C     0.80143   0.53626   0.46173   0.00000  Uiso   1.00
C152   C     0.12230   0.30171   0.40509   0.00000  Uiso   1.00
C153   C     0.24709   0.33421   0.42475   0.00000  Uiso   1.00
C154   C     0.33925   0.28925   0.45590   0.00000  Uiso   1.00
C155   C     0.44671   0.33017   0.46970   0.00000  Uiso   1.00
C156   C     0.08875   0.30156   0.35429   0.00000  Uiso   1.00
C157   C     0.04775   0.22914   0.32621   0.00000  Uiso   1.00
C158   C     0.02190   0.24257   0.28070   0.00000  Uiso   1.00
C159   C     0.04954   0.37393   0.41507   0.00000  Uiso   1.00
C160   C     0.97556   0.36236   0.43807   0.00000  Uiso   1.00
C161   C     0.91667   0.43672   0.44371   0.00000  Uiso   1.00
H162   H     0.16067   0.51886   0.36114   0.00000  Uiso   1.00
H163   H     0.38039   0.52225   0.40873   0.00000  Uiso   1.00
H164   H     0.08893   0.46215   0.27906   0.00000  Uiso   1.00
H165   H     0.01675   0.59536   0.39090   0.00000  Uiso   1.00
H166   H     0.61753   0.48944   0.46888   0.00000  Uiso   1.00
H167   H     0.00294   0.36273   0.19547   0.00000  Uiso   1.00
H168   H     0.85072   0.64361   0.43130   0.00000  Uiso   1.00
H169   H     0.11089   0.23717   0.41816   0.00000  Uiso   1.00
H170   H     0.32788   0.22510   0.46888   0.00000  Uiso   1.00
H171   H     0.03642   0.16500   0.33921   0.00000  Uiso   1.00
H172   H     0.96424   0.29820   0.45105   0.00000  Uiso   1.00
H173   H     0.57492   0.24825   0.51770   0.00000  Uiso   1.00
H174   H     0.96032   0.12154   0.24429   0.00000  Uiso   1.00
H175   H     0.80811   0.40243   0.48012   0.00000  Uiso   1.00
O176   O     0.73987   0.36598   0.52562   0.00000  Uiso   1.00
O177   O     0.93353   0.19974   0.16691   0.00000  Uiso   1.00
O178   O     0.73384   0.56825   0.47631   0.00000  Uiso   1.00
N179   N     0.57772   0.43434   0.47342   0.00000  Uiso   1.00
N180   N     0.00313   0.31587   0.21779   0.00000  Uiso   1.00
N181   N     0.86080   0.57847   0.43826   0.00000  Uiso   1.00
N182   N     0.55479   0.30456   0.49969   0.00000  Uiso   1.00
N183   N     0.98020   0.18609   0.24406   0.00000  Uiso   1.00
N184   N     0.83787   0.44869   0.46453   0.00000  Uiso   1.00
C185   C     0.78044   0.52181   0.83058   0.00000  Uiso   1.00
C186   C     0.89288   0.56813   0.85868   0.00000  Uiso   1.00
C187   C     0.00321   0.53305   0.87030   0.00000  Uiso   1.00
C188   C     0.09490   0.58593   0.89620   0.00000  Uiso   1.00
C189   C     0.27225   0.64496   0.93773   0.00000  Uiso   1.00
C190   C     0.71944   0.58345   0.79123   0.00000  Uiso   1.00
C191   C     0.68394   0.56123   0.74613   0.00000  Uiso   1.00
C192   C     0.62962   0.62700   0.71525   0.00000  Uiso   1.00
C193   C     0.53762   0.70978   0.65205   0.00000  Uiso   1.00
C194   C     0.70616   0.52097   0.85918   0.00000  Uiso   1.00
C195   C     0.65945   0.44623   0.87123   0.00000  Uiso   1.00
C196   C     0.59392   0.45941   0.89755   0.00000  Uiso   1.00
C197   C     0.48130   0.44519   0.93987   0.00000  Uiso   1.00
C198   C     0.74709   0.67811   0.85591   0.00000  Uiso   1.00
C199   C     0.87476   0.65303   0.87244   0.00000  Uiso   1.00
C200   C     0.96631   0.70597   0.89833   0.00000  Uiso   1.00
C201   C     0.07676   0.67098   0.90999   0.00000  Uiso   1.00
C202   C     0.70133   0.66834   0.80498   0.00000  Uiso   1.00
C203   C     0.64704   0.73415   0.77416   0.00000  Uiso   1.00
C204   C     0.61147   0.71205   0.72903   0.00000  Uiso   1.00
C205   C     0.68804   0.60587   0.87294   0.00000  Uiso   1.00
C206   C     0.62256   0.61916   0.89925   0.00000  Uiso   1.00
C207   C     0.57577   0.54446   0.91134   0.00000  Uiso   1.00
H208   H     0.79454   0.45572   0.81986   0.00000  Uiso   1.00
H209   H     0.01719   0.46735   0.85965   0.00000  Uiso   1.00
H210   H     0.69796   0.49553   0.73550   0.00000  Uiso   1.00
H211   H     0.67348   0.38055   0.86057   0.00000  Uiso   1.00
H212   H     0.25605   0.51770   0.90981   0.00000  Uiso   1.00
H213   H     0.58290   0.57709   0.64803   0.00000  Uiso   1.00
H214   H     0.53129   0.33464   0.91178   0.00000  Uiso   1.00
H215   H     0.73299   0.74421   0.86662   0.00000  Uiso   1.00
H216   H     0.95227   0.77167   0.90897   0.00000  Uiso   1.00
H217   H     0.63304   0.79984   0.78482   0.00000  Uiso   1.00
H218   H     0.60857   0.68486   0.90989   0.00000  Uiso   1.00
H219   H     0.20336   0.76470   0.94984   0.00000  Uiso   1.00
H220   H     0.53020   0.82409   0.68806   0.00000  Uiso   1.00
H221   H     0.47860   0.58164   0.95181   0.00000  Uiso   1.00
O222   O     0.37507   0.65407   0.95682   0.00000  Uiso   1.00
O223   O     0.49190   0.73198   0.61339   0.00000  Uiso   1.00
O224   O     0.42419   0.41389   0.95941   0.00000  Uiso   1.00
N225   N     0.21356   0.57206   0.91342   0.00000  Uiso   1.00
N226   N     0.58422   0.62759   0.66868   0.00000  Uiso   1.00
N227   N     0.53594   0.40092   0.91525   0.00000  Uiso   1.00
N228   N     0.18521   0.70496   0.93496   0.00000  Uiso   1.00
N229   N     0.55586   0.76049   0.69022   0.00000  Uiso   1.00
N230   N     0.50759   0.53382   0.93679   0.00000  Uiso   1.00
C231   C     0.14927   0.04567   0.87420   0.00000  Uiso   1.00
C232   C     0.26174   0.08289   0.90797   0.00000  Uiso   1.00
C233   C     0.36908   0.04190   0.92173   0.00000  Uiso   1.00
C234   C     0.46138   0.08679   0.95289   0.00000  Uiso   1.00
C235   C     0.63826   0.13199   0.00276   0.00000  Uiso   1.00
C236   C     0.10340   0.11555   0.83752   0.00000  Uiso   1.00
C237   C     0.07759   0.10200   0.79204   0.00000  Uiso   1.00
C238   C     0.03658   0.17439   0.76390   0.00000  Uiso   1.00
C239   C     0.96755   0.27027   0.70438   0.00000  Uiso   1.00
C240   C     0.06419   0.04317   0.89828   0.00000  Uiso   1.00
C241   C     0.00539   0.96878   0.90389   0.00000  Uiso   1.00
C242   C     0.93134   0.98023   0.92690   0.00000  Uiso   1.00
C243   C     0.80143   0.96374   0.96173   0.00000  Uiso   1.00
C244   C     0.12230   0.19829   0.90509   0.00000  Uiso   1.00
C245   C     0.24709   0.16579   0.92475   0.00000  Uiso   1.00
C246   C     0.33925   0.21075   0.95590   0.00000  Uiso   1.00
C247   C     0.44671   0.16983   0.96970   0.00000  Uiso   1.00
C248   C     0.08875   0.19844   0.85429   0.00000  Uiso   1.00
C249   C     0.04775   0.27086   0.82621   0.00000  Uiso   1.00
C250   C     0.02190   0.25743   0.78070   0.00000  Uiso   1.00
C251   C     0.04954   0.12607   0.91507   0.00000  Uiso   1.00
C252   C     0.97556   0.13764   0.93807   0.00000  Uiso   1.00
C253   C     0.91667   0.06328   0.94371   0.00000  Uiso   1.00
H254   H     0.16067   0.98114   0.86114   0.00000  Uiso   1.00
H255   H     0.38039   0.97775   0.90873   0.00000  Uiso   1.00
H256   H     0.08893   0.03785   0.77906   0.00000  Uiso   1.00
H257   H     0.01675   0.90464   0.89090   0.00000  Uiso   1.00
H258   H     0.61753   0.01056   0.96888   0.00000  Uiso   1.00
H259   H     0.00294   0.13727   0.69547   0.00000  Uiso   1.00
H260   H     0.85072   0.85639   0.93130   0.00000  Uiso   1.00
H261   H     0.11089   0.26283   0.91816   0.00000  Uiso   1.00
H262   H     0.32788   0.27490   0.96888   0.00000  Uiso   1.00
H263   H     0.03642   0.33500   0.83921   0.00000  Uiso   1.00
H264   H     0.96424   0.20180   0.95105   0.00000  Uiso   1.00
H265   H     0.57492   0.25175   0.01770   0.00000  Uiso   1.00
H266   H     0.96032   0.37846   0.74429   0.00000  Uiso   1.00
H267   H     0.80811   0.09757   0.98012   0.00000  Uiso   1.00
O268   O     0.73987   0.13402   0.02562   0.00000  Uiso   1.00
O269   O     0.93353   0.30026   0.66691   0.00000  Uiso   1.00
O270   O     0.73384   0.93175   0.97631   0.00000  Uiso   1.00
N271   N     0.57772   0.06566   0.97342   0.00000  Uiso   1.00
N272   N     0.00313   0.18413   0.71779   0.00000  Uiso   1.00
N273   N     0.86080   0.92153   0.93826   0.00000  Uiso   1.00
N274   N     0.55479   0.19544   0.99969   0.00000  Uiso   1.00
N275   N     0.98020   0.31391   0.74406   0.00000  Uiso   1.00
N276   N     0.83787   0.05131   0.96453   0.00000  Uiso   1.00
C277   C     0.21956   0.02181   0.66942   0.00000  Uiso   1.00
C278   C     0.10712   0.06813   0.64132   0.00000  Uiso   1.00
C279   C     0.99679   0.03305   0.62970   0.00000  Uiso   1.00
C280   C     0.90510   0.08593   0.60380   0.00000  Uiso   1.00
C281   C     0.72775   0.14496   0.56227   0.00000  Uiso   1.00
C282   C     0.28056   0.08345   0.70877   0.00000  Uiso   1.00
C283   C     0.31606   0.06123   0.75387   0.00000  Uiso   1.00
C284   C     0.37038   0.12700   0.78475   0.00000  Uiso   1.00
C285   C     0.46238   0.20978   0.84795   0.00000  Uiso   1.00
C286   C     0.29384   0.02097   0.64082   0.00000  Uiso   1.00
C287   C     0.34055   0.94623   0.62877   0.00000  Uiso   1.00
C288   C     0.40608   0.95941   0.60245   0.00000  Uiso   1.00
C289   C     0.51870   0.94519   0.56013   0.00000  Uiso   1.00
C290   C     0.25291   0.17811   0.64409   0.00000  Uiso   1.00
C291   C     0.12524   0.15303   0.62756   0.00000  Uiso   1.00
C292   C     0.03369   0.20597   0.60167   0.00000  Uiso   1.00
C293   C     0.92324   0.17098   0.59001   0.00000  Uiso   1.00
C294   C     0.29867   0.16834   0.69502   0.00000  Uiso   1.00
C295   C     0.35296   0.23415   0.72584   0.00000  Uiso   1.00
C296   C     0.38853   0.21205   0.77097   0.00000  Uiso   1.00
C297   C     0.31196   0.10587   0.62706   0.00000  Uiso   1.00
C298   C     0.37744   0.11916   0.60075   0.00000  Uiso   1.00
C299   C     0.42423   0.04446   0.58866   0.00000  Uiso   1.00
H300   H     0.20546   0.95572   0.68014   0.00000  Uiso   1.00
H301   H     0.98281   0.96735   0.64035   0.00000  Uiso   1.00
H302   H     0.30204   0.99553   0.76450   0.00000  Uiso   1.00
H303   H     0.32652   0.88055   0.63943   0.00000  Uiso   1.00
H304   H     0.74395   0.01770   0.59019   0.00000  Uiso   1.00
H305   H     0.41710   0.07709   0.85197   0.00000  Uiso   1.00
H306   H     0.46871   0.83464   0.58822   0.00000  Uiso   1.00
H307   H     0.26701   0.24421   0.63338   0.00000  Uiso   1.00
H308   H     0.04773   0.27167   0.59103   0.00000  Uiso   1.00
H309   H     0.36696   0.29984   0.71518   0.00000  Uiso   1.00
H310   H     0.39143   0.18486   0.59011   0.00000  Uiso   1.00
H311   H     0.79664   0.26470   0.55016   0.00000  Uiso   1.00
H312   H     0.46980   0.32409   0.81194   0.00000  Uiso   1.00
H313   H     0.52140   0.08164   0.54819   0.00000  Uiso   1.00
O314   O     0.62493   0.15407   0.54318   0.00000  Uiso   1.00
O315   O     0.50810   0.23198   0.88661   0.00000  Uiso   1.00
O316   O     0.57581   0.91389   0.54059   0.00000  Uiso   1.00
N317   N     0.78644   0.07206   0.58658   0.00000  Uiso   1.00
N318   N     0.41578   0.12759   0.83132   0.00000  Uiso   1.00
N319   N     0.46406   0.90092   0.58475   0.00000  Uiso   1.00
N320   N     0.81479   0.20496   0.56504   0.00000  Uiso   1.00
N321   N     0.44414   0.26049   0.80978   0.00000  Uiso   1.00
N322   N     0.49241   0.03382   0.56321   0.00000  Uiso   1.00
C323   C     0.85073   0.54567   0.62580   0.00000  Uiso   1.00
C324   C     0.73826   0.58289   0.59203   0.00000  Uiso   1.00
C325   C     0.63092   0.54190   0.57827   0.00000  Uiso   1.00
C326   C     0.53862   0.58679   0.54711   0.00000  Uiso   1.00
C327   C     0.36174   0.63199   0.49724   0.00000  Uiso   1.00
C328   C     0.89660   0.61555   0.66248   0.00000  Uiso   1.00
C329   C     0.92241   0.60200   0.70796   0.00000  Uiso   1.00
C330   C     0.96342   0.67439   0.73610   0.00000  Uiso   1.00
C331   C     0.03245   0.77027   0.79562   0.00000  Uiso   1.00
C332   C     0.93581   0.54317   0.60172   0.00000  Uiso   1.00
C333   C     0.99461   0.46878   0.59611   0.00000  Uiso   1.00
C334   C     0.06866   0.48023   0.57310   0.00000  Uiso   1.00
C335   C     0.19857   0.46374   0.53827   0.00000  Uiso   1.00
C336   C     0.87770   0.69829   0.59491   0.00000  Uiso   1.00
C337   C     0.75291   0.66579   0.57525   0.00000  Uiso   1.00
C338   C     0.66075   0.71075   0.54410   0.00000  Uiso   1.00
C339   C     0.55329   0.66983   0.53030   0.00000  Uiso   1.00
C340   C     0.91125   0.69844   0.64571   0.00000  Uiso   1.00
C341   C     0.95225   0.77086   0.67379   0.00000  Uiso   1.00
C342   C     0.97810   0.75743   0.71930   0.00000  Uiso   1.00
C343   C     0.95046   0.62607   0.58493   0.00000  Uiso   1.00
C344   C     0.02444   0.63764   0.56193   0.00000  Uiso   1.00
C345   C     0.08333   0.56328   0.55629   0.00000  Uiso   1.00
H346   H     0.83933   0.48114   0.63886   0.00000  Uiso   1.00
H347   H     0.61961   0.47775   0.59127   0.00000  Uiso   1.00
H348   H     0.91107   0.53785   0.72094   0.00000  Uiso   1.00
H349   H     0.98325   0.40464   0.60910   0.00000  Uiso   1.00
H350   H     0.38247   0.51056   0.53112   0.00000  Uiso   1.00
H351   H     0.99706   0.63727   0.80453   0.00000  Uiso   1.00
H352   H     0.14928   0.35639   0.56870   0.00000  Uiso   1.00
H353   H     0.88911   0.76283   0.58184   0.00000  Uiso   1.00
H354   H     0.67212   0.77490   0.53112   0.00000  Uiso   1.00
H355   H     0.96358   0.83500   0.66079   0.00000  Uiso   1.00
H356   H     0.03576   0.70180   0.54895   0.00000  Uiso   1.00
H357   H     0.42508   0.75175   0.48230   0.00000  Uiso   1.00
H358   H     0.03968   0.87846   0.75571   0.00000  Uiso   1.00
H359   H     0.19189   0.59757   0.51988   0.00000  Uiso   1.00
O360   O     0.26013   0.63402   0.47438   0.00000  Uiso   1.00
O361   O     0.06647   0.80026   0.83309   0.00000  Uiso   1.00
O362   O     0.26616   0.43175   0.52369   0.00000  Uiso   1.00
N363   N     0.42228   0.56566   0.52658   0.00000  Uiso   1.00
N364   N     0.99687   0.68413   0.78221   0.00000  Uiso   1.00
N365   N     0.13920   0.42153   0.56174   0.00000  Uiso   1.00
N366   N     0.44521   0.69544   0.50031   0.00000  Uiso   1.00
N367   N     0.01980   0.81391   0.75594   0.00000  Uiso   1.00
N368   N     0.16213   0.55131   0.53547   0.00000  Uiso   1.00
