data_job_00819
_audit_creation_date              2018-12-19
_audit_creation_method            'Materials Studio'
_symmetry_space_group_name_H-M    'P1'
_symmetry_Int_Tables_number       1
_symmetry_cell_setting            triclinic
loop_
_symmetry_equiv_pos_as_xyz
  x,y,z
_cell_length_a                    16.1383
_cell_length_b                    9.5796
_cell_length_c                    31.9226
_cell_angle_alpha                 90.0000
_cell_angle_beta                  90.0000
_cell_angle_gamma                 90.0000
loop_
_atom_site_label
_atom_site_type_symbol
_atom_site_fract_x
_atom_site_fract_y
_atom_site_fract_z
_atom_site_U_iso_or_equiv
_atom_site_adp_type
_atom_site_occupancy
C1     C     0.47281   0.68035   0.85228   0.00000  Uiso   1.00
C2     C     0.42967   0.64773   0.89364   0.00000  Uiso   1.00
C3     C     0.40209   0.51720   0.90634   0.00000  Uiso   1.00
C4     C     0.36414   0.50907   0.94529   0.00000  Uiso   1.00
C5     C     0.29864   0.44044   0.00565   0.00000  Uiso   1.00
C6     C     0.42111   0.79382   0.83132   0.00000  Uiso   1.00
C7     C     0.38634   0.78613   0.79162   0.00000  Uiso   1.00
C8     C     0.34118   0.90099   0.77811   0.00000  Uiso   1.00
C9     C     0.26243   0.05921   0.74171   0.00000  Uiso   1.00
C10    C     0.55505   0.74867   0.86381   0.00000  Uiso   1.00
C11    C     0.63290   0.70304   0.85142   0.00000  Uiso   1.00
C12    C     0.70051   0.77991   0.86525   0.00000  Uiso   1.00
C13    C     0.82973   0.86803   0.87929   0.00000  Uiso   1.00
C14    C     0.45444   0.89801   0.89887   0.00000  Uiso   1.00
C15    C     0.41969   0.76595   0.91894   0.00000  Uiso   1.00
C16    C     0.38177   0.75801   0.95789   0.00000  Uiso   1.00
C17    C     0.35414   0.62750   0.97065   0.00000  Uiso   1.00
C18    C     0.41113   0.91204   0.85662   0.00000  Uiso   1.00
C19    C     0.36601   0.02694   0.84317   0.00000  Uiso   1.00
C20    C     0.33118   0.01943   0.80346   0.00000  Uiso   1.00
C21    C     0.54507   0.86689   0.88911   0.00000  Uiso   1.00
C22    C     0.61257   0.94385   0.90297   0.00000  Uiso   1.00
C23    C     0.69051   0.89835   0.89061   0.00000  Uiso   1.00
H24    H     0.48057   0.58832   0.83257   0.00000  Uiso   1.00
H25    H     0.40982   0.42574   0.88674   0.00000  Uiso   1.00
H26    H     0.39408   0.69463   0.77204   0.00000  Uiso   1.00
H27    H     0.64060   0.61155   0.83183   0.00000  Uiso   1.00
H28    H     0.32695   0.29764   0.95795   0.00000  Uiso   1.00
H29    H     0.29378   0.86463   0.71609   0.00000  Uiso   1.00
H30    H     0.81362   0.68945   0.84217   0.00000  Uiso   1.00
H31    H     0.44667   0.99006   0.91857   0.00000  Uiso   1.00
H32    H     0.37406   0.84952   0.97746   0.00000  Uiso   1.00
H33    H     0.35831   0.11841   0.86276   0.00000  Uiso   1.00
H34    H     0.60483   0.03533   0.92255   0.00000  Uiso   1.00
H35    H     0.29792   0.64160   0.03159   0.00000  Uiso   1.00
H36    H     0.26475   0.20860   0.78972   0.00000  Uiso   1.00
H37    H     0.78458   0.03341   0.91580   0.00000  Uiso   1.00
O38    O     0.26526   0.36993   0.03195   0.00000  Uiso   1.00
O39    O     0.22175   0.11381   0.71464   0.00000  Uiso   1.00
O40    O     0.90376   0.88397   0.88005   0.00000  Uiso   1.00
N41    N     0.33010   0.39787   0.96721   0.00000  Uiso   1.00
N42    N     0.29907   0.92797   0.74108   0.00000  Uiso   1.00
N43    N     0.78508   0.76421   0.85895   0.00000  Uiso   1.00
N44    N     0.31448   0.58295   0.00683   0.00000  Uiso   1.00
N45    N     0.28345   0.11305   0.78070   0.00000  Uiso   1.00
N46    N     0.76945   0.94929   0.89857   0.00000  Uiso   1.00
C47    C     0.02719   0.31965   0.35228   0.00000  Uiso   1.00
C48    C     0.07033   0.35227   0.39364   0.00000  Uiso   1.00
C49    C     0.09791   0.48280   0.40634   0.00000  Uiso   1.00
C50    C     0.13586   0.49093   0.44529   0.00000  Uiso   1.00
C51    C     0.20136   0.55956   0.50565   0.00000  Uiso   1.00
C52    C     0.07889   0.20618   0.33132   0.00000  Uiso   1.00
C53    C     0.11366   0.21387   0.29162   0.00000  Uiso   1.00
C54    C     0.15882   0.09901   0.27811   0.00000  Uiso   1.00
C55    C     0.23757   0.94079   0.24171   0.00000  Uiso   1.00
C56    C     0.94495   0.25133   0.36381   0.00000  Uiso   1.00
C57    C     0.86710   0.29696   0.35142   0.00000  Uiso   1.00
C58    C     0.79949   0.22009   0.36525   0.00000  Uiso   1.00
C59    C     0.67027   0.13197   0.37929   0.00000  Uiso   1.00
C60    C     0.04556   0.10199   0.39887   0.00000  Uiso   1.00
C61    C     0.08031   0.23405   0.41894   0.00000  Uiso   1.00
C62    C     0.11823   0.24199   0.45789   0.00000  Uiso   1.00
C63    C     0.14586   0.37250   0.47065   0.00000  Uiso   1.00
C64    C     0.08887   0.08796   0.35662   0.00000  Uiso   1.00
C65    C     0.13399   0.97306   0.34317   0.00000  Uiso   1.00
C66    C     0.16882   0.98057   0.30346   0.00000  Uiso   1.00
C67    C     0.95493   0.13311   0.38911   0.00000  Uiso   1.00
C68    C     0.88743   0.05615   0.40297   0.00000  Uiso   1.00
C69    C     0.80949   0.10165   0.39061   0.00000  Uiso   1.00
H70    H     0.01943   0.41168   0.33257   0.00000  Uiso   1.00
H71    H     0.09018   0.57426   0.38674   0.00000  Uiso   1.00
H72    H     0.10592   0.30537   0.27204   0.00000  Uiso   1.00
H73    H     0.85940   0.38845   0.33183   0.00000  Uiso   1.00
H74    H     0.17305   0.70236   0.45795   0.00000  Uiso   1.00
H75    H     0.20622   0.13537   0.21609   0.00000  Uiso   1.00
H76    H     0.68638   0.31055   0.34217   0.00000  Uiso   1.00
H77    H     0.05333   0.00994   0.41857   0.00000  Uiso   1.00
H78    H     0.12594   0.15048   0.47746   0.00000  Uiso   1.00
H79    H     0.14169   0.88159   0.36276   0.00000  Uiso   1.00
H80    H     0.89517   0.96467   0.42255   0.00000  Uiso   1.00
H81    H     0.20208   0.35840   0.53159   0.00000  Uiso   1.00
H82    H     0.23525   0.79140   0.28972   0.00000  Uiso   1.00
H83    H     0.71542   0.96659   0.41580   0.00000  Uiso   1.00
O84    O     0.23474   0.63007   0.53195   0.00000  Uiso   1.00
O85    O     0.27825   0.88619   0.21464   0.00000  Uiso   1.00
O86    O     0.59624   0.11603   0.38005   0.00000  Uiso   1.00
N87    N     0.16990   0.60213   0.46721   0.00000  Uiso   1.00
N88    N     0.20093   0.07203   0.24108   0.00000  Uiso   1.00
N89    N     0.71492   0.23579   0.35895   0.00000  Uiso   1.00
N90    N     0.18552   0.41705   0.50683   0.00000  Uiso   1.00
N91    N     0.21655   0.88695   0.28070   0.00000  Uiso   1.00
N92    N     0.73055   0.05071   0.39857   0.00000  Uiso   1.00
C93    C     0.52719   0.18035   0.64772   0.00000  Uiso   1.00
C94    C     0.57033   0.14773   0.60636   0.00000  Uiso   1.00
C95    C     0.59791   0.01720   0.59366   0.00000  Uiso   1.00
C96    C     0.63586   0.00907   0.55471   0.00000  Uiso   1.00
C97    C     0.70136   0.94044   0.49435   0.00000  Uiso   1.00
C98    C     0.57889   0.29382   0.66868   0.00000  Uiso   1.00
C99    C     0.61366   0.28613   0.70838   0.00000  Uiso   1.00
C100   C     0.65882   0.40099   0.72189   0.00000  Uiso   1.00
C101   C     0.73757   0.55921   0.75829   0.00000  Uiso   1.00
C102   C     0.44495   0.24867   0.63619   0.00000  Uiso   1.00
C103   C     0.36710   0.20304   0.64858   0.00000  Uiso   1.00
C104   C     0.29949   0.27991   0.63475   0.00000  Uiso   1.00
C105   C     0.17027   0.36803   0.62071   0.00000  Uiso   1.00
C106   C     0.54556   0.39801   0.60113   0.00000  Uiso   1.00
C107   C     0.58031   0.26595   0.58106   0.00000  Uiso   1.00
C108   C     0.61823   0.25801   0.54211   0.00000  Uiso   1.00
C109   C     0.64586   0.12750   0.52935   0.00000  Uiso   1.00
C110   C     0.58887   0.41204   0.64338   0.00000  Uiso   1.00
C111   C     0.63399   0.52694   0.65683   0.00000  Uiso   1.00
C112   C     0.66882   0.51943   0.69654   0.00000  Uiso   1.00
C113   C     0.45493   0.36689   0.61089   0.00000  Uiso   1.00
C114   C     0.38743   0.44385   0.59703   0.00000  Uiso   1.00
C115   C     0.30949   0.39835   0.60939   0.00000  Uiso   1.00
H116   H     0.51943   0.08832   0.66743   0.00000  Uiso   1.00
H117   H     0.59018   0.92574   0.61326   0.00000  Uiso   1.00
H118   H     0.60592   0.19463   0.72796   0.00000  Uiso   1.00
H119   H     0.35940   0.11155   0.66817   0.00000  Uiso   1.00
H120   H     0.67305   0.79764   0.54205   0.00000  Uiso   1.00
H121   H     0.70622   0.36463   0.78391   0.00000  Uiso   1.00
H122   H     0.18638   0.18945   0.65783   0.00000  Uiso   1.00
H123   H     0.55333   0.49006   0.58143   0.00000  Uiso   1.00
H124   H     0.62594   0.34952   0.52254   0.00000  Uiso   1.00
H125   H     0.64169   0.61841   0.63724   0.00000  Uiso   1.00
H126   H     0.39517   0.53533   0.57745   0.00000  Uiso   1.00
H127   H     0.70208   0.14160   0.46841   0.00000  Uiso   1.00
H128   H     0.73525   0.70860   0.71028   0.00000  Uiso   1.00
H129   H     0.21542   0.53341   0.58420   0.00000  Uiso   1.00
O130   O     0.73474   0.86993   0.46805   0.00000  Uiso   1.00
O131   O     0.77825   0.61381   0.78536   0.00000  Uiso   1.00
O132   O     0.09624   0.38397   0.61995   0.00000  Uiso   1.00
N133   N     0.66990   0.89787   0.53279   0.00000  Uiso   1.00
N134   N     0.70093   0.42797   0.75892   0.00000  Uiso   1.00
N135   N     0.21492   0.26421   0.64105   0.00000  Uiso   1.00
N136   N     0.68552   0.08295   0.49317   0.00000  Uiso   1.00
N137   N     0.71655   0.61305   0.71930   0.00000  Uiso   1.00
N138   N     0.23055   0.44929   0.60143   0.00000  Uiso   1.00
C139   C     0.97281   0.81965   0.14772   0.00000  Uiso   1.00
C140   C     0.92967   0.85227   0.10636   0.00000  Uiso   1.00
C141   C     0.90209   0.98280   0.09366   0.00000  Uiso   1.00
C142   C     0.86414   0.99093   0.05471   0.00000  Uiso   1.00
C143   C     0.79864   0.05956   0.99435   0.00000  Uiso   1.00
C144   C     0.92111   0.70618   0.16868   0.00000  Uiso   1.00
C145   C     0.88634   0.71387   0.20838   0.00000  Uiso   1.00
C146   C     0.84118   0.59901   0.22189   0.00000  Uiso   1.00
C147   C     0.76243   0.44079   0.25829   0.00000  Uiso   1.00
C148   C     0.05505   0.75133   0.13619   0.00000  Uiso   1.00
C149   C     0.13290   0.79696   0.14858   0.00000  Uiso   1.00
C150   C     0.20051   0.72009   0.13475   0.00000  Uiso   1.00
C151   C     0.32973   0.63197   0.12071   0.00000  Uiso   1.00
C152   C     0.95444   0.60199   0.10113   0.00000  Uiso   1.00
C153   C     0.91969   0.73405   0.08106   0.00000  Uiso   1.00
C154   C     0.88177   0.74199   0.04211   0.00000  Uiso   1.00
C155   C     0.85414   0.87250   0.02935   0.00000  Uiso   1.00
C156   C     0.91113   0.58796   0.14338   0.00000  Uiso   1.00
C157   C     0.86601   0.47306   0.15683   0.00000  Uiso   1.00
C158   C     0.83118   0.48057   0.19654   0.00000  Uiso   1.00
C159   C     0.04507   0.63311   0.11089   0.00000  Uiso   1.00
C160   C     0.11257   0.55615   0.09703   0.00000  Uiso   1.00
C161   C     0.19051   0.60165   0.10939   0.00000  Uiso   1.00
H162   H     0.98057   0.91168   0.16743   0.00000  Uiso   1.00
H163   H     0.90982   0.07426   0.11326   0.00000  Uiso   1.00
H164   H     0.89408   0.80537   0.22796   0.00000  Uiso   1.00
H165   H     0.14060   0.88845   0.16817   0.00000  Uiso   1.00
H166   H     0.82695   0.20236   0.04205   0.00000  Uiso   1.00
H167   H     0.79378   0.63537   0.28391   0.00000  Uiso   1.00
H168   H     0.31362   0.81055   0.15783   0.00000  Uiso   1.00
H169   H     0.94667   0.50994   0.08143   0.00000  Uiso   1.00
H170   H     0.87406   0.65048   0.02254   0.00000  Uiso   1.00
H171   H     0.85831   0.38159   0.13724   0.00000  Uiso   1.00
H172   H     0.10483   0.46467   0.07745   0.00000  Uiso   1.00
H173   H     0.79792   0.85840   0.96841   0.00000  Uiso   1.00
H174   H     0.76475   0.29140   0.21028   0.00000  Uiso   1.00
H175   H     0.28458   0.46659   0.08420   0.00000  Uiso   1.00
O176   O     0.76526   0.13007   0.96805   0.00000  Uiso   1.00
O177   O     0.72175   0.38619   0.28536   0.00000  Uiso   1.00
O178   O     0.40376   0.61603   0.11995   0.00000  Uiso   1.00
N179   N     0.83010   0.10213   0.03279   0.00000  Uiso   1.00
N180   N     0.79907   0.57203   0.25892   0.00000  Uiso   1.00
N181   N     0.28508   0.73579   0.14105   0.00000  Uiso   1.00
N182   N     0.81448   0.91705   0.99317   0.00000  Uiso   1.00
N183   N     0.78345   0.38695   0.21930   0.00000  Uiso   1.00
N184   N     0.26945   0.55071   0.10143   0.00000  Uiso   1.00
C185   C     0.52719   0.31965   0.14772   0.00000  Uiso   1.00
C186   C     0.57033   0.35227   0.10636   0.00000  Uiso   1.00
C187   C     0.59791   0.48280   0.09366   0.00000  Uiso   1.00
C188   C     0.63586   0.49093   0.05471   0.00000  Uiso   1.00
C189   C     0.70136   0.55956   0.99435   0.00000  Uiso   1.00
C190   C     0.57889   0.20618   0.16868   0.00000  Uiso   1.00
C191   C     0.61366   0.21387   0.20838   0.00000  Uiso   1.00
C192   C     0.65882   0.09901   0.22189   0.00000  Uiso   1.00
C193   C     0.73757   0.94079   0.25829   0.00000  Uiso   1.00
C194   C     0.44495   0.25133   0.13619   0.00000  Uiso   1.00
C195   C     0.36710   0.29696   0.14858   0.00000  Uiso   1.00
C196   C     0.29949   0.22009   0.13475   0.00000  Uiso   1.00
C197   C     0.17027   0.13197   0.12071   0.00000  Uiso   1.00
C198   C     0.54556   0.10199   0.10113   0.00000  Uiso   1.00
C199   C     0.58031   0.23405   0.08106   0.00000  Uiso   1.00
C200   C     0.61823   0.24199   0.04211   0.00000  Uiso   1.00
C201   C     0.64586   0.37250   0.02935   0.00000  Uiso   1.00
C202   C     0.58887   0.08796   0.14338   0.00000  Uiso   1.00
C203   C     0.63399   0.97306   0.15683   0.00000  Uiso   1.00
C204   C     0.66882   0.98057   0.19654   0.00000  Uiso   1.00
C205   C     0.45493   0.13311   0.11089   0.00000  Uiso   1.00
C206   C     0.38743   0.05615   0.09703   0.00000  Uiso   1.00
C207   C     0.30949   0.10165   0.10939   0.00000  Uiso   1.00
H208   H     0.51943   0.41168   0.16743   0.00000  Uiso   1.00
H209   H     0.59018   0.57426   0.11326   0.00000  Uiso   1.00
H210   H     0.60592   0.30537   0.22796   0.00000  Uiso   1.00
H211   H     0.35940   0.38845   0.16817   0.00000  Uiso   1.00
H212   H     0.67305   0.70236   0.04205   0.00000  Uiso   1.00
H213   H     0.70622   0.13537   0.28391   0.00000  Uiso   1.00
H214   H     0.18638   0.31055   0.15783   0.00000  Uiso   1.00
H215   H     0.55333   0.00994   0.08143   0.00000  Uiso   1.00
H216   H     0.62594   0.15048   0.02254   0.00000  Uiso   1.00
H217   H     0.64169   0.88159   0.13724   0.00000  Uiso   1.00
H218   H     0.39517   0.96467   0.07745   0.00000  Uiso   1.00
H219   H     0.70208   0.35840   0.96841   0.00000  Uiso   1.00
H220   H     0.73525   0.79140   0.21028   0.00000  Uiso   1.00
H221   H     0.21542   0.96659   0.08420   0.00000  Uiso   1.00
O222   O     0.73474   0.63007   0.96805   0.00000  Uiso   1.00
O223   O     0.77825   0.88619   0.28536   0.00000  Uiso   1.00
O224   O     0.09624   0.11603   0.11995   0.00000  Uiso   1.00
N225   N     0.66990   0.60213   0.03279   0.00000  Uiso   1.00
N226   N     0.70093   0.07203   0.25892   0.00000  Uiso   1.00
N227   N     0.21492   0.23579   0.14105   0.00000  Uiso   1.00
N228   N     0.68552   0.41705   0.99317   0.00000  Uiso   1.00
N229   N     0.71655   0.88695   0.21930   0.00000  Uiso   1.00
N230   N     0.23055   0.05071   0.10143   0.00000  Uiso   1.00
C231   C     0.97281   0.68035   0.64772   0.00000  Uiso   1.00
C232   C     0.92967   0.64773   0.60636   0.00000  Uiso   1.00
C233   C     0.90209   0.51720   0.59366   0.00000  Uiso   1.00
C234   C     0.86414   0.50907   0.55471   0.00000  Uiso   1.00
C235   C     0.79864   0.44044   0.49435   0.00000  Uiso   1.00
C236   C     0.92111   0.79382   0.66868   0.00000  Uiso   1.00
C237   C     0.88634   0.78613   0.70838   0.00000  Uiso   1.00
C238   C     0.84118   0.90099   0.72189   0.00000  Uiso   1.00
C239   C     0.76243   0.05921   0.75829   0.00000  Uiso   1.00
C240   C     0.05505   0.74867   0.63619   0.00000  Uiso   1.00
C241   C     0.13290   0.70304   0.64858   0.00000  Uiso   1.00
C242   C     0.20051   0.77991   0.63475   0.00000  Uiso   1.00
C243   C     0.32973   0.86803   0.62071   0.00000  Uiso   1.00
C244   C     0.95444   0.89801   0.60113   0.00000  Uiso   1.00
C245   C     0.91969   0.76595   0.58106   0.00000  Uiso   1.00
C246   C     0.88177   0.75801   0.54211   0.00000  Uiso   1.00
C247   C     0.85414   0.62750   0.52935   0.00000  Uiso   1.00
C248   C     0.91113   0.91204   0.64338   0.00000  Uiso   1.00
C249   C     0.86601   0.02694   0.65683   0.00000  Uiso   1.00
C250   C     0.83118   0.01943   0.69654   0.00000  Uiso   1.00
C251   C     0.04507   0.86689   0.61089   0.00000  Uiso   1.00
C252   C     0.11257   0.94385   0.59703   0.00000  Uiso   1.00
C253   C     0.19051   0.89835   0.60939   0.00000  Uiso   1.00
H254   H     0.98057   0.58832   0.66743   0.00000  Uiso   1.00
H255   H     0.90982   0.42574   0.61326   0.00000  Uiso   1.00
H256   H     0.89408   0.69463   0.72796   0.00000  Uiso   1.00
H257   H     0.14060   0.61155   0.66817   0.00000  Uiso   1.00
H258   H     0.82695   0.29764   0.54205   0.00000  Uiso   1.00
H259   H     0.79378   0.86463   0.78391   0.00000  Uiso   1.00
H260   H     0.31362   0.68945   0.65783   0.00000  Uiso   1.00
H261   H     0.94667   0.99006   0.58143   0.00000  Uiso   1.00
H262   H     0.87406   0.84952   0.52254   0.00000  Uiso   1.00
H263   H     0.85831   0.11841   0.63724   0.00000  Uiso   1.00
H264   H     0.10483   0.03533   0.57745   0.00000  Uiso   1.00
H265   H     0.79792   0.64160   0.46841   0.00000  Uiso   1.00
H266   H     0.76475   0.20860   0.71028   0.00000  Uiso   1.00
H267   H     0.28458   0.03341   0.58420   0.00000  Uiso   1.00
O268   O     0.76526   0.36993   0.46805   0.00000  Uiso   1.00
O269   O     0.72175   0.11381   0.78536   0.00000  Uiso   1.00
O270   O     0.40376   0.88397   0.61995   0.00000  Uiso   1.00
N271   N     0.83010   0.39787   0.53279   0.00000  Uiso   1.00
N272   N     0.79907   0.92797   0.75892   0.00000  Uiso   1.00
N273   N     0.28508   0.76421   0.64105   0.00000  Uiso   1.00
N274   N     0.81448   0.58295   0.49317   0.00000  Uiso   1.00
N275   N     0.78345   0.11305   0.71930   0.00000  Uiso   1.00
N276   N     0.26945   0.94929   0.60143   0.00000  Uiso   1.00
C277   C     0.47281   0.81965   0.35228   0.00000  Uiso   1.00
C278   C     0.42967   0.85227   0.39364   0.00000  Uiso   1.00
C279   C     0.40209   0.98280   0.40634   0.00000  Uiso   1.00
C280   C     0.36414   0.99093   0.44529   0.00000  Uiso   1.00
C281   C     0.29864   0.05956   0.50565   0.00000  Uiso   1.00
C282   C     0.42111   0.70618   0.33132   0.00000  Uiso   1.00
C283   C     0.38634   0.71387   0.29162   0.00000  Uiso   1.00
C284   C     0.34118   0.59901   0.27811   0.00000  Uiso   1.00
C285   C     0.26243   0.44079   0.24171   0.00000  Uiso   1.00
C286   C     0.55505   0.75133   0.36381   0.00000  Uiso   1.00
C287   C     0.63290   0.79696   0.35142   0.00000  Uiso   1.00
C288   C     0.70051   0.72009   0.36525   0.00000  Uiso   1.00
C289   C     0.82973   0.63197   0.37929   0.00000  Uiso   1.00
C290   C     0.45444   0.60199   0.39887   0.00000  Uiso   1.00
C291   C     0.41969   0.73405   0.41894   0.00000  Uiso   1.00
C292   C     0.38177   0.74199   0.45789   0.00000  Uiso   1.00
C293   C     0.35414   0.87250   0.47065   0.00000  Uiso   1.00
C294   C     0.41113   0.58796   0.35662   0.00000  Uiso   1.00
C295   C     0.36601   0.47306   0.34317   0.00000  Uiso   1.00
C296   C     0.33118   0.48057   0.30346   0.00000  Uiso   1.00
C297   C     0.54507   0.63311   0.38911   0.00000  Uiso   1.00
C298   C     0.61257   0.55615   0.40297   0.00000  Uiso   1.00
C299   C     0.69051   0.60165   0.39061   0.00000  Uiso   1.00
H300   H     0.48057   0.91168   0.33257   0.00000  Uiso   1.00
H301   H     0.40982   0.07426   0.38674   0.00000  Uiso   1.00
H302   H     0.39408   0.80537   0.27204   0.00000  Uiso   1.00
H303   H     0.64060   0.88845   0.33183   0.00000  Uiso   1.00
H304   H     0.32695   0.20236   0.45795   0.00000  Uiso   1.00
H305   H     0.29378   0.63537   0.21609   0.00000  Uiso   1.00
H306   H     0.81362   0.81055   0.34217   0.00000  Uiso   1.00
H307   H     0.44667   0.50994   0.41857   0.00000  Uiso   1.00
H308   H     0.37406   0.65048   0.47746   0.00000  Uiso   1.00
H309   H     0.35831   0.38159   0.36276   0.00000  Uiso   1.00
H310   H     0.60483   0.46467   0.42255   0.00000  Uiso   1.00
H311   H     0.29792   0.85840   0.53159   0.00000  Uiso   1.00
H312   H     0.26475   0.29140   0.28972   0.00000  Uiso   1.00
H313   H     0.78458   0.46659   0.41580   0.00000  Uiso   1.00
O314   O     0.26526   0.13007   0.53195   0.00000  Uiso   1.00
O315   O     0.22175   0.38619   0.21464   0.00000  Uiso   1.00
O316   O     0.90376   0.61603   0.38005   0.00000  Uiso   1.00
N317   N     0.33010   0.10213   0.46721   0.00000  Uiso   1.00
N318   N     0.29907   0.57203   0.24108   0.00000  Uiso   1.00
N319   N     0.78508   0.73579   0.35895   0.00000  Uiso   1.00
N320   N     0.31448   0.91705   0.50683   0.00000  Uiso   1.00
N321   N     0.28345   0.38695   0.28070   0.00000  Uiso   1.00
N322   N     0.76945   0.55071   0.39857   0.00000  Uiso   1.00
C323   C     0.02719   0.18035   0.85228   0.00000  Uiso   1.00
C324   C     0.07033   0.14773   0.89364   0.00000  Uiso   1.00
C325   C     0.09791   0.01720   0.90634   0.00000  Uiso   1.00
C326   C     0.13586   0.00907   0.94529   0.00000  Uiso   1.00
C327   C     0.20136   0.94044   0.00565   0.00000  Uiso   1.00
C328   C     0.07889   0.29382   0.83132   0.00000  Uiso   1.00
C329   C     0.11366   0.28613   0.79162   0.00000  Uiso   1.00
C330   C     0.15882   0.40099   0.77811   0.00000  Uiso   1.00
C331   C     0.23757   0.55921   0.74171   0.00000  Uiso   1.00
C332   C     0.94495   0.24867   0.86381   0.00000  Uiso   1.00
C333   C     0.86710   0.20304   0.85142   0.00000  Uiso   1.00
C334   C     0.79949   0.27991   0.86525   0.00000  Uiso   1.00
C335   C     0.67027   0.36803   0.87929   0.00000  Uiso   1.00
C336   C     0.04556   0.39801   0.89887   0.00000  Uiso   1.00
C337   C     0.08031   0.26595   0.91894   0.00000  Uiso   1.00
C338   C     0.11823   0.25801   0.95789   0.00000  Uiso   1.00
C339   C     0.14586   0.12750   0.97065   0.00000  Uiso   1.00
C340   C     0.08887   0.41204   0.85662   0.00000  Uiso   1.00
C341   C     0.13399   0.52694   0.84317   0.00000  Uiso   1.00
C342   C     0.16882   0.51943   0.80346   0.00000  Uiso   1.00
C343   C     0.95493   0.36689   0.88911   0.00000  Uiso   1.00
C344   C     0.88743   0.44385   0.90297   0.00000  Uiso   1.00
C345   C     0.80949   0.39835   0.89061   0.00000  Uiso   1.00
H346   H     0.01943   0.08832   0.83257   0.00000  Uiso   1.00
H347   H     0.09018   0.92574   0.88674   0.00000  Uiso   1.00
H348   H     0.10592   0.19463   0.77204   0.00000  Uiso   1.00
H349   H     0.85940   0.11155   0.83183   0.00000  Uiso   1.00
H350   H     0.17305   0.79764   0.95795   0.00000  Uiso   1.00
H351   H     0.20622   0.36463   0.71609   0.00000  Uiso   1.00
H352   H     0.68638   0.18945   0.84217   0.00000  Uiso   1.00
H353   H     0.05333   0.49006   0.91857   0.00000  Uiso   1.00
H354   H     0.12594   0.34952   0.97746   0.00000  Uiso   1.00
H355   H     0.14169   0.61841   0.86276   0.00000  Uiso   1.00
H356   H     0.89517   0.53533   0.92255   0.00000  Uiso   1.00
H357   H     0.20208   0.14160   0.03159   0.00000  Uiso   1.00
H358   H     0.23525   0.70860   0.78972   0.00000  Uiso   1.00
H359   H     0.71542   0.53341   0.91580   0.00000  Uiso   1.00
O360   O     0.23474   0.86993   0.03195   0.00000  Uiso   1.00
O361   O     0.27825   0.61381   0.71464   0.00000  Uiso   1.00
O362   O     0.59624   0.38397   0.88005   0.00000  Uiso   1.00
N363   N     0.16990   0.89787   0.96721   0.00000  Uiso   1.00
N364   N     0.20093   0.42797   0.74108   0.00000  Uiso   1.00
N365   N     0.71492   0.26421   0.85895   0.00000  Uiso   1.00
N366   N     0.18552   0.08295   0.00683   0.00000  Uiso   1.00
N367   N     0.21655   0.61305   0.78070   0.00000  Uiso   1.00
N368   N     0.73055   0.44929   0.89857   0.00000  Uiso   1.00
