data_job_03918
_audit_creation_date              2018-12-19
_audit_creation_method            'Materials Studio'
_symmetry_space_group_name_H-M    'P1'
_symmetry_Int_Tables_number       1
_symmetry_cell_setting            triclinic
loop_
_symmetry_equiv_pos_as_xyz
  x,y,z
_cell_length_a                    11.5153
_cell_length_b                    11.5153
_cell_length_c                    35.4715
_cell_angle_alpha                 90.0000
_cell_angle_beta                  90.0000
_cell_angle_gamma                 120.0000
loop_
_atom_site_label
_atom_site_type_symbol
_atom_site_fract_x
_atom_site_fract_y
_atom_site_fract_z
_atom_site_U_iso_or_equiv
_atom_site_adp_type
_atom_site_occupancy
C1     C     0.20190   0.04024   0.37950   0.00000  Uiso   1.00
C2     C     0.28677   0.06682   0.41488   0.00000  Uiso   1.00
C3     C     0.28899   0.96980   0.43759   0.00000  Uiso   1.00
C4     C     0.37339   0.01455   0.46871   0.00000  Uiso   1.00
C5     C     0.49307   0.03499   0.52243   0.00000  Uiso   1.00
C6     C     0.11906   0.10834   0.38595   0.00000  Uiso   1.00
C7     C     0.98027   0.04624   0.38432   0.00000  Uiso   1.00
C8     C     0.92349   0.12595   0.39107   0.00000  Uiso   1.00
C9     C     0.78280   0.21089   0.39985   0.00000  Uiso   1.00
C10    C     0.29986   0.11825   0.34786   0.00000  Uiso   1.00
C11    C     0.31307   0.06449   0.31421   0.00000  Uiso   1.00
C12    C     0.40849   0.15256   0.28889   0.00000  Uiso   1.00
C13    C     0.54853   0.25288   0.23854   0.00000  Uiso   1.00
C14    C     0.34784   0.29225   0.39439   0.00000  Uiso   1.00
C15    C     0.36604   0.20370   0.42297   0.00000  Uiso   1.00
C16    C     0.45046   0.24861   0.45406   0.00000  Uiso   1.00
C17    C     0.45281   0.15167   0.47681   0.00000  Uiso   1.00
C18    C     0.19832   0.24522   0.39404   0.00000  Uiso   1.00
C19    C     0.14174   0.32505   0.40079   0.00000  Uiso   1.00
C20    C     0.00290   0.26308   0.39918   0.00000  Uiso   1.00
C21    C     0.37914   0.25513   0.35595   0.00000  Uiso   1.00
C22    C     0.47455   0.34331   0.33068   0.00000  Uiso   1.00
C23    C     0.48791   0.28969   0.29699   0.00000  Uiso   1.00
H24    H     0.14017   0.93368   0.37320   0.00000  Uiso   1.00
H25    H     0.22762   0.86388   0.43132   0.00000  Uiso   1.00
H26    H     0.91895   0.94031   0.37806   0.00000  Uiso   1.00
H27    H     0.25171   0.95856   0.30796   0.00000  Uiso   1.00
H28    H     0.35949   0.84686   0.49933   0.00000  Uiso   1.00
H29    H     0.70865   0.00803   0.38701   0.00000  Uiso   1.00
H30    H     0.41033   0.04651   0.23919   0.00000  Uiso   1.00
H31    H     0.40956   0.39882   0.40069   0.00000  Uiso   1.00
H32    H     0.51180   0.35454   0.46031   0.00000  Uiso   1.00
H33    H     0.20312   0.43097   0.40705   0.00000  Uiso   1.00
H34    H     0.53587   0.44922   0.33695   0.00000  Uiso   1.00
H35    H     0.59013   0.24510   0.52287   0.00000  Uiso   1.00
H36    H     0.93928   0.40627   0.41054   0.00000  Uiso   1.00
H37    H     0.64097   0.44476   0.26272   0.00000  Uiso   1.00
O38    O     0.53717   0.00846   0.54984   0.00000  Uiso   1.00
O39    O     0.68329   0.21991   0.40246   0.00000  Uiso   1.00
O40    O     0.60388   0.27040   0.20853   0.00000  Uiso   1.00
N41    N     0.39976   0.94666   0.49668   0.00000  Uiso   1.00
N42    N     0.79126   0.09734   0.39167   0.00000  Uiso   1.00
N43    N     0.44725   0.13333   0.25347   0.00000  Uiso   1.00
N44    N     0.52387   0.16095   0.50935   0.00000  Uiso   1.00
N45    N     0.91537   0.31163   0.40434   0.00000  Uiso   1.00
N46    N     0.57135   0.34762   0.26613   0.00000  Uiso   1.00
C47    C     0.95976   0.16166   0.04616   0.00000  Uiso   1.00
C48    C     0.93318   0.21996   0.08155   0.00000  Uiso   1.00
C49    C     0.03020   0.31919   0.10425   0.00000  Uiso   1.00
C50    C     0.98545   0.35884   0.13537   0.00000  Uiso   1.00
C51    C     0.96501   0.45808   0.18910   0.00000  Uiso   1.00
C52    C     0.89166   0.01072   0.05262   0.00000  Uiso   1.00
C53    C     0.95376   0.93403   0.05098   0.00000  Uiso   1.00
C54    C     0.87405   0.79754   0.05774   0.00000  Uiso   1.00
C55    C     0.78911   0.57191   0.06652   0.00000  Uiso   1.00
C56    C     0.88175   0.18161   0.01453   0.00000  Uiso   1.00
C57    C     0.93551   0.24858   0.98087   0.00000  Uiso   1.00
C58    C     0.84744   0.25593   0.95556   0.00000  Uiso   1.00
C59    C     0.74712   0.29564   0.90520   0.00000  Uiso   1.00
C60    C     0.70775   0.05560   0.06105   0.00000  Uiso   1.00
C61    C     0.79630   0.16234   0.08964   0.00000  Uiso   1.00
C62    C     0.75139   0.20185   0.12073   0.00000  Uiso   1.00
C63    C     0.84833   0.30114   0.14347   0.00000  Uiso   1.00
C64    C     0.75478   0.95311   0.06070   0.00000  Uiso   1.00
C65    C     0.67495   0.81669   0.06746   0.00000  Uiso   1.00
C66    C     0.73692   0.73982   0.06584   0.00000  Uiso   1.00
C67    C     0.74487   0.12400   0.02262   0.00000  Uiso   1.00
C68    C     0.65669   0.13124   0.99735   0.00000  Uiso   1.00
C69    C     0.71031   0.19822   0.96366   0.00000  Uiso   1.00
H70    H     0.06632   0.20650   0.03987   0.00000  Uiso   1.00
H71    H     0.13612   0.36374   0.09799   0.00000  Uiso   1.00
H72    H     0.05969   0.97864   0.04472   0.00000  Uiso   1.00
H73    H     0.04144   0.29314   0.97462   0.00000  Uiso   1.00
H74    H     0.15314   0.51264   0.16600   0.00000  Uiso   1.00
H75    H     0.99197   0.70062   0.05367   0.00000  Uiso   1.00
H76    H     0.95349   0.36381   0.90585   0.00000  Uiso   1.00
H77    H     0.60118   0.01074   0.06735   0.00000  Uiso   1.00
H78    H     0.64546   0.15725   0.12698   0.00000  Uiso   1.00
H79    H     0.56903   0.77215   0.07372   0.00000  Uiso   1.00
H80    H     0.55078   0.08665   0.00362   0.00000  Uiso   1.00
H81    H     0.75490   0.34504   0.18953   0.00000  Uiso   1.00
H82    H     0.59373   0.53302   0.07721   0.00000  Uiso   1.00
H83    H     0.55524   0.19621   0.92939   0.00000  Uiso   1.00
O84    O     0.99154   0.52871   0.21650   0.00000  Uiso   1.00
O85    O     0.78009   0.46338   0.06913   0.00000  Uiso   1.00
O86    O     0.72960   0.33348   0.87520   0.00000  Uiso   1.00
N87    N     0.05334   0.45310   0.16335   0.00000  Uiso   1.00
N88    N     0.90266   0.69392   0.05834   0.00000  Uiso   1.00
N89    N     0.86667   0.31392   0.92014   0.00000  Uiso   1.00
N90    N     0.83905   0.36292   0.17601   0.00000  Uiso   1.00
N91    N     0.68837   0.60374   0.07100   0.00000  Uiso   1.00
N92    N     0.65238   0.22374   0.93280   0.00000  Uiso   1.00
C93    C     0.83834   0.79810   0.71283   0.00000  Uiso   1.00
C94    C     0.78004   0.71323   0.74822   0.00000  Uiso   1.00
C95    C     0.68081   0.71101   0.77092   0.00000  Uiso   1.00
C96    C     0.64116   0.62661   0.80204   0.00000  Uiso   1.00
C97    C     0.54192   0.50693   0.85577   0.00000  Uiso   1.00
C98    C     0.98928   0.88094   0.71928   0.00000  Uiso   1.00
C99    C     0.06597   0.01973   0.71765   0.00000  Uiso   1.00
C100   C     0.20246   0.07651   0.72441   0.00000  Uiso   1.00
C101   C     0.42809   0.21720   0.73318   0.00000  Uiso   1.00
C102   C     0.81839   0.70014   0.68120   0.00000  Uiso   1.00
C103   C     0.75142   0.68693   0.64754   0.00000  Uiso   1.00
C104   C     0.74407   0.59151   0.62222   0.00000  Uiso   1.00
C105   C     0.70436   0.45147   0.57187   0.00000  Uiso   1.00
C106   C     0.94440   0.65216   0.72772   0.00000  Uiso   1.00
C107   C     0.83766   0.63396   0.75631   0.00000  Uiso   1.00
C108   C     0.79815   0.54954   0.78740   0.00000  Uiso   1.00
C109   C     0.69886   0.54719   0.81014   0.00000  Uiso   1.00
C110   C     0.04689   0.80168   0.72737   0.00000  Uiso   1.00
C111   C     0.18331   0.85826   0.73413   0.00000  Uiso   1.00
C112   C     0.26018   0.99710   0.73251   0.00000  Uiso   1.00
C113   C     0.87600   0.62086   0.68929   0.00000  Uiso   1.00
C114   C     0.86876   0.52545   0.66402   0.00000  Uiso   1.00
C115   C     0.80178   0.51209   0.63033   0.00000  Uiso   1.00
H116   H     0.79350   0.85983   0.70653   0.00000  Uiso   1.00
H117   H     0.63626   0.77238   0.76465   0.00000  Uiso   1.00
H118   H     0.02136   0.08105   0.71139   0.00000  Uiso   1.00
H119   H     0.70686   0.74829   0.64129   0.00000  Uiso   1.00
H120   H     0.48736   0.64051   0.83267   0.00000  Uiso   1.00
H121   H     0.29938   0.29135   0.72034   0.00000  Uiso   1.00
H122   H     0.63619   0.58967   0.57252   0.00000  Uiso   1.00
H123   H     0.98926   0.59044   0.73402   0.00000  Uiso   1.00
H124   H     0.84275   0.48820   0.79365   0.00000  Uiso   1.00
H125   H     0.22785   0.79688   0.74038   0.00000  Uiso   1.00
H126   H     0.91335   0.46413   0.67028   0.00000  Uiso   1.00
H127   H     0.65496   0.40987   0.85620   0.00000  Uiso   1.00
H128   H     0.46698   0.06072   0.74387   0.00000  Uiso   1.00
H129   H     0.80379   0.35903   0.59606   0.00000  Uiso   1.00
O130   O     0.47129   0.46283   0.88317   0.00000  Uiso   1.00
O131   O     0.53662   0.31671   0.73580   0.00000  Uiso   1.00
O132   O     0.66652   0.39612   0.54186   0.00000  Uiso   1.00
N133   N     0.54690   0.60024   0.83002   0.00000  Uiso   1.00
N134   N     0.30608   0.20874   0.72501   0.00000  Uiso   1.00
N135   N     0.68608   0.55275   0.58680   0.00000  Uiso   1.00
N136   N     0.63708   0.47613   0.84268   0.00000  Uiso   1.00
N137   N     0.39626   0.08463   0.73767   0.00000  Uiso   1.00
N138   N     0.77626   0.42865   0.59947   0.00000  Uiso   1.00
C139   C     0.04024   0.20190   0.62050   0.00000  Uiso   1.00
C140   C     0.06682   0.28677   0.58512   0.00000  Uiso   1.00
C141   C     0.96980   0.28899   0.56241   0.00000  Uiso   1.00
C142   C     0.01455   0.37339   0.53129   0.00000  Uiso   1.00
C143   C     0.03499   0.49307   0.47757   0.00000  Uiso   1.00
C144   C     0.10834   0.11906   0.61405   0.00000  Uiso   1.00
C145   C     0.04624   0.98027   0.61568   0.00000  Uiso   1.00
C146   C     0.12595   0.92349   0.60893   0.00000  Uiso   1.00
C147   C     0.21089   0.78280   0.60015   0.00000  Uiso   1.00
C148   C     0.11825   0.29986   0.65214   0.00000  Uiso   1.00
C149   C     0.06449   0.31307   0.68579   0.00000  Uiso   1.00
C150   C     0.15256   0.40849   0.71111   0.00000  Uiso   1.00
C151   C     0.25288   0.54853   0.76146   0.00000  Uiso   1.00
C152   C     0.29225   0.34784   0.60561   0.00000  Uiso   1.00
C153   C     0.20370   0.36604   0.57703   0.00000  Uiso   1.00
C154   C     0.24861   0.45046   0.54594   0.00000  Uiso   1.00
C155   C     0.15167   0.45281   0.52319   0.00000  Uiso   1.00
C156   C     0.24522   0.19832   0.60596   0.00000  Uiso   1.00
C157   C     0.32505   0.14174   0.59921   0.00000  Uiso   1.00
C158   C     0.26308   0.00290   0.60082   0.00000  Uiso   1.00
C159   C     0.25513   0.37914   0.64405   0.00000  Uiso   1.00
C160   C     0.34331   0.47455   0.66932   0.00000  Uiso   1.00
C161   C     0.28969   0.48791   0.70301   0.00000  Uiso   1.00
H162   H     0.93368   0.14017   0.62680   0.00000  Uiso   1.00
H163   H     0.86388   0.22762   0.56868   0.00000  Uiso   1.00
H164   H     0.94031   0.91895   0.62194   0.00000  Uiso   1.00
H165   H     0.95856   0.25171   0.69204   0.00000  Uiso   1.00
H166   H     0.84686   0.35949   0.50067   0.00000  Uiso   1.00
H167   H     0.00803   0.70865   0.61299   0.00000  Uiso   1.00
H168   H     0.04651   0.41033   0.76081   0.00000  Uiso   1.00
H169   H     0.39882   0.40956   0.59931   0.00000  Uiso   1.00
H170   H     0.35454   0.51180   0.53969   0.00000  Uiso   1.00
H171   H     0.43097   0.20312   0.59295   0.00000  Uiso   1.00
H172   H     0.44922   0.53587   0.66305   0.00000  Uiso   1.00
H173   H     0.24510   0.59013   0.47713   0.00000  Uiso   1.00
H174   H     0.40627   0.93928   0.58946   0.00000  Uiso   1.00
H175   H     0.44476   0.64097   0.73728   0.00000  Uiso   1.00
O176   O     0.00846   0.53717   0.45016   0.00000  Uiso   1.00
O177   O     0.21991   0.68329   0.59754   0.00000  Uiso   1.00
O178   O     0.27040   0.60388   0.79147   0.00000  Uiso   1.00
N179   N     0.94666   0.39976   0.50332   0.00000  Uiso   1.00
N180   N     0.09734   0.79126   0.60833   0.00000  Uiso   1.00
N181   N     0.13333   0.44725   0.74653   0.00000  Uiso   1.00
N182   N     0.16095   0.52387   0.49065   0.00000  Uiso   1.00
N183   N     0.31163   0.91537   0.59566   0.00000  Uiso   1.00
N184   N     0.34762   0.57135   0.73387   0.00000  Uiso   1.00
C185   C     0.16166   0.95976   0.95384   0.00000  Uiso   1.00
C186   C     0.21996   0.93318   0.91845   0.00000  Uiso   1.00
C187   C     0.31919   0.03020   0.89575   0.00000  Uiso   1.00
C188   C     0.35884   0.98545   0.86463   0.00000  Uiso   1.00
C189   C     0.45808   0.96501   0.81090   0.00000  Uiso   1.00
C190   C     0.01072   0.89166   0.94738   0.00000  Uiso   1.00
C191   C     0.93403   0.95376   0.94902   0.00000  Uiso   1.00
C192   C     0.79754   0.87405   0.94226   0.00000  Uiso   1.00
C193   C     0.57191   0.78911   0.93348   0.00000  Uiso   1.00
C194   C     0.18161   0.88175   0.98547   0.00000  Uiso   1.00
C195   C     0.24858   0.93551   0.01913   0.00000  Uiso   1.00
C196   C     0.25593   0.84744   0.04444   0.00000  Uiso   1.00
C197   C     0.29564   0.74712   0.09480   0.00000  Uiso   1.00
C198   C     0.05560   0.70775   0.93895   0.00000  Uiso   1.00
C199   C     0.16234   0.79630   0.91036   0.00000  Uiso   1.00
C200   C     0.20185   0.75139   0.87927   0.00000  Uiso   1.00
C201   C     0.30114   0.84833   0.85653   0.00000  Uiso   1.00
C202   C     0.95311   0.75478   0.93930   0.00000  Uiso   1.00
C203   C     0.81669   0.67495   0.93254   0.00000  Uiso   1.00
C204   C     0.73982   0.73692   0.93416   0.00000  Uiso   1.00
C205   C     0.12400   0.74487   0.97738   0.00000  Uiso   1.00
C206   C     0.13124   0.65669   0.00265   0.00000  Uiso   1.00
C207   C     0.19822   0.71031   0.03634   0.00000  Uiso   1.00
H208   H     0.20650   0.06632   0.96013   0.00000  Uiso   1.00
H209   H     0.36374   0.13612   0.90201   0.00000  Uiso   1.00
H210   H     0.97864   0.05969   0.95528   0.00000  Uiso   1.00
H211   H     0.29314   0.04144   0.02538   0.00000  Uiso   1.00
H212   H     0.51264   0.15314   0.83400   0.00000  Uiso   1.00
H213   H     0.70062   0.99197   0.94633   0.00000  Uiso   1.00
H214   H     0.36381   0.95349   0.09415   0.00000  Uiso   1.00
H215   H     0.01074   0.60118   0.93265   0.00000  Uiso   1.00
H216   H     0.15725   0.64546   0.87302   0.00000  Uiso   1.00
H217   H     0.77215   0.56903   0.92628   0.00000  Uiso   1.00
H218   H     0.08665   0.55078   0.99638   0.00000  Uiso   1.00
H219   H     0.34504   0.75490   0.81047   0.00000  Uiso   1.00
H220   H     0.53302   0.59373   0.92279   0.00000  Uiso   1.00
H221   H     0.19621   0.55524   0.07061   0.00000  Uiso   1.00
O222   O     0.52871   0.99154   0.78350   0.00000  Uiso   1.00
O223   O     0.46338   0.78009   0.93087   0.00000  Uiso   1.00
O224   O     0.33348   0.72960   0.12480   0.00000  Uiso   1.00
N225   N     0.45310   0.05334   0.83665   0.00000  Uiso   1.00
N226   N     0.69392   0.90266   0.94166   0.00000  Uiso   1.00
N227   N     0.31392   0.86667   0.07986   0.00000  Uiso   1.00
N228   N     0.36292   0.83905   0.82399   0.00000  Uiso   1.00
N229   N     0.60374   0.68837   0.92900   0.00000  Uiso   1.00
N230   N     0.22374   0.65238   0.06720   0.00000  Uiso   1.00
C231   C     0.79810   0.83834   0.28717   0.00000  Uiso   1.00
C232   C     0.71323   0.78004   0.25178   0.00000  Uiso   1.00
C233   C     0.71101   0.68081   0.22908   0.00000  Uiso   1.00
C234   C     0.62661   0.64116   0.19796   0.00000  Uiso   1.00
C235   C     0.50693   0.54192   0.14423   0.00000  Uiso   1.00
C236   C     0.88094   0.98928   0.28072   0.00000  Uiso   1.00
C237   C     0.01973   0.06597   0.28235   0.00000  Uiso   1.00
C238   C     0.07651   0.20246   0.27559   0.00000  Uiso   1.00
C239   C     0.21720   0.42809   0.26682   0.00000  Uiso   1.00
C240   C     0.70014   0.81839   0.31880   0.00000  Uiso   1.00
C241   C     0.68693   0.75142   0.35246   0.00000  Uiso   1.00
C242   C     0.59151   0.74407   0.37778   0.00000  Uiso   1.00
C243   C     0.45147   0.70436   0.42813   0.00000  Uiso   1.00
C244   C     0.65216   0.94440   0.27228   0.00000  Uiso   1.00
C245   C     0.63396   0.83766   0.24369   0.00000  Uiso   1.00
C246   C     0.54954   0.79815   0.21260   0.00000  Uiso   1.00
C247   C     0.54719   0.69886   0.18986   0.00000  Uiso   1.00
C248   C     0.80168   0.04689   0.27263   0.00000  Uiso   1.00
C249   C     0.85826   0.18331   0.26587   0.00000  Uiso   1.00
C250   C     0.99710   0.26018   0.26749   0.00000  Uiso   1.00
C251   C     0.62086   0.87600   0.31071   0.00000  Uiso   1.00
C252   C     0.52545   0.86876   0.33598   0.00000  Uiso   1.00
C253   C     0.51209   0.80178   0.36967   0.00000  Uiso   1.00
H254   H     0.85983   0.79350   0.29347   0.00000  Uiso   1.00
H255   H     0.77238   0.63626   0.23535   0.00000  Uiso   1.00
H256   H     0.08105   0.02136   0.28861   0.00000  Uiso   1.00
H257   H     0.74829   0.70686   0.35871   0.00000  Uiso   1.00
H258   H     0.64051   0.48736   0.16733   0.00000  Uiso   1.00
H259   H     0.29135   0.29938   0.27966   0.00000  Uiso   1.00
H260   H     0.58967   0.63619   0.42748   0.00000  Uiso   1.00
H261   H     0.59044   0.98926   0.26598   0.00000  Uiso   1.00
H262   H     0.48820   0.84275   0.20635   0.00000  Uiso   1.00
H263   H     0.79688   0.22785   0.25962   0.00000  Uiso   1.00
H264   H     0.46413   0.91335   0.32972   0.00000  Uiso   1.00
H265   H     0.40987   0.65496   0.14380   0.00000  Uiso   1.00
H266   H     0.06072   0.46698   0.25613   0.00000  Uiso   1.00
H267   H     0.35903   0.80379   0.40394   0.00000  Uiso   1.00
O268   O     0.46283   0.47129   0.11683   0.00000  Uiso   1.00
O269   O     0.31671   0.53662   0.26420   0.00000  Uiso   1.00
O270   O     0.39612   0.66652   0.45814   0.00000  Uiso   1.00
N271   N     0.60024   0.54690   0.16998   0.00000  Uiso   1.00
N272   N     0.20874   0.30608   0.27499   0.00000  Uiso   1.00
N273   N     0.55275   0.68608   0.41320   0.00000  Uiso   1.00
N274   N     0.47613   0.63708   0.15732   0.00000  Uiso   1.00
N275   N     0.08463   0.39626   0.26233   0.00000  Uiso   1.00
N276   N     0.42865   0.77626   0.40053   0.00000  Uiso   1.00
