data_job_02865
_audit_creation_date              2018-12-19
_audit_creation_method            'Materials Studio'
_symmetry_space_group_name_H-M    'P1'
_symmetry_Int_Tables_number       1
_symmetry_cell_setting            triclinic
loop_
_symmetry_equiv_pos_as_xyz
  x,y,z
_cell_length_a                    25.7640
_cell_length_b                    17.9932
_cell_length_c                    11.7940
_cell_angle_alpha                 90.0000
_cell_angle_beta                  90.0000
_cell_angle_gamma                 90.0000
loop_
_atom_site_label
_atom_site_type_symbol
_atom_site_fract_x
_atom_site_fract_y
_atom_site_fract_z
_atom_site_U_iso_or_equiv
_atom_site_adp_type
_atom_site_occupancy
C1     C     0.30644   0.16508   0.28606   0.00000  Uiso   1.00
C2     C     0.34511   0.16569   0.38393   0.00000  Uiso   1.00
C3     C     0.33369   0.18251   0.49602   0.00000  Uiso   1.00
C4     C     0.37449   0.17997   0.57283   0.00000  Uiso   1.00
C5     C     0.42688   0.18379   0.72999   0.00000  Uiso   1.00
C6     C     0.32811   0.21830   0.19725   0.00000  Uiso   1.00
C7     C     0.30238   0.27935   0.15238   0.00000  Uiso   1.00
C8     C     0.32886   0.32109   0.07203   0.00000  Uiso   1.00
C9     C     0.35484   0.40655   0.93931   0.00000  Uiso   1.00
C10    C     0.30967   0.08769   0.23387   0.00000  Uiso   1.00
C11    C     0.26844   0.03892   0.21975   0.00000  Uiso   1.00
C12    C     0.27940   0.97070   0.17020   0.00000  Uiso   1.00
C13    C     0.27675   0.85337   0.09433   0.00000  Uiso   1.00
C14    C     0.39921   0.13066   0.22314   0.00000  Uiso   1.00
C15    C     0.39551   0.14699   0.34975   0.00000  Uiso   1.00
C16    C     0.43633   0.14442   0.42641   0.00000  Uiso   1.00
C17    C     0.42497   0.16124   0.53859   0.00000  Uiso   1.00
C18    C     0.37850   0.19960   0.16308   0.00000  Uiso   1.00
C19    C     0.40502   0.24126   0.08277   0.00000  Uiso   1.00
C20    C     0.37935   0.30236   0.03779   0.00000  Uiso   1.00
C21    C     0.36006   0.06899   0.19970   0.00000  Uiso   1.00
C22    C     0.37109   0.00083   0.15015   0.00000  Uiso   1.00
C23    C     0.32988   0.95197   0.13596   0.00000  Uiso   1.00
H24    H     0.26721   0.17964   0.31266   0.00000  Uiso   1.00
H25    H     0.29469   0.19698   0.52243   0.00000  Uiso   1.00
H26    H     0.26338   0.29380   0.17884   0.00000  Uiso   1.00
H27    H     0.22945   0.05341   0.24621   0.00000  Uiso   1.00
H28    H     0.34738   0.20799   0.73993   0.00000  Uiso   1.00
H29    H     0.28136   0.41211   0.01541   0.00000  Uiso   1.00
H30    H     0.20981   0.90521   0.15747   0.00000  Uiso   1.00
H31    H     0.43845   0.11610   0.19653   0.00000  Uiso   1.00
H32    H     0.47533   0.12995   0.39994   0.00000  Uiso   1.00
H33    H     0.44402   0.22677   0.05634   0.00000  Uiso   1.00
H34    H     0.41009   0.98638   0.12371   0.00000  Uiso   1.00
H35    H     0.49400   0.15359   0.64050   0.00000  Uiso   1.00
H36    H     0.42798   0.35771   0.91597   0.00000  Uiso   1.00
H37    H     0.35643   0.85081   0.05804   0.00000  Uiso   1.00
O38    O     0.44186   0.19107   0.82611   0.00000  Uiso   1.00
O39    O     0.35524   0.45887   0.87555   0.00000  Uiso   1.00
O40    O     0.26137   0.79382   0.06194   0.00000  Uiso   1.00
N41    N     0.37682   0.19327   0.68862   0.00000  Uiso   1.00
N42    N     0.31510   0.38412   0.01124   0.00000  Uiso   1.00
N43    N     0.24821   0.91021   0.14403   0.00000  Uiso   1.00
N44    N     0.45572   0.16399   0.63512   0.00000  Uiso   1.00
N45    N     0.39400   0.35485   0.95775   0.00000  Uiso   1.00
N46    N     0.32710   0.88094   0.09053   0.00000  Uiso   1.00
C47    C     0.80644   0.66508   0.28606   0.00000  Uiso   1.00
C48    C     0.84511   0.66569   0.38393   0.00000  Uiso   1.00
C49    C     0.83369   0.68251   0.49602   0.00000  Uiso   1.00
C50    C     0.87449   0.67997   0.57283   0.00000  Uiso   1.00
C51    C     0.92688   0.68379   0.72999   0.00000  Uiso   1.00
C52    C     0.82811   0.71830   0.19725   0.00000  Uiso   1.00
C53    C     0.80238   0.77935   0.15238   0.00000  Uiso   1.00
C54    C     0.82886   0.82109   0.07203   0.00000  Uiso   1.00
C55    C     0.85484   0.90655   0.93931   0.00000  Uiso   1.00
C56    C     0.80967   0.58769   0.23387   0.00000  Uiso   1.00
C57    C     0.76844   0.53892   0.21975   0.00000  Uiso   1.00
C58    C     0.77940   0.47070   0.17020   0.00000  Uiso   1.00
C59    C     0.77675   0.35337   0.09433   0.00000  Uiso   1.00
C60    C     0.89921   0.63066   0.22314   0.00000  Uiso   1.00
C61    C     0.89551   0.64699   0.34975   0.00000  Uiso   1.00
C62    C     0.93633   0.64442   0.42641   0.00000  Uiso   1.00
C63    C     0.92497   0.66124   0.53859   0.00000  Uiso   1.00
C64    C     0.87850   0.69960   0.16308   0.00000  Uiso   1.00
C65    C     0.90502   0.74126   0.08277   0.00000  Uiso   1.00
C66    C     0.87935   0.80236   0.03779   0.00000  Uiso   1.00
C67    C     0.86006   0.56899   0.19970   0.00000  Uiso   1.00
C68    C     0.87109   0.50083   0.15015   0.00000  Uiso   1.00
C69    C     0.82988   0.45197   0.13596   0.00000  Uiso   1.00
H70    H     0.76721   0.67964   0.31266   0.00000  Uiso   1.00
H71    H     0.79469   0.69698   0.52243   0.00000  Uiso   1.00
H72    H     0.76338   0.79380   0.17884   0.00000  Uiso   1.00
H73    H     0.72945   0.55341   0.24621   0.00000  Uiso   1.00
H74    H     0.84738   0.70799   0.73993   0.00000  Uiso   1.00
H75    H     0.78136   0.91211   0.01541   0.00000  Uiso   1.00
H76    H     0.70981   0.40521   0.15747   0.00000  Uiso   1.00
H77    H     0.93845   0.61610   0.19653   0.00000  Uiso   1.00
H78    H     0.97533   0.62995   0.39994   0.00000  Uiso   1.00
H79    H     0.94402   0.72677   0.05634   0.00000  Uiso   1.00
H80    H     0.91009   0.48638   0.12371   0.00000  Uiso   1.00
H81    H     0.99400   0.65359   0.64050   0.00000  Uiso   1.00
H82    H     0.92798   0.85771   0.91597   0.00000  Uiso   1.00
H83    H     0.85643   0.35081   0.05804   0.00000  Uiso   1.00
O84    O     0.94186   0.69107   0.82611   0.00000  Uiso   1.00
O85    O     0.85524   0.95887   0.87555   0.00000  Uiso   1.00
O86    O     0.76137   0.29382   0.06194   0.00000  Uiso   1.00
N87    N     0.87682   0.69327   0.68862   0.00000  Uiso   1.00
N88    N     0.81510   0.88412   0.01124   0.00000  Uiso   1.00
N89    N     0.74821   0.41021   0.14403   0.00000  Uiso   1.00
N90    N     0.95572   0.66399   0.63512   0.00000  Uiso   1.00
N91    N     0.89400   0.85485   0.95775   0.00000  Uiso   1.00
N92    N     0.82710   0.38094   0.09053   0.00000  Uiso   1.00
C93    C     0.69356   0.83492   0.78606   0.00000  Uiso   1.00
C94    C     0.65489   0.83431   0.88393   0.00000  Uiso   1.00
C95    C     0.66631   0.81749   0.99602   0.00000  Uiso   1.00
C96    C     0.62551   0.82003   0.07283   0.00000  Uiso   1.00
C97    C     0.57312   0.81621   0.22999   0.00000  Uiso   1.00
C98    C     0.67189   0.78170   0.69725   0.00000  Uiso   1.00
C99    C     0.69762   0.72065   0.65238   0.00000  Uiso   1.00
C100   C     0.67114   0.67891   0.57203   0.00000  Uiso   1.00
C101   C     0.64516   0.59345   0.43931   0.00000  Uiso   1.00
C102   C     0.69033   0.91231   0.73387   0.00000  Uiso   1.00
C103   C     0.73156   0.96108   0.71975   0.00000  Uiso   1.00
C104   C     0.72060   0.02930   0.67020   0.00000  Uiso   1.00
C105   C     0.72325   0.14663   0.59433   0.00000  Uiso   1.00
C106   C     0.60079   0.86934   0.72314   0.00000  Uiso   1.00
C107   C     0.60449   0.85301   0.84975   0.00000  Uiso   1.00
C108   C     0.56367   0.85558   0.92641   0.00000  Uiso   1.00
C109   C     0.57503   0.83876   0.03859   0.00000  Uiso   1.00
C110   C     0.62150   0.80040   0.66308   0.00000  Uiso   1.00
C111   C     0.59498   0.75874   0.58277   0.00000  Uiso   1.00
C112   C     0.62065   0.69764   0.53779   0.00000  Uiso   1.00
C113   C     0.63994   0.93101   0.69970   0.00000  Uiso   1.00
C114   C     0.62891   0.99917   0.65015   0.00000  Uiso   1.00
C115   C     0.67012   0.04803   0.63596   0.00000  Uiso   1.00
H116   H     0.73279   0.82036   0.81266   0.00000  Uiso   1.00
H117   H     0.70531   0.80302   0.02243   0.00000  Uiso   1.00
H118   H     0.73662   0.70620   0.67884   0.00000  Uiso   1.00
H119   H     0.77055   0.94659   0.74621   0.00000  Uiso   1.00
H120   H     0.65262   0.79201   0.23993   0.00000  Uiso   1.00
H121   H     0.71864   0.58789   0.51541   0.00000  Uiso   1.00
H122   H     0.79019   0.09479   0.65747   0.00000  Uiso   1.00
H123   H     0.56155   0.88390   0.69653   0.00000  Uiso   1.00
H124   H     0.52467   0.87005   0.89994   0.00000  Uiso   1.00
H125   H     0.55598   0.77323   0.55634   0.00000  Uiso   1.00
H126   H     0.58991   0.01362   0.62371   0.00000  Uiso   1.00
H127   H     0.50600   0.84641   0.14050   0.00000  Uiso   1.00
H128   H     0.57202   0.64229   0.41597   0.00000  Uiso   1.00
H129   H     0.64357   0.14919   0.55804   0.00000  Uiso   1.00
O130   O     0.55814   0.80893   0.32611   0.00000  Uiso   1.00
O131   O     0.64476   0.54113   0.37555   0.00000  Uiso   1.00
O132   O     0.73863   0.20618   0.56194   0.00000  Uiso   1.00
N133   N     0.62318   0.80673   0.18862   0.00000  Uiso   1.00
N134   N     0.68490   0.61588   0.51124   0.00000  Uiso   1.00
N135   N     0.75179   0.08979   0.64403   0.00000  Uiso   1.00
N136   N     0.54428   0.83601   0.13512   0.00000  Uiso   1.00
N137   N     0.60600   0.64515   0.45775   0.00000  Uiso   1.00
N138   N     0.67290   0.11906   0.59053   0.00000  Uiso   1.00
C139   C     0.19356   0.33492   0.78606   0.00000  Uiso   1.00
C140   C     0.15489   0.33431   0.88393   0.00000  Uiso   1.00
C141   C     0.16631   0.31749   0.99602   0.00000  Uiso   1.00
C142   C     0.12551   0.32003   0.07283   0.00000  Uiso   1.00
C143   C     0.07312   0.31621   0.22999   0.00000  Uiso   1.00
C144   C     0.17189   0.28170   0.69725   0.00000  Uiso   1.00
C145   C     0.19762   0.22065   0.65238   0.00000  Uiso   1.00
C146   C     0.17114   0.17891   0.57203   0.00000  Uiso   1.00
C147   C     0.14516   0.09345   0.43931   0.00000  Uiso   1.00
C148   C     0.19033   0.41231   0.73387   0.00000  Uiso   1.00
C149   C     0.23156   0.46108   0.71975   0.00000  Uiso   1.00
C150   C     0.22060   0.52930   0.67020   0.00000  Uiso   1.00
C151   C     0.22325   0.64663   0.59433   0.00000  Uiso   1.00
C152   C     0.10079   0.36934   0.72314   0.00000  Uiso   1.00
C153   C     0.10449   0.35301   0.84975   0.00000  Uiso   1.00
C154   C     0.06367   0.35558   0.92641   0.00000  Uiso   1.00
C155   C     0.07503   0.33876   0.03859   0.00000  Uiso   1.00
C156   C     0.12150   0.30040   0.66308   0.00000  Uiso   1.00
C157   C     0.09498   0.25874   0.58277   0.00000  Uiso   1.00
C158   C     0.12065   0.19764   0.53779   0.00000  Uiso   1.00
C159   C     0.13994   0.43101   0.69970   0.00000  Uiso   1.00
C160   C     0.12891   0.49917   0.65015   0.00000  Uiso   1.00
C161   C     0.17012   0.54803   0.63596   0.00000  Uiso   1.00
H162   H     0.23279   0.32036   0.81266   0.00000  Uiso   1.00
H163   H     0.20531   0.30302   0.02243   0.00000  Uiso   1.00
H164   H     0.23662   0.20620   0.67884   0.00000  Uiso   1.00
H165   H     0.27055   0.44659   0.74621   0.00000  Uiso   1.00
H166   H     0.15262   0.29201   0.23993   0.00000  Uiso   1.00
H167   H     0.21864   0.08789   0.51541   0.00000  Uiso   1.00
H168   H     0.29019   0.59479   0.65747   0.00000  Uiso   1.00
H169   H     0.06155   0.38390   0.69653   0.00000  Uiso   1.00
H170   H     0.02467   0.37005   0.89994   0.00000  Uiso   1.00
H171   H     0.05598   0.27323   0.55634   0.00000  Uiso   1.00
H172   H     0.08991   0.51362   0.62371   0.00000  Uiso   1.00
H173   H     0.00600   0.34641   0.14050   0.00000  Uiso   1.00
H174   H     0.07202   0.14229   0.41597   0.00000  Uiso   1.00
H175   H     0.14357   0.64919   0.55804   0.00000  Uiso   1.00
O176   O     0.05814   0.30893   0.32611   0.00000  Uiso   1.00
O177   O     0.14476   0.04113   0.37555   0.00000  Uiso   1.00
O178   O     0.23863   0.70618   0.56194   0.00000  Uiso   1.00
N179   N     0.12318   0.30673   0.18862   0.00000  Uiso   1.00
N180   N     0.18490   0.11588   0.51124   0.00000  Uiso   1.00
N181   N     0.25179   0.58979   0.64403   0.00000  Uiso   1.00
N182   N     0.04428   0.33601   0.13512   0.00000  Uiso   1.00
N183   N     0.10600   0.14515   0.45775   0.00000  Uiso   1.00
N184   N     0.17290   0.61906   0.59053   0.00000  Uiso   1.00
C185   C     0.69356   0.16508   0.21394   0.00000  Uiso   1.00
C186   C     0.65489   0.16569   0.11607   0.00000  Uiso   1.00
C187   C     0.66631   0.18251   0.00398   0.00000  Uiso   1.00
C188   C     0.62551   0.17997   0.92717   0.00000  Uiso   1.00
C189   C     0.57312   0.18379   0.77001   0.00000  Uiso   1.00
C190   C     0.67189   0.21830   0.30275   0.00000  Uiso   1.00
C191   C     0.69762   0.27935   0.34762   0.00000  Uiso   1.00
C192   C     0.67114   0.32109   0.42797   0.00000  Uiso   1.00
C193   C     0.64516   0.40655   0.56069   0.00000  Uiso   1.00
C194   C     0.69033   0.08769   0.26613   0.00000  Uiso   1.00
C195   C     0.73156   0.03892   0.28025   0.00000  Uiso   1.00
C196   C     0.72060   0.97070   0.32980   0.00000  Uiso   1.00
C197   C     0.72325   0.85337   0.40567   0.00000  Uiso   1.00
C198   C     0.60079   0.13066   0.27686   0.00000  Uiso   1.00
C199   C     0.60449   0.14699   0.15025   0.00000  Uiso   1.00
C200   C     0.56367   0.14442   0.07359   0.00000  Uiso   1.00
C201   C     0.57503   0.16124   0.96141   0.00000  Uiso   1.00
C202   C     0.62150   0.19960   0.33692   0.00000  Uiso   1.00
C203   C     0.59498   0.24126   0.41723   0.00000  Uiso   1.00
C204   C     0.62065   0.30236   0.46221   0.00000  Uiso   1.00
C205   C     0.63994   0.06899   0.30030   0.00000  Uiso   1.00
C206   C     0.62891   0.00083   0.34985   0.00000  Uiso   1.00
C207   C     0.67012   0.95197   0.36404   0.00000  Uiso   1.00
H208   H     0.73279   0.17964   0.18734   0.00000  Uiso   1.00
H209   H     0.70531   0.19698   0.97757   0.00000  Uiso   1.00
H210   H     0.73662   0.29380   0.32116   0.00000  Uiso   1.00
H211   H     0.77055   0.05341   0.25379   0.00000  Uiso   1.00
H212   H     0.65262   0.20799   0.76007   0.00000  Uiso   1.00
H213   H     0.71864   0.41211   0.48459   0.00000  Uiso   1.00
H214   H     0.79019   0.90521   0.34253   0.00000  Uiso   1.00
H215   H     0.56155   0.11610   0.30347   0.00000  Uiso   1.00
H216   H     0.52467   0.12995   0.10006   0.00000  Uiso   1.00
H217   H     0.55598   0.22677   0.44366   0.00000  Uiso   1.00
H218   H     0.58991   0.98638   0.37629   0.00000  Uiso   1.00
H219   H     0.50600   0.15359   0.85950   0.00000  Uiso   1.00
H220   H     0.57202   0.35771   0.58403   0.00000  Uiso   1.00
H221   H     0.64357   0.85081   0.44196   0.00000  Uiso   1.00
O222   O     0.55814   0.19107   0.67389   0.00000  Uiso   1.00
O223   O     0.64476   0.45887   0.62445   0.00000  Uiso   1.00
O224   O     0.73863   0.79382   0.43806   0.00000  Uiso   1.00
N225   N     0.62318   0.19327   0.81138   0.00000  Uiso   1.00
N226   N     0.68490   0.38412   0.48876   0.00000  Uiso   1.00
N227   N     0.75179   0.91021   0.35597   0.00000  Uiso   1.00
N228   N     0.54428   0.16399   0.86488   0.00000  Uiso   1.00
N229   N     0.60600   0.35485   0.54225   0.00000  Uiso   1.00
N230   N     0.67290   0.88094   0.40947   0.00000  Uiso   1.00
C231   C     0.19356   0.66508   0.21394   0.00000  Uiso   1.00
C232   C     0.15489   0.66569   0.11607   0.00000  Uiso   1.00
C233   C     0.16631   0.68251   0.00398   0.00000  Uiso   1.00
C234   C     0.12551   0.67997   0.92717   0.00000  Uiso   1.00
C235   C     0.07312   0.68379   0.77001   0.00000  Uiso   1.00
C236   C     0.17189   0.71830   0.30275   0.00000  Uiso   1.00
C237   C     0.19762   0.77935   0.34762   0.00000  Uiso   1.00
C238   C     0.17114   0.82109   0.42797   0.00000  Uiso   1.00
C239   C     0.14516   0.90655   0.56069   0.00000  Uiso   1.00
C240   C     0.19033   0.58769   0.26613   0.00000  Uiso   1.00
C241   C     0.23156   0.53892   0.28025   0.00000  Uiso   1.00
C242   C     0.22060   0.47070   0.32980   0.00000  Uiso   1.00
C243   C     0.22325   0.35337   0.40567   0.00000  Uiso   1.00
C244   C     0.10079   0.63066   0.27686   0.00000  Uiso   1.00
C245   C     0.10449   0.64699   0.15025   0.00000  Uiso   1.00
C246   C     0.06367   0.64442   0.07359   0.00000  Uiso   1.00
C247   C     0.07503   0.66124   0.96141   0.00000  Uiso   1.00
C248   C     0.12150   0.69960   0.33692   0.00000  Uiso   1.00
C249   C     0.09498   0.74126   0.41723   0.00000  Uiso   1.00
C250   C     0.12065   0.80236   0.46221   0.00000  Uiso   1.00
C251   C     0.13994   0.56899   0.30030   0.00000  Uiso   1.00
C252   C     0.12891   0.50083   0.34985   0.00000  Uiso   1.00
C253   C     0.17012   0.45197   0.36404   0.00000  Uiso   1.00
H254   H     0.23279   0.67964   0.18734   0.00000  Uiso   1.00
H255   H     0.20531   0.69698   0.97757   0.00000  Uiso   1.00
H256   H     0.23662   0.79380   0.32116   0.00000  Uiso   1.00
H257   H     0.27055   0.55341   0.25379   0.00000  Uiso   1.00
H258   H     0.15262   0.70799   0.76007   0.00000  Uiso   1.00
H259   H     0.21864   0.91211   0.48459   0.00000  Uiso   1.00
H260   H     0.29019   0.40521   0.34253   0.00000  Uiso   1.00
H261   H     0.06155   0.61610   0.30347   0.00000  Uiso   1.00
H262   H     0.02467   0.62995   0.10006   0.00000  Uiso   1.00
H263   H     0.05598   0.72677   0.44366   0.00000  Uiso   1.00
H264   H     0.08991   0.48638   0.37629   0.00000  Uiso   1.00
H265   H     0.00600   0.65359   0.85950   0.00000  Uiso   1.00
H266   H     0.07202   0.85771   0.58403   0.00000  Uiso   1.00
H267   H     0.14357   0.35081   0.44196   0.00000  Uiso   1.00
O268   O     0.05814   0.69107   0.67389   0.00000  Uiso   1.00
O269   O     0.14476   0.95887   0.62445   0.00000  Uiso   1.00
O270   O     0.23863   0.29382   0.43806   0.00000  Uiso   1.00
N271   N     0.12318   0.69327   0.81138   0.00000  Uiso   1.00
N272   N     0.18490   0.88412   0.48876   0.00000  Uiso   1.00
N273   N     0.25179   0.41021   0.35597   0.00000  Uiso   1.00
N274   N     0.04428   0.66399   0.86488   0.00000  Uiso   1.00
N275   N     0.10600   0.85485   0.54225   0.00000  Uiso   1.00
N276   N     0.17290   0.38094   0.40947   0.00000  Uiso   1.00
C277   C     0.30644   0.83492   0.71394   0.00000  Uiso   1.00
C278   C     0.34511   0.83431   0.61607   0.00000  Uiso   1.00
C279   C     0.33369   0.81749   0.50398   0.00000  Uiso   1.00
C280   C     0.37449   0.82003   0.42717   0.00000  Uiso   1.00
C281   C     0.42688   0.81621   0.27001   0.00000  Uiso   1.00
C282   C     0.32811   0.78170   0.80275   0.00000  Uiso   1.00
C283   C     0.30238   0.72065   0.84762   0.00000  Uiso   1.00
C284   C     0.32886   0.67891   0.92797   0.00000  Uiso   1.00
C285   C     0.35484   0.59345   0.06069   0.00000  Uiso   1.00
C286   C     0.30967   0.91231   0.76613   0.00000  Uiso   1.00
C287   C     0.26844   0.96108   0.78025   0.00000  Uiso   1.00
C288   C     0.27940   0.02930   0.82980   0.00000  Uiso   1.00
C289   C     0.27675   0.14663   0.90567   0.00000  Uiso   1.00
C290   C     0.39921   0.86934   0.77686   0.00000  Uiso   1.00
C291   C     0.39551   0.85301   0.65025   0.00000  Uiso   1.00
C292   C     0.43633   0.85558   0.57359   0.00000  Uiso   1.00
C293   C     0.42497   0.83876   0.46141   0.00000  Uiso   1.00
C294   C     0.37850   0.80040   0.83692   0.00000  Uiso   1.00
C295   C     0.40502   0.75874   0.91723   0.00000  Uiso   1.00
C296   C     0.37935   0.69764   0.96221   0.00000  Uiso   1.00
C297   C     0.36006   0.93101   0.80030   0.00000  Uiso   1.00
C298   C     0.37109   0.99917   0.84985   0.00000  Uiso   1.00
C299   C     0.32988   0.04803   0.86404   0.00000  Uiso   1.00
H300   H     0.26721   0.82036   0.68734   0.00000  Uiso   1.00
H301   H     0.29469   0.80302   0.47757   0.00000  Uiso   1.00
H302   H     0.26338   0.70620   0.82116   0.00000  Uiso   1.00
H303   H     0.22945   0.94659   0.75379   0.00000  Uiso   1.00
H304   H     0.34738   0.79201   0.26007   0.00000  Uiso   1.00
H305   H     0.28136   0.58789   0.98459   0.00000  Uiso   1.00
H306   H     0.20981   0.09479   0.84253   0.00000  Uiso   1.00
H307   H     0.43845   0.88390   0.80347   0.00000  Uiso   1.00
H308   H     0.47533   0.87005   0.60006   0.00000  Uiso   1.00
H309   H     0.44402   0.77323   0.94366   0.00000  Uiso   1.00
H310   H     0.41009   0.01362   0.87629   0.00000  Uiso   1.00
H311   H     0.49400   0.84641   0.35950   0.00000  Uiso   1.00
H312   H     0.42798   0.64229   0.08403   0.00000  Uiso   1.00
H313   H     0.35643   0.14919   0.94196   0.00000  Uiso   1.00
O314   O     0.44186   0.80893   0.17389   0.00000  Uiso   1.00
O315   O     0.35524   0.54113   0.12445   0.00000  Uiso   1.00
O316   O     0.26137   0.20618   0.93806   0.00000  Uiso   1.00
N317   N     0.37682   0.80673   0.31138   0.00000  Uiso   1.00
N318   N     0.31510   0.61588   0.98876   0.00000  Uiso   1.00
N319   N     0.24821   0.08979   0.85597   0.00000  Uiso   1.00
N320   N     0.45572   0.83601   0.36488   0.00000  Uiso   1.00
N321   N     0.39400   0.64515   0.04225   0.00000  Uiso   1.00
N322   N     0.32710   0.11906   0.90947   0.00000  Uiso   1.00
C323   C     0.80644   0.33492   0.71394   0.00000  Uiso   1.00
C324   C     0.84511   0.33431   0.61607   0.00000  Uiso   1.00
C325   C     0.83369   0.31749   0.50398   0.00000  Uiso   1.00
C326   C     0.87449   0.32003   0.42717   0.00000  Uiso   1.00
C327   C     0.92688   0.31621   0.27001   0.00000  Uiso   1.00
C328   C     0.82811   0.28170   0.80275   0.00000  Uiso   1.00
C329   C     0.80238   0.22065   0.84762   0.00000  Uiso   1.00
C330   C     0.82886   0.17891   0.92797   0.00000  Uiso   1.00
C331   C     0.85484   0.09345   0.06069   0.00000  Uiso   1.00
C332   C     0.80967   0.41231   0.76613   0.00000  Uiso   1.00
C333   C     0.76844   0.46108   0.78025   0.00000  Uiso   1.00
C334   C     0.77940   0.52930   0.82980   0.00000  Uiso   1.00
C335   C     0.77675   0.64663   0.90567   0.00000  Uiso   1.00
C336   C     0.89921   0.36934   0.77686   0.00000  Uiso   1.00
C337   C     0.89551   0.35301   0.65025   0.00000  Uiso   1.00
C338   C     0.93633   0.35558   0.57359   0.00000  Uiso   1.00
C339   C     0.92497   0.33876   0.46141   0.00000  Uiso   1.00
C340   C     0.87850   0.30040   0.83692   0.00000  Uiso   1.00
C341   C     0.90502   0.25874   0.91723   0.00000  Uiso   1.00
C342   C     0.87935   0.19764   0.96221   0.00000  Uiso   1.00
C343   C     0.86006   0.43101   0.80030   0.00000  Uiso   1.00
C344   C     0.87109   0.49917   0.84985   0.00000  Uiso   1.00
C345   C     0.82988   0.54803   0.86404   0.00000  Uiso   1.00
H346   H     0.76721   0.32036   0.68734   0.00000  Uiso   1.00
H347   H     0.79469   0.30302   0.47757   0.00000  Uiso   1.00
H348   H     0.76338   0.20620   0.82116   0.00000  Uiso   1.00
H349   H     0.72945   0.44659   0.75379   0.00000  Uiso   1.00
H350   H     0.84738   0.29201   0.26007   0.00000  Uiso   1.00
H351   H     0.78136   0.08789   0.98459   0.00000  Uiso   1.00
H352   H     0.70981   0.59479   0.84253   0.00000  Uiso   1.00
H353   H     0.93845   0.38390   0.80347   0.00000  Uiso   1.00
H354   H     0.97533   0.37005   0.60006   0.00000  Uiso   1.00
H355   H     0.94402   0.27323   0.94366   0.00000  Uiso   1.00
H356   H     0.91009   0.51362   0.87629   0.00000  Uiso   1.00
H357   H     0.99400   0.34641   0.35950   0.00000  Uiso   1.00
H358   H     0.92798   0.14229   0.08403   0.00000  Uiso   1.00
H359   H     0.85643   0.64919   0.94196   0.00000  Uiso   1.00
O360   O     0.94186   0.30893   0.17389   0.00000  Uiso   1.00
O361   O     0.85524   0.04113   0.12445   0.00000  Uiso   1.00
O362   O     0.76137   0.70618   0.93806   0.00000  Uiso   1.00
N363   N     0.87682   0.30673   0.31138   0.00000  Uiso   1.00
N364   N     0.81510   0.11588   0.98876   0.00000  Uiso   1.00
N365   N     0.74821   0.58979   0.85597   0.00000  Uiso   1.00
N366   N     0.95572   0.33601   0.36488   0.00000  Uiso   1.00
N367   N     0.89400   0.14515   0.04225   0.00000  Uiso   1.00
N368   N     0.82710   0.61906   0.90947   0.00000  Uiso   1.00
