data_job_00997
_audit_creation_date              2018-12-19
_audit_creation_method            'Materials Studio'
_symmetry_space_group_name_H-M    'P1'
_symmetry_Int_Tables_number       1
_symmetry_cell_setting            triclinic
loop_
_symmetry_equiv_pos_as_xyz
  x,y,z
_cell_length_a                    20.8214
_cell_length_b                    23.0688
_cell_length_c                    13.8599
_cell_angle_alpha                 90.0000
_cell_angle_beta                  147.3860
_cell_angle_gamma                 90.0000
loop_
_atom_site_label
_atom_site_type_symbol
_atom_site_fract_x
_atom_site_fract_y
_atom_site_fract_z
_atom_site_U_iso_or_equiv
_atom_site_adp_type
_atom_site_occupancy
C1     C     0.28797   0.89159   0.39847   0.00000  Uiso   1.00
C2     C     0.41016   0.87827   0.59581   0.00000  Uiso   1.00
C3     C     0.51215   0.86498   0.67276   0.00000  Uiso   1.00
C4     C     0.61515   0.85414   0.85557   0.00000  Uiso   1.00
C5     C     0.80474   0.83307   0.14646   0.00000  Uiso   1.00
C6     C     0.20192   0.84847   0.33540   0.00000  Uiso   1.00
C7     C     0.12883   0.81013   0.19338   0.00000  Uiso   1.00
C8     C     0.05652   0.77421   0.15697   0.00000  Uiso   1.00
C9     C     0.92275   0.70690   0.04348   0.00000  Uiso   1.00
C10    C     0.25289   0.95104   0.39291   0.00000  Uiso   1.00
C11    C     0.22261   0.99894   0.29920   0.00000  Uiso   1.00
C12    C     0.19319   0.04938   0.31117   0.00000  Uiso   1.00
C13    C     0.13855   0.14131   0.28698   0.00000  Uiso   1.00
C14    C     0.28952   0.89597   0.58630   0.00000  Uiso   1.00
C15    C     0.41099   0.88065   0.69783   0.00000  Uiso   1.00
C16    C     0.51387   0.86983   0.88058   0.00000  Uiso   1.00
C17    C     0.61600   0.85653   0.95778   0.00000  Uiso   1.00
C18    C     0.20276   0.85085   0.43742   0.00000  Uiso   1.00
C19    C     0.13054   0.81498   0.40120   0.00000  Uiso   1.00
C20    C     0.05736   0.77660   0.25917   0.00000  Uiso   1.00
C21    C     0.25373   0.95342   0.49493   0.00000  Uiso   1.00
C22    C     0.22433   0.00379   0.50704   0.00000  Uiso   1.00
C23    C     0.19402   0.05176   0.41338   0.00000  Uiso   1.00
H24    H     0.28731   0.88974   0.31903   0.00000  Uiso   1.00
H25    H     0.51146   0.86314   0.59375   0.00000  Uiso   1.00
H26    H     0.12819   0.80830   0.11444   0.00000  Uiso   1.00
H27    H     0.22197   0.99708   0.22026   0.00000  Uiso   1.00
H28    H     0.76034   0.83468   0.94331   0.00000  Uiso   1.00
H29    H     0.95215   0.71907   0.93262   0.00000  Uiso   1.00
H30    H     0.14990   0.11714   0.15576   0.00000  Uiso   1.00
H31    H     0.29017   0.89783   0.66573   0.00000  Uiso   1.00
H32    H     0.51449   0.87168   0.95949   0.00000  Uiso   1.00
H33    H     0.13121   0.81684   0.48018   0.00000  Uiso   1.00
H34    H     0.22499   0.00561   0.58600   0.00000  Uiso   1.00
H35    H     0.76279   0.84161   0.24016   0.00000  Uiso   1.00
H36    H     0.95460   0.72600   0.22946   0.00000  Uiso   1.00
H37    H     0.15236   0.12407   0.45261   0.00000  Uiso   1.00
O38    O     0.90907   0.82077   0.27872   0.00000  Uiso   1.00
O39    O     0.84874   0.66911   0.95270   0.00000  Uiso   1.00
O40    O     0.10820   0.19137   0.24547   0.00000  Uiso   1.00
N41    N     0.73014   0.83991   0.97287   0.00000  Uiso   1.00
N42    N     0.97455   0.73181   0.02795   0.00000  Uiso   1.00
N43    N     0.15939   0.10398   0.23653   0.00000  Uiso   1.00
N44    N     0.73146   0.84364   0.13260   0.00000  Uiso   1.00
N45    N     0.97587   0.73554   0.18768   0.00000  Uiso   1.00
N46    N     0.16071   0.10770   0.39626   0.00000  Uiso   1.00
C47    C     0.71203   0.39159   0.10153   0.00000  Uiso   1.00
C48    C     0.58984   0.37827   0.90419   0.00000  Uiso   1.00
C49    C     0.48785   0.36498   0.82724   0.00000  Uiso   1.00
C50    C     0.38485   0.35414   0.64443   0.00000  Uiso   1.00
C51    C     0.19526   0.33307   0.35354   0.00000  Uiso   1.00
C52    C     0.79808   0.34847   0.16460   0.00000  Uiso   1.00
C53    C     0.87117   0.31013   0.30662   0.00000  Uiso   1.00
C54    C     0.94348   0.27421   0.34303   0.00000  Uiso   1.00
C55    C     0.07725   0.20690   0.45652   0.00000  Uiso   1.00
C56    C     0.74711   0.45104   0.10709   0.00000  Uiso   1.00
C57    C     0.77739   0.49894   0.20080   0.00000  Uiso   1.00
C58    C     0.80681   0.54938   0.18883   0.00000  Uiso   1.00
C59    C     0.86145   0.64131   0.21302   0.00000  Uiso   1.00
C60    C     0.71048   0.39597   0.91370   0.00000  Uiso   1.00
C61    C     0.58901   0.38065   0.80217   0.00000  Uiso   1.00
C62    C     0.48613   0.36983   0.61942   0.00000  Uiso   1.00
C63    C     0.38400   0.35653   0.54222   0.00000  Uiso   1.00
C64    C     0.79724   0.35085   0.06258   0.00000  Uiso   1.00
C65    C     0.86946   0.31498   0.09880   0.00000  Uiso   1.00
C66    C     0.94264   0.27660   0.24083   0.00000  Uiso   1.00
C67    C     0.74627   0.45342   0.00507   0.00000  Uiso   1.00
C68    C     0.77567   0.50379   0.99296   0.00000  Uiso   1.00
C69    C     0.80598   0.55176   0.08662   0.00000  Uiso   1.00
H70    H     0.71269   0.38974   0.18097   0.00000  Uiso   1.00
H71    H     0.48854   0.36314   0.90625   0.00000  Uiso   1.00
H72    H     0.87181   0.30830   0.38556   0.00000  Uiso   1.00
H73    H     0.77803   0.49708   0.27974   0.00000  Uiso   1.00
H74    H     0.23966   0.33468   0.55669   0.00000  Uiso   1.00
H75    H     0.04785   0.21907   0.56738   0.00000  Uiso   1.00
H76    H     0.85010   0.61714   0.34424   0.00000  Uiso   1.00
H77    H     0.70983   0.39783   0.83427   0.00000  Uiso   1.00
H78    H     0.48551   0.37168   0.54051   0.00000  Uiso   1.00
H79    H     0.86879   0.31684   0.01982   0.00000  Uiso   1.00
H80    H     0.77501   0.50561   0.91400   0.00000  Uiso   1.00
H81    H     0.23721   0.34161   0.25984   0.00000  Uiso   1.00
H82    H     0.04540   0.22600   0.27054   0.00000  Uiso   1.00
H83    H     0.84764   0.62407   0.04739   0.00000  Uiso   1.00
O84    O     0.09093   0.32077   0.22128   0.00000  Uiso   1.00
O85    O     0.15126   0.16911   0.54730   0.00000  Uiso   1.00
O86    O     0.89180   0.69137   0.25453   0.00000  Uiso   1.00
N87    N     0.26986   0.33991   0.52713   0.00000  Uiso   1.00
N88    N     0.02545   0.23181   0.47205   0.00000  Uiso   1.00
N89    N     0.84061   0.60398   0.26347   0.00000  Uiso   1.00
N90    N     0.26854   0.34364   0.36740   0.00000  Uiso   1.00
N91    N     0.02413   0.23554   0.31232   0.00000  Uiso   1.00
N92    N     0.83929   0.60770   0.10374   0.00000  Uiso   1.00
C93    C     0.71203   0.10841   0.60153   0.00000  Uiso   1.00
C94    C     0.58984   0.12173   0.40419   0.00000  Uiso   1.00
C95    C     0.48785   0.13502   0.32724   0.00000  Uiso   1.00
C96    C     0.38485   0.14586   0.14443   0.00000  Uiso   1.00
C97    C     0.19526   0.16693   0.85354   0.00000  Uiso   1.00
C98    C     0.79808   0.15153   0.66460   0.00000  Uiso   1.00
C99    C     0.87117   0.18987   0.80662   0.00000  Uiso   1.00
C100   C     0.94348   0.22579   0.84303   0.00000  Uiso   1.00
C101   C     0.07725   0.29310   0.95652   0.00000  Uiso   1.00
C102   C     0.74711   0.04896   0.60709   0.00000  Uiso   1.00
C103   C     0.77739   0.00106   0.70080   0.00000  Uiso   1.00
C104   C     0.80681   0.95062   0.68883   0.00000  Uiso   1.00
C105   C     0.86145   0.85869   0.71302   0.00000  Uiso   1.00
C106   C     0.71048   0.10403   0.41370   0.00000  Uiso   1.00
C107   C     0.58901   0.11935   0.30217   0.00000  Uiso   1.00
C108   C     0.48613   0.13017   0.11942   0.00000  Uiso   1.00
C109   C     0.38400   0.14347   0.04222   0.00000  Uiso   1.00
C110   C     0.79724   0.14915   0.56258   0.00000  Uiso   1.00
C111   C     0.86946   0.18502   0.59880   0.00000  Uiso   1.00
C112   C     0.94264   0.22340   0.74083   0.00000  Uiso   1.00
C113   C     0.74627   0.04658   0.50507   0.00000  Uiso   1.00
C114   C     0.77567   0.99621   0.49296   0.00000  Uiso   1.00
C115   C     0.80598   0.94824   0.58662   0.00000  Uiso   1.00
H116   H     0.71269   0.11026   0.68097   0.00000  Uiso   1.00
H117   H     0.48854   0.13686   0.40625   0.00000  Uiso   1.00
H118   H     0.87181   0.19170   0.88556   0.00000  Uiso   1.00
H119   H     0.77803   0.00292   0.77974   0.00000  Uiso   1.00
H120   H     0.23966   0.16532   0.05669   0.00000  Uiso   1.00
H121   H     0.04785   0.28093   0.06738   0.00000  Uiso   1.00
H122   H     0.85010   0.88286   0.84424   0.00000  Uiso   1.00
H123   H     0.70983   0.10217   0.33427   0.00000  Uiso   1.00
H124   H     0.48551   0.12832   0.04051   0.00000  Uiso   1.00
H125   H     0.86879   0.18316   0.51982   0.00000  Uiso   1.00
H126   H     0.77501   0.99439   0.41400   0.00000  Uiso   1.00
H127   H     0.23721   0.15839   0.75984   0.00000  Uiso   1.00
H128   H     0.04540   0.27400   0.77054   0.00000  Uiso   1.00
H129   H     0.84764   0.87593   0.54739   0.00000  Uiso   1.00
O130   O     0.09093   0.17923   0.72128   0.00000  Uiso   1.00
O131   O     0.15126   0.33089   0.04730   0.00000  Uiso   1.00
O132   O     0.89180   0.80863   0.75453   0.00000  Uiso   1.00
N133   N     0.26986   0.16009   0.02713   0.00000  Uiso   1.00
N134   N     0.02545   0.26819   0.97205   0.00000  Uiso   1.00
N135   N     0.84061   0.89602   0.76347   0.00000  Uiso   1.00
N136   N     0.26854   0.15636   0.86740   0.00000  Uiso   1.00
N137   N     0.02413   0.26446   0.81232   0.00000  Uiso   1.00
N138   N     0.83929   0.89230   0.60374   0.00000  Uiso   1.00
C139   C     0.28797   0.60841   0.89847   0.00000  Uiso   1.00
C140   C     0.41016   0.62173   0.09581   0.00000  Uiso   1.00
C141   C     0.51215   0.63502   0.17276   0.00000  Uiso   1.00
C142   C     0.61515   0.64586   0.35557   0.00000  Uiso   1.00
C143   C     0.80474   0.66693   0.64646   0.00000  Uiso   1.00
C144   C     0.20192   0.65153   0.83540   0.00000  Uiso   1.00
C145   C     0.12883   0.68987   0.69338   0.00000  Uiso   1.00
C146   C     0.05652   0.72579   0.65697   0.00000  Uiso   1.00
C147   C     0.92275   0.79310   0.54348   0.00000  Uiso   1.00
C148   C     0.25289   0.54896   0.89291   0.00000  Uiso   1.00
C149   C     0.22261   0.50106   0.79920   0.00000  Uiso   1.00
C150   C     0.19319   0.45062   0.81117   0.00000  Uiso   1.00
C151   C     0.13855   0.35869   0.78698   0.00000  Uiso   1.00
C152   C     0.28952   0.60403   0.08630   0.00000  Uiso   1.00
C153   C     0.41099   0.61935   0.19783   0.00000  Uiso   1.00
C154   C     0.51387   0.63017   0.38058   0.00000  Uiso   1.00
C155   C     0.61600   0.64347   0.45778   0.00000  Uiso   1.00
C156   C     0.20276   0.64915   0.93742   0.00000  Uiso   1.00
C157   C     0.13054   0.68502   0.90120   0.00000  Uiso   1.00
C158   C     0.05736   0.72340   0.75917   0.00000  Uiso   1.00
C159   C     0.25373   0.54658   0.99493   0.00000  Uiso   1.00
C160   C     0.22433   0.49621   0.00704   0.00000  Uiso   1.00
C161   C     0.19402   0.44824   0.91338   0.00000  Uiso   1.00
H162   H     0.28731   0.61026   0.81903   0.00000  Uiso   1.00
H163   H     0.51146   0.63686   0.09375   0.00000  Uiso   1.00
H164   H     0.12819   0.69170   0.61444   0.00000  Uiso   1.00
H165   H     0.22197   0.50292   0.72026   0.00000  Uiso   1.00
H166   H     0.76034   0.66532   0.44331   0.00000  Uiso   1.00
H167   H     0.95215   0.78093   0.43262   0.00000  Uiso   1.00
H168   H     0.14990   0.38286   0.65576   0.00000  Uiso   1.00
H169   H     0.29017   0.60217   0.16573   0.00000  Uiso   1.00
H170   H     0.51449   0.62832   0.45949   0.00000  Uiso   1.00
H171   H     0.13121   0.68316   0.98018   0.00000  Uiso   1.00
H172   H     0.22499   0.49439   0.08600   0.00000  Uiso   1.00
H173   H     0.76279   0.65839   0.74016   0.00000  Uiso   1.00
H174   H     0.95460   0.77400   0.72946   0.00000  Uiso   1.00
H175   H     0.15236   0.37593   0.95261   0.00000  Uiso   1.00
O176   O     0.90907   0.67923   0.77872   0.00000  Uiso   1.00
O177   O     0.84874   0.83089   0.45270   0.00000  Uiso   1.00
O178   O     0.10820   0.30863   0.74547   0.00000  Uiso   1.00
N179   N     0.73014   0.66009   0.47287   0.00000  Uiso   1.00
N180   N     0.97455   0.76819   0.52795   0.00000  Uiso   1.00
N181   N     0.15939   0.39602   0.73653   0.00000  Uiso   1.00
N182   N     0.73146   0.65636   0.63260   0.00000  Uiso   1.00
N183   N     0.97587   0.76446   0.68768   0.00000  Uiso   1.00
N184   N     0.16071   0.39230   0.89626   0.00000  Uiso   1.00
