data_job_02782
_audit_creation_date              2018-12-19
_audit_creation_method            'Materials Studio'
_symmetry_space_group_name_H-M    'P1'
_symmetry_Int_Tables_number       1
_symmetry_cell_setting            triclinic
loop_
_symmetry_equiv_pos_as_xyz
  x,y,z
_cell_length_a                    7.6969
_cell_length_b                    27.8444
_cell_length_c                    12.4656
_cell_angle_alpha                 90.0000
_cell_angle_beta                  106.3420
_cell_angle_gamma                 90.0000
loop_
_atom_site_label
_atom_site_type_symbol
_atom_site_fract_x
_atom_site_fract_y
_atom_site_fract_z
_atom_site_U_iso_or_equiv
_atom_site_adp_type
_atom_site_occupancy
C1     C     0.49384   0.65416   0.21024   0.00000  Uiso   1.00
C2     C     0.37484   0.69873   0.18054   0.00000  Uiso   1.00
C3     C     0.42985   0.74561   0.20928   0.00000  Uiso   1.00
C4     C     0.30059   0.78137   0.17423   0.00000  Uiso   1.00
C5     C     0.14285   0.85222   0.13753   0.00000  Uiso   1.00
C6     C     0.39858   0.62089   0.27279   0.00000  Uiso   1.00
C7     C     0.47355   0.60231   0.37909   0.00000  Uiso   1.00
C8     C     0.36428   0.57254   0.42168   0.00000  Uiso   1.00
C9     C     0.24343   0.52251   0.52817   0.00000  Uiso   1.00
C10    C     0.48375   0.62925   0.09971   0.00000  Uiso   1.00
C11    C     0.63034   0.61770   0.06049   0.00000  Uiso   1.00
C12    C     0.59278   0.59496   0.95736   0.00000  Uiso   1.00
C13    C     0.60417   0.55791   0.79511   0.00000  Uiso   1.00
C14    C     0.16648   0.63431   0.09687   0.00000  Uiso   1.00
C15    C     0.19703   0.68795   0.11896   0.00000  Uiso   1.00
C16    C     0.06766   0.72365   0.08385   0.00000  Uiso   1.00
C17    C     0.12246   0.77057   0.11253   0.00000  Uiso   1.00
C18    C     0.22077   0.61011   0.21121   0.00000  Uiso   1.00
C19    C     0.11136   0.58036   0.25365   0.00000  Uiso   1.00
C20    C     0.18615   0.56174   0.35999   0.00000  Uiso   1.00
C21    C     0.30594   0.61847   0.03812   0.00000  Uiso   1.00
C22    C     0.26814   0.59574   0.93505   0.00000  Uiso   1.00
C23    C     0.41465   0.58416   0.89567   0.00000  Uiso   1.00
H24    H     0.63227   0.66255   0.25819   0.00000  Uiso   1.00
H25    H     0.56746   0.75393   0.25695   0.00000  Uiso   1.00
H26    H     0.61116   0.61066   0.42672   0.00000  Uiso   1.00
H27    H     0.76792   0.62604   0.10816   0.00000  Uiso   1.00
H28    H     0.41718   0.85050   0.22846   0.00000  Uiso   1.00
H29    H     0.50935   0.54838   0.58641   0.00000  Uiso   1.00
H30    H     0.83990   0.58082   0.91467   0.00000  Uiso   1.00
H31    H     0.02804   0.62592   0.04892   0.00000  Uiso   1.00
H32    H     0.93007   0.71530   0.03620   0.00000  Uiso   1.00
H33    H     0.97377   0.57202   0.20597   0.00000  Uiso   1.00
H34    H     0.13053   0.58741   0.88742   0.00000  Uiso   1.00
H35    H     0.89985   0.81914   0.04929   0.00000  Uiso   1.00
H36    H     0.99202   0.51702   0.40725   0.00000  Uiso   1.00
H37    H     0.32257   0.54946   0.73551   0.00000  Uiso   1.00
O38    O     0.10495   0.89427   0.13431   0.00000  Uiso   1.00
O39    O     0.22589   0.49790   0.60392   0.00000  Uiso   1.00
O40    O     0.65957   0.54046   0.72262   0.00000  Uiso   1.00
N41    N     0.30888   0.83085   0.18802   0.00000  Uiso   1.00
N42    N     0.39504   0.54839   0.52269   0.00000  Uiso   1.00
N43    N     0.70409   0.57871   0.89469   0.00000  Uiso   1.00
N44    N     0.03051   0.81398   0.09161   0.00000  Uiso   1.00
N45    N     0.11667   0.53152   0.42628   0.00000  Uiso   1.00
N46    N     0.42572   0.56184   0.79828   0.00000  Uiso   1.00
C47    C     0.50616   0.15416   0.28976   0.00000  Uiso   1.00
C48    C     0.62516   0.19873   0.31946   0.00000  Uiso   1.00
C49    C     0.57015   0.24561   0.29072   0.00000  Uiso   1.00
C50    C     0.69941   0.28137   0.32577   0.00000  Uiso   1.00
C51    C     0.85715   0.35222   0.36247   0.00000  Uiso   1.00
C52    C     0.60142   0.12089   0.22721   0.00000  Uiso   1.00
C53    C     0.52645   0.10231   0.12091   0.00000  Uiso   1.00
C54    C     0.63572   0.07254   0.07832   0.00000  Uiso   1.00
C55    C     0.75657   0.02251   0.97183   0.00000  Uiso   1.00
C56    C     0.51625   0.12925   0.40029   0.00000  Uiso   1.00
C57    C     0.36966   0.11770   0.43951   0.00000  Uiso   1.00
C58    C     0.40722   0.09496   0.54264   0.00000  Uiso   1.00
C59    C     0.39583   0.05791   0.70489   0.00000  Uiso   1.00
C60    C     0.83352   0.13431   0.40313   0.00000  Uiso   1.00
C61    C     0.80297   0.18795   0.38104   0.00000  Uiso   1.00
C62    C     0.93234   0.22365   0.41615   0.00000  Uiso   1.00
C63    C     0.87754   0.27057   0.38747   0.00000  Uiso   1.00
C64    C     0.77923   0.11011   0.28879   0.00000  Uiso   1.00
C65    C     0.88864   0.08036   0.24635   0.00000  Uiso   1.00
C66    C     0.81385   0.06174   0.14001   0.00000  Uiso   1.00
C67    C     0.69406   0.11847   0.46188   0.00000  Uiso   1.00
C68    C     0.73186   0.09574   0.56495   0.00000  Uiso   1.00
C69    C     0.58535   0.08416   0.60433   0.00000  Uiso   1.00
H70    H     0.36773   0.16255   0.24181   0.00000  Uiso   1.00
H71    H     0.43254   0.25393   0.24305   0.00000  Uiso   1.00
H72    H     0.38884   0.11066   0.07328   0.00000  Uiso   1.00
H73    H     0.23208   0.12604   0.39184   0.00000  Uiso   1.00
H74    H     0.58282   0.35050   0.27154   0.00000  Uiso   1.00
H75    H     0.49065   0.04838   0.91359   0.00000  Uiso   1.00
H76    H     0.16010   0.08082   0.58533   0.00000  Uiso   1.00
H77    H     0.97196   0.12592   0.45108   0.00000  Uiso   1.00
H78    H     0.06993   0.21530   0.46380   0.00000  Uiso   1.00
H79    H     0.02623   0.07202   0.29403   0.00000  Uiso   1.00
H80    H     0.86947   0.08741   0.61258   0.00000  Uiso   1.00
H81    H     0.10015   0.31914   0.45071   0.00000  Uiso   1.00
H82    H     0.00798   0.01702   0.09275   0.00000  Uiso   1.00
H83    H     0.67743   0.04946   0.76449   0.00000  Uiso   1.00
O84    O     0.89505   0.39427   0.36569   0.00000  Uiso   1.00
O85    O     0.77411   0.99790   0.89608   0.00000  Uiso   1.00
O86    O     0.34043   0.04046   0.77738   0.00000  Uiso   1.00
N87    N     0.69112   0.33085   0.31198   0.00000  Uiso   1.00
N88    N     0.60496   0.04839   0.97731   0.00000  Uiso   1.00
N89    N     0.29591   0.07871   0.60531   0.00000  Uiso   1.00
N90    N     0.96949   0.31398   0.40839   0.00000  Uiso   1.00
N91    N     0.88333   0.03152   0.07372   0.00000  Uiso   1.00
N92    N     0.57428   0.06184   0.70172   0.00000  Uiso   1.00
C93    C     0.50616   0.34584   0.78976   0.00000  Uiso   1.00
C94    C     0.62516   0.30127   0.81946   0.00000  Uiso   1.00
C95    C     0.57015   0.25439   0.79072   0.00000  Uiso   1.00
C96    C     0.69941   0.21863   0.82577   0.00000  Uiso   1.00
C97    C     0.85715   0.14778   0.86247   0.00000  Uiso   1.00
C98    C     0.60142   0.37911   0.72721   0.00000  Uiso   1.00
C99    C     0.52645   0.39769   0.62091   0.00000  Uiso   1.00
C100   C     0.63572   0.42746   0.57832   0.00000  Uiso   1.00
C101   C     0.75657   0.47749   0.47183   0.00000  Uiso   1.00
C102   C     0.51625   0.37075   0.90029   0.00000  Uiso   1.00
C103   C     0.36966   0.38230   0.93951   0.00000  Uiso   1.00
C104   C     0.40722   0.40504   0.04264   0.00000  Uiso   1.00
C105   C     0.39583   0.44209   0.20489   0.00000  Uiso   1.00
C106   C     0.83352   0.36569   0.90313   0.00000  Uiso   1.00
C107   C     0.80297   0.31205   0.88104   0.00000  Uiso   1.00
C108   C     0.93234   0.27635   0.91615   0.00000  Uiso   1.00
C109   C     0.87754   0.22943   0.88747   0.00000  Uiso   1.00
C110   C     0.77923   0.38989   0.78879   0.00000  Uiso   1.00
C111   C     0.88864   0.41964   0.74635   0.00000  Uiso   1.00
C112   C     0.81385   0.43826   0.64001   0.00000  Uiso   1.00
C113   C     0.69406   0.38153   0.96188   0.00000  Uiso   1.00
C114   C     0.73186   0.40426   0.06495   0.00000  Uiso   1.00
C115   C     0.58535   0.41584   0.10433   0.00000  Uiso   1.00
H116   H     0.36773   0.33745   0.74181   0.00000  Uiso   1.00
H117   H     0.43254   0.24607   0.74305   0.00000  Uiso   1.00
H118   H     0.38884   0.38934   0.57328   0.00000  Uiso   1.00
H119   H     0.23208   0.37396   0.89184   0.00000  Uiso   1.00
H120   H     0.58282   0.14950   0.77154   0.00000  Uiso   1.00
H121   H     0.49065   0.45162   0.41359   0.00000  Uiso   1.00
H122   H     0.16010   0.41918   0.08533   0.00000  Uiso   1.00
H123   H     0.97196   0.37408   0.95108   0.00000  Uiso   1.00
H124   H     0.06993   0.28470   0.96380   0.00000  Uiso   1.00
H125   H     0.02623   0.42798   0.79403   0.00000  Uiso   1.00
H126   H     0.86947   0.41259   0.11258   0.00000  Uiso   1.00
H127   H     0.10015   0.18086   0.95071   0.00000  Uiso   1.00
H128   H     0.00798   0.48298   0.59275   0.00000  Uiso   1.00
H129   H     0.67743   0.45054   0.26449   0.00000  Uiso   1.00
O130   O     0.89505   0.10573   0.86569   0.00000  Uiso   1.00
O131   O     0.77411   0.50210   0.39608   0.00000  Uiso   1.00
O132   O     0.34043   0.45954   0.27738   0.00000  Uiso   1.00
N133   N     0.69112   0.16915   0.81198   0.00000  Uiso   1.00
N134   N     0.60496   0.45161   0.47731   0.00000  Uiso   1.00
N135   N     0.29591   0.42129   0.10531   0.00000  Uiso   1.00
N136   N     0.96949   0.18602   0.90839   0.00000  Uiso   1.00
N137   N     0.88333   0.46848   0.57372   0.00000  Uiso   1.00
N138   N     0.57428   0.43816   0.20172   0.00000  Uiso   1.00
C139   C     0.49384   0.84584   0.71024   0.00000  Uiso   1.00
C140   C     0.37484   0.80127   0.68054   0.00000  Uiso   1.00
C141   C     0.42985   0.75439   0.70928   0.00000  Uiso   1.00
C142   C     0.30059   0.71863   0.67423   0.00000  Uiso   1.00
C143   C     0.14285   0.64778   0.63753   0.00000  Uiso   1.00
C144   C     0.39858   0.87911   0.77279   0.00000  Uiso   1.00
C145   C     0.47355   0.89769   0.87909   0.00000  Uiso   1.00
C146   C     0.36428   0.92746   0.92168   0.00000  Uiso   1.00
C147   C     0.24343   0.97749   0.02817   0.00000  Uiso   1.00
C148   C     0.48375   0.87075   0.59971   0.00000  Uiso   1.00
C149   C     0.63034   0.88230   0.56049   0.00000  Uiso   1.00
C150   C     0.59278   0.90504   0.45736   0.00000  Uiso   1.00
C151   C     0.60417   0.94209   0.29511   0.00000  Uiso   1.00
C152   C     0.16648   0.86569   0.59687   0.00000  Uiso   1.00
C153   C     0.19703   0.81205   0.61896   0.00000  Uiso   1.00
C154   C     0.06766   0.77635   0.58385   0.00000  Uiso   1.00
C155   C     0.12246   0.72943   0.61253   0.00000  Uiso   1.00
C156   C     0.22077   0.88989   0.71121   0.00000  Uiso   1.00
C157   C     0.11136   0.91964   0.75365   0.00000  Uiso   1.00
C158   C     0.18615   0.93826   0.85999   0.00000  Uiso   1.00
C159   C     0.30594   0.88153   0.53812   0.00000  Uiso   1.00
C160   C     0.26814   0.90426   0.43505   0.00000  Uiso   1.00
C161   C     0.41465   0.91584   0.39567   0.00000  Uiso   1.00
H162   H     0.63227   0.83745   0.75819   0.00000  Uiso   1.00
H163   H     0.56746   0.74607   0.75695   0.00000  Uiso   1.00
H164   H     0.61116   0.88934   0.92672   0.00000  Uiso   1.00
H165   H     0.76792   0.87396   0.60816   0.00000  Uiso   1.00
H166   H     0.41718   0.64950   0.72846   0.00000  Uiso   1.00
H167   H     0.50935   0.95162   0.08641   0.00000  Uiso   1.00
H168   H     0.83990   0.91918   0.41467   0.00000  Uiso   1.00
H169   H     0.02804   0.87408   0.54892   0.00000  Uiso   1.00
H170   H     0.93007   0.78470   0.53620   0.00000  Uiso   1.00
H171   H     0.97377   0.92798   0.70597   0.00000  Uiso   1.00
H172   H     0.13053   0.91259   0.38742   0.00000  Uiso   1.00
H173   H     0.89985   0.68086   0.54929   0.00000  Uiso   1.00
H174   H     0.99202   0.98298   0.90725   0.00000  Uiso   1.00
H175   H     0.32257   0.95054   0.23551   0.00000  Uiso   1.00
O176   O     0.10495   0.60573   0.63431   0.00000  Uiso   1.00
O177   O     0.22589   0.00210   0.10392   0.00000  Uiso   1.00
O178   O     0.65957   0.95954   0.22262   0.00000  Uiso   1.00
N179   N     0.30888   0.66915   0.68802   0.00000  Uiso   1.00
N180   N     0.39504   0.95161   0.02269   0.00000  Uiso   1.00
N181   N     0.70409   0.92129   0.39469   0.00000  Uiso   1.00
N182   N     0.03051   0.68602   0.59161   0.00000  Uiso   1.00
N183   N     0.11667   0.96848   0.92628   0.00000  Uiso   1.00
N184   N     0.42572   0.93816   0.29828   0.00000  Uiso   1.00
