data_job_00274
_audit_creation_date              2018-12-19
_audit_creation_method            'Materials Studio'
_symmetry_space_group_name_H-M    'P1'
_symmetry_Int_Tables_number       1
_symmetry_cell_setting            triclinic
loop_
_symmetry_equiv_pos_as_xyz
  x,y,z
_cell_length_a                    9.9962
_cell_length_b                    23.1713
_cell_length_c                    7.2935
_cell_angle_alpha                 90.0000
_cell_angle_beta                  68.6064
_cell_angle_gamma                 90.0000
loop_
_atom_site_label
_atom_site_type_symbol
_atom_site_fract_x
_atom_site_fract_y
_atom_site_fract_z
_atom_site_U_iso_or_equiv
_atom_site_adp_type
_atom_site_occupancy
C1     C     0.13873   0.80089   0.25405   0.00000  Uiso   1.00
C2     C     0.98763   0.80087   0.41043   0.00000  Uiso   1.00
C3     C     0.86053   0.80087   0.37449   0.00000  Uiso   1.00
C4     C     0.73334   0.80087   0.53753   0.00000  Uiso   1.00
C5     C     0.49871   0.80088   0.75114   0.00000  Uiso   1.00
C6     C     0.21429   0.85347   0.29699   0.00000  Uiso   1.00
C7     C     0.27777   0.89768   0.16566   0.00000  Uiso   1.00
C8     C     0.34139   0.94194   0.23321   0.00000  Uiso   1.00
C9     C     0.45873   0.02358   0.27065   0.00000  Uiso   1.00
C10    C     0.21436   0.74833   0.29694   0.00000  Uiso   1.00
C11    C     0.27795   0.70414   0.16556   0.00000  Uiso   1.00
C12    C     0.34167   0.65990   0.23305   0.00000  Uiso   1.00
C13    C     0.45913   0.57829   0.27043   0.00000  Uiso   1.00
C14    C     0.13886   0.80089   0.60749   0.00000  Uiso   1.00
C15    C     0.98771   0.80087   0.60240   0.00000  Uiso   1.00
C16    C     0.86067   0.80087   0.76554   0.00000  Uiso   1.00
C17    C     0.73340   0.80087   0.72985   0.00000  Uiso   1.00
C18    C     0.21436   0.85347   0.48896   0.00000  Uiso   1.00
C19    C     0.27791   0.89768   0.55670   0.00000  Uiso   1.00
C20    C     0.34146   0.94195   0.42553   0.00000  Uiso   1.00
C21    C     0.21443   0.74833   0.48892   0.00000  Uiso   1.00
C22    C     0.27808   0.70414   0.55661   0.00000  Uiso   1.00
C23    C     0.34174   0.65990   0.42537   0.00000  Uiso   1.00
H24    H     0.13869   0.80089   0.10459   0.00000  Uiso   1.00
H25    H     0.86052   0.80088   0.22590   0.00000  Uiso   1.00
H26    H     0.27771   0.89766   0.01711   0.00000  Uiso   1.00
H27    H     0.27788   0.70416   0.01702   0.00000  Uiso   1.00
H28    H     0.55216   0.80088   0.44507   0.00000  Uiso   1.00
H29    H     0.43186   0.00495   0.00478   0.00000  Uiso   1.00
H30    H     0.43222   0.59691   0.00459   0.00000  Uiso   1.00
H31    H     0.13891   0.80089   0.75696   0.00000  Uiso   1.00
H32    H     0.86076   0.80087   0.91408   0.00000  Uiso   1.00
H33    H     0.27794   0.89766   0.70527   0.00000  Uiso   1.00
H34    H     0.27811   0.70416   0.70518   0.00000  Uiso   1.00
H35    H     0.55235   0.80088   0.00361   0.00000  Uiso   1.00
H36    H     0.43206   0.00495   0.56332   0.00000  Uiso   1.00
H37    H     0.43241   0.59691   0.56313   0.00000  Uiso   1.00
O38    O     0.36927   0.80089   0.81593   0.00000  Uiso   1.00
O39    O     0.52343   0.06862   0.23828   0.00000  Uiso   1.00
O40    O     0.52389   0.53327   0.23802   0.00000  Uiso   1.00
N41    N     0.59038   0.80087   0.55496   0.00000  Uiso   1.00
N42    N     0.41282   0.99167   0.14333   0.00000  Uiso   1.00
N43    N     0.41320   0.61019   0.14313   0.00000  Uiso   1.00
N44    N     0.59048   0.80087   0.85551   0.00000  Uiso   1.00
N45    N     0.41293   0.99167   0.44388   0.00000  Uiso   1.00
N46    N     0.41330   0.61019   0.44368   0.00000  Uiso   1.00
C47    C     0.86127   0.30089   0.74595   0.00000  Uiso   1.00
C48    C     0.01237   0.30087   0.58957   0.00000  Uiso   1.00
C49    C     0.13947   0.30087   0.62551   0.00000  Uiso   1.00
C50    C     0.26666   0.30087   0.46247   0.00000  Uiso   1.00
C51    C     0.50129   0.30088   0.24886   0.00000  Uiso   1.00
C52    C     0.78571   0.35347   0.70301   0.00000  Uiso   1.00
C53    C     0.72223   0.39768   0.83434   0.00000  Uiso   1.00
C54    C     0.65861   0.44194   0.76679   0.00000  Uiso   1.00
C55    C     0.54127   0.52358   0.72935   0.00000  Uiso   1.00
C56    C     0.78564   0.24833   0.70306   0.00000  Uiso   1.00
C57    C     0.72205   0.20414   0.83444   0.00000  Uiso   1.00
C58    C     0.65833   0.15990   0.76695   0.00000  Uiso   1.00
C59    C     0.54087   0.07829   0.72957   0.00000  Uiso   1.00
C60    C     0.86114   0.30089   0.39251   0.00000  Uiso   1.00
C61    C     0.01229   0.30087   0.39760   0.00000  Uiso   1.00
C62    C     0.13933   0.30087   0.23446   0.00000  Uiso   1.00
C63    C     0.26660   0.30087   0.27015   0.00000  Uiso   1.00
C64    C     0.78564   0.35347   0.51104   0.00000  Uiso   1.00
C65    C     0.72209   0.39768   0.44330   0.00000  Uiso   1.00
C66    C     0.65854   0.44195   0.57447   0.00000  Uiso   1.00
C67    C     0.78557   0.24833   0.51108   0.00000  Uiso   1.00
C68    C     0.72192   0.20414   0.44339   0.00000  Uiso   1.00
C69    C     0.65826   0.15990   0.57463   0.00000  Uiso   1.00
H70    H     0.86131   0.30089   0.89541   0.00000  Uiso   1.00
H71    H     0.13948   0.30088   0.77410   0.00000  Uiso   1.00
H72    H     0.72229   0.39766   0.98289   0.00000  Uiso   1.00
H73    H     0.72212   0.20416   0.98298   0.00000  Uiso   1.00
H74    H     0.44784   0.30088   0.55493   0.00000  Uiso   1.00
H75    H     0.56814   0.50495   0.99522   0.00000  Uiso   1.00
H76    H     0.56778   0.09691   0.99541   0.00000  Uiso   1.00
H77    H     0.86109   0.30089   0.24304   0.00000  Uiso   1.00
H78    H     0.13924   0.30087   0.08592   0.00000  Uiso   1.00
H79    H     0.72206   0.39766   0.29473   0.00000  Uiso   1.00
H80    H     0.72189   0.20416   0.29482   0.00000  Uiso   1.00
H81    H     0.44765   0.30088   0.99639   0.00000  Uiso   1.00
H82    H     0.56794   0.50495   0.43668   0.00000  Uiso   1.00
H83    H     0.56759   0.09691   0.43687   0.00000  Uiso   1.00
O84    O     0.63073   0.30089   0.18407   0.00000  Uiso   1.00
O85    O     0.47657   0.56862   0.76172   0.00000  Uiso   1.00
O86    O     0.47611   0.03327   0.76198   0.00000  Uiso   1.00
N87    N     0.40962   0.30087   0.44504   0.00000  Uiso   1.00
N88    N     0.58718   0.49167   0.85667   0.00000  Uiso   1.00
N89    N     0.58680   0.11019   0.85687   0.00000  Uiso   1.00
N90    N     0.40952   0.30087   0.14449   0.00000  Uiso   1.00
N91    N     0.58707   0.49167   0.55612   0.00000  Uiso   1.00
N92    N     0.58670   0.11019   0.55632   0.00000  Uiso   1.00
