data_job_00943
_audit_creation_date              2018-12-19
_audit_creation_method            'Materials Studio'
_symmetry_space_group_name_H-M    'P1'
_symmetry_Int_Tables_number       1
_symmetry_cell_setting            triclinic
loop_
_symmetry_equiv_pos_as_xyz
  x,y,z
_cell_length_a                    21.1075
_cell_length_b                    7.2186
_cell_length_c                    22.9267
_cell_angle_alpha                 90.0000
_cell_angle_beta                  136.9150
_cell_angle_gamma                 90.0000
loop_
_atom_site_label
_atom_site_type_symbol
_atom_site_fract_x
_atom_site_fract_y
_atom_site_fract_z
_atom_site_U_iso_or_equiv
_atom_site_adp_type
_atom_site_occupancy
C1     C     0.74382   0.39871   0.56904   0.00000  Uiso   1.00
C2     C     0.80010   0.25915   0.64210   0.00000  Uiso   1.00
C3     C     0.85525   0.29991   0.72711   0.00000  Uiso   1.00
C4     C     0.90118   0.15278   0.78420   0.00000  Uiso   1.00
C5     C     0.98997   0.96367   0.90177   0.00000  Uiso   1.00
C6     C     0.77616   0.37866   0.52777   0.00000  Uiso   1.00
C7     C     0.81116   0.51992   0.51664   0.00000  Uiso   1.00
C8     C     0.83692   0.47339   0.47748   0.00000  Uiso   1.00
C9     C     0.88848   0.46986   0.41749   0.00000  Uiso   1.00
C10    C     0.64390   0.32959   0.50314   0.00000  Uiso   1.00
C11    C     0.56769   0.42960   0.47128   0.00000  Uiso   1.00
C12    C     0.48209   0.34177   0.41137   0.00000  Uiso   1.00
C13    C     0.32830   0.26205   0.31314   0.00000  Uiso   1.00
C14    C     0.72733   0.06494   0.51928   0.00000  Uiso   1.00
C15    C     0.79114   0.07786   0.61507   0.00000  Uiso   1.00
C16    C     0.83700   0.93063   0.67205   0.00000  Uiso   1.00
C17    C     0.89220   0.97116   0.75713   0.00000  Uiso   1.00
C18    C     0.76720   0.19738   0.50075   0.00000  Uiso   1.00
C19    C     0.79291   0.15064   0.46159   0.00000  Uiso   1.00
C20    C     0.82795   0.29178   0.45040   0.00000  Uiso   1.00
C21    C     0.63494   0.14830   0.47612   0.00000  Uiso   1.00
C22    C     0.54945   0.06031   0.41623   0.00000  Uiso   1.00
C23    C     0.47312   0.16016   0.38429   0.00000  Uiso   1.00
H24    H     0.75079   0.53985   0.59008   0.00000  Uiso   1.00
H25    H     0.86217   0.44023   0.74800   0.00000  Uiso   1.00
H26    H     0.81808   0.66020   0.53755   0.00000  Uiso   1.00
H27    H     0.57465   0.56989   0.49221   0.00000  Uiso   1.00
H28    H     0.98172   0.24984   0.91117   0.00000  Uiso   1.00
H29    H     0.88873   0.71367   0.46741   0.00000  Uiso   1.00
H30    H     0.37540   0.52324   0.37179   0.00000  Uiso   1.00
H31    H     0.72035   0.92379   0.49824   0.00000  Uiso   1.00
H32    H     0.83006   0.79035   0.65112   0.00000  Uiso   1.00
H33    H     0.78597   0.01033   0.44068   0.00000  Uiso   1.00
H34    H     0.54254   0.92002   0.39533   0.00000  Uiso   1.00
H35    H     0.95567   0.72237   0.83254   0.00000  Uiso   1.00
H36    H     0.86266   0.18621   0.38878   0.00000  Uiso   1.00
H37    H     0.34934   0.99577   0.29316   0.00000  Uiso   1.00
O38    O     0.04144   0.90945   0.97408   0.00000  Uiso   1.00
O39    O     0.91941   0.51799   0.39188   0.00000  Uiso   1.00
O40    O     0.24594   0.26815   0.26643   0.00000  Uiso   1.00
N41    N     0.96052   0.14400   0.87168   0.00000  Uiso   1.00
N42    N     0.87359   0.57766   0.45680   0.00000  Uiso   1.00
N43    N     0.39367   0.39964   0.36739   0.00000  Uiso   1.00
N44    N     0.94650   0.86018   0.82937   0.00000  Uiso   1.00
N45    N     0.85956   0.29383   0.41449   0.00000  Uiso   1.00
N46    N     0.37965   0.11581   0.32508   0.00000  Uiso   1.00
C47    C     0.25618   0.39871   0.93096   0.00000  Uiso   1.00
C48    C     0.19990   0.25915   0.85790   0.00000  Uiso   1.00
C49    C     0.14475   0.29991   0.77289   0.00000  Uiso   1.00
C50    C     0.09882   0.15278   0.71580   0.00000  Uiso   1.00
C51    C     0.01003   0.96367   0.59823   0.00000  Uiso   1.00
C52    C     0.22384   0.37866   0.97223   0.00000  Uiso   1.00
C53    C     0.18884   0.51992   0.98336   0.00000  Uiso   1.00
C54    C     0.16308   0.47339   0.02252   0.00000  Uiso   1.00
C55    C     0.11152   0.46986   0.08251   0.00000  Uiso   1.00
C56    C     0.35610   0.32959   0.99686   0.00000  Uiso   1.00
C57    C     0.43231   0.42960   0.02872   0.00000  Uiso   1.00
C58    C     0.51791   0.34177   0.08863   0.00000  Uiso   1.00
C59    C     0.67170   0.26205   0.18686   0.00000  Uiso   1.00
C60    C     0.27267   0.06494   0.98072   0.00000  Uiso   1.00
C61    C     0.20886   0.07786   0.88493   0.00000  Uiso   1.00
C62    C     0.16300   0.93063   0.82795   0.00000  Uiso   1.00
C63    C     0.10780   0.97116   0.74287   0.00000  Uiso   1.00
C64    C     0.23280   0.19738   0.99925   0.00000  Uiso   1.00
C65    C     0.20709   0.15064   0.03841   0.00000  Uiso   1.00
C66    C     0.17205   0.29178   0.04960   0.00000  Uiso   1.00
C67    C     0.36506   0.14830   0.02388   0.00000  Uiso   1.00
C68    C     0.45055   0.06031   0.08377   0.00000  Uiso   1.00
C69    C     0.52688   0.16016   0.11571   0.00000  Uiso   1.00
H70    H     0.24921   0.53985   0.90992   0.00000  Uiso   1.00
H71    H     0.13783   0.44023   0.75200   0.00000  Uiso   1.00
H72    H     0.18192   0.66020   0.96245   0.00000  Uiso   1.00
H73    H     0.42535   0.56989   0.00779   0.00000  Uiso   1.00
H74    H     0.01828   0.24984   0.58883   0.00000  Uiso   1.00
H75    H     0.11127   0.71367   0.03259   0.00000  Uiso   1.00
H76    H     0.62460   0.52324   0.12821   0.00000  Uiso   1.00
H77    H     0.27965   0.92379   0.00176   0.00000  Uiso   1.00
H78    H     0.16994   0.79035   0.84888   0.00000  Uiso   1.00
H79    H     0.21403   0.01033   0.05932   0.00000  Uiso   1.00
H80    H     0.45746   0.92002   0.10467   0.00000  Uiso   1.00
H81    H     0.04433   0.72237   0.66746   0.00000  Uiso   1.00
H82    H     0.13734   0.18621   0.11122   0.00000  Uiso   1.00
H83    H     0.65066   0.99577   0.20684   0.00000  Uiso   1.00
O84    O     0.95856   0.90945   0.52592   0.00000  Uiso   1.00
O85    O     0.08059   0.51799   0.10812   0.00000  Uiso   1.00
O86    O     0.75406   0.26815   0.23357   0.00000  Uiso   1.00
N87    N     0.03948   0.14400   0.62832   0.00000  Uiso   1.00
N88    N     0.12641   0.57766   0.04320   0.00000  Uiso   1.00
N89    N     0.60633   0.39964   0.13261   0.00000  Uiso   1.00
N90    N     0.05350   0.86018   0.67063   0.00000  Uiso   1.00
N91    N     0.14044   0.29383   0.08551   0.00000  Uiso   1.00
N92    N     0.62035   0.11581   0.17492   0.00000  Uiso   1.00
C93    C     0.25618   0.60129   0.43096   0.00000  Uiso   1.00
C94    C     0.19990   0.74085   0.35790   0.00000  Uiso   1.00
C95    C     0.14475   0.70009   0.27289   0.00000  Uiso   1.00
C96    C     0.09882   0.84722   0.21580   0.00000  Uiso   1.00
C97    C     0.01003   0.03633   0.09823   0.00000  Uiso   1.00
C98    C     0.22384   0.62134   0.47223   0.00000  Uiso   1.00
C99    C     0.18884   0.48008   0.48336   0.00000  Uiso   1.00
C100   C     0.16308   0.52661   0.52252   0.00000  Uiso   1.00
C101   C     0.11152   0.53014   0.58251   0.00000  Uiso   1.00
C102   C     0.35610   0.67041   0.49686   0.00000  Uiso   1.00
C103   C     0.43231   0.57040   0.52872   0.00000  Uiso   1.00
C104   C     0.51791   0.65823   0.58863   0.00000  Uiso   1.00
C105   C     0.67170   0.73795   0.68686   0.00000  Uiso   1.00
C106   C     0.27267   0.93506   0.48072   0.00000  Uiso   1.00
C107   C     0.20886   0.92214   0.38493   0.00000  Uiso   1.00
C108   C     0.16300   0.06937   0.32795   0.00000  Uiso   1.00
C109   C     0.10780   0.02884   0.24287   0.00000  Uiso   1.00
C110   C     0.23280   0.80262   0.49925   0.00000  Uiso   1.00
C111   C     0.20709   0.84936   0.53841   0.00000  Uiso   1.00
C112   C     0.17205   0.70822   0.54960   0.00000  Uiso   1.00
C113   C     0.36506   0.85170   0.52388   0.00000  Uiso   1.00
C114   C     0.45055   0.93969   0.58377   0.00000  Uiso   1.00
C115   C     0.52688   0.83984   0.61571   0.00000  Uiso   1.00
H116   H     0.24921   0.46015   0.40992   0.00000  Uiso   1.00
H117   H     0.13783   0.55977   0.25200   0.00000  Uiso   1.00
H118   H     0.18192   0.33980   0.46245   0.00000  Uiso   1.00
H119   H     0.42535   0.43011   0.50779   0.00000  Uiso   1.00
H120   H     0.01828   0.75016   0.08883   0.00000  Uiso   1.00
H121   H     0.11127   0.28633   0.53259   0.00000  Uiso   1.00
H122   H     0.62460   0.47676   0.62821   0.00000  Uiso   1.00
H123   H     0.27965   0.07621   0.50176   0.00000  Uiso   1.00
H124   H     0.16994   0.20965   0.34888   0.00000  Uiso   1.00
H125   H     0.21403   0.98967   0.55932   0.00000  Uiso   1.00
H126   H     0.45746   0.07998   0.60467   0.00000  Uiso   1.00
H127   H     0.04433   0.27763   0.16746   0.00000  Uiso   1.00
H128   H     0.13734   0.81379   0.61122   0.00000  Uiso   1.00
H129   H     0.65066   0.00423   0.70684   0.00000  Uiso   1.00
O130   O     0.95856   0.09055   0.02592   0.00000  Uiso   1.00
O131   O     0.08059   0.48201   0.60812   0.00000  Uiso   1.00
O132   O     0.75406   0.73185   0.73357   0.00000  Uiso   1.00
N133   N     0.03948   0.85600   0.12832   0.00000  Uiso   1.00
N134   N     0.12641   0.42234   0.54320   0.00000  Uiso   1.00
N135   N     0.60633   0.60036   0.63261   0.00000  Uiso   1.00
N136   N     0.05350   0.13982   0.17063   0.00000  Uiso   1.00
N137   N     0.14044   0.70617   0.58551   0.00000  Uiso   1.00
N138   N     0.62035   0.88419   0.67492   0.00000  Uiso   1.00
C139   C     0.74382   0.60129   0.06904   0.00000  Uiso   1.00
C140   C     0.80010   0.74085   0.14210   0.00000  Uiso   1.00
C141   C     0.85525   0.70009   0.22711   0.00000  Uiso   1.00
C142   C     0.90118   0.84722   0.28420   0.00000  Uiso   1.00
C143   C     0.98997   0.03633   0.40177   0.00000  Uiso   1.00
C144   C     0.77616   0.62134   0.02777   0.00000  Uiso   1.00
C145   C     0.81116   0.48008   0.01664   0.00000  Uiso   1.00
C146   C     0.83692   0.52661   0.97748   0.00000  Uiso   1.00
C147   C     0.88848   0.53014   0.91749   0.00000  Uiso   1.00
C148   C     0.64390   0.67041   0.00314   0.00000  Uiso   1.00
C149   C     0.56769   0.57040   0.97128   0.00000  Uiso   1.00
C150   C     0.48209   0.65823   0.91137   0.00000  Uiso   1.00
C151   C     0.32830   0.73795   0.81314   0.00000  Uiso   1.00
C152   C     0.72733   0.93506   0.01928   0.00000  Uiso   1.00
C153   C     0.79114   0.92214   0.11507   0.00000  Uiso   1.00
C154   C     0.83700   0.06937   0.17205   0.00000  Uiso   1.00
C155   C     0.89220   0.02884   0.25713   0.00000  Uiso   1.00
C156   C     0.76720   0.80262   0.00075   0.00000  Uiso   1.00
C157   C     0.79291   0.84936   0.96159   0.00000  Uiso   1.00
C158   C     0.82795   0.70822   0.95040   0.00000  Uiso   1.00
C159   C     0.63494   0.85170   0.97612   0.00000  Uiso   1.00
C160   C     0.54945   0.93969   0.91623   0.00000  Uiso   1.00
C161   C     0.47312   0.83984   0.88429   0.00000  Uiso   1.00
H162   H     0.75079   0.46015   0.09008   0.00000  Uiso   1.00
H163   H     0.86217   0.55977   0.24800   0.00000  Uiso   1.00
H164   H     0.81808   0.33980   0.03755   0.00000  Uiso   1.00
H165   H     0.57465   0.43011   0.99221   0.00000  Uiso   1.00
H166   H     0.98172   0.75016   0.41117   0.00000  Uiso   1.00
H167   H     0.88873   0.28633   0.96741   0.00000  Uiso   1.00
H168   H     0.37540   0.47676   0.87179   0.00000  Uiso   1.00
H169   H     0.72035   0.07621   0.99824   0.00000  Uiso   1.00
H170   H     0.83006   0.20965   0.15112   0.00000  Uiso   1.00
H171   H     0.78597   0.98967   0.94068   0.00000  Uiso   1.00
H172   H     0.54254   0.07998   0.89533   0.00000  Uiso   1.00
H173   H     0.95567   0.27763   0.33254   0.00000  Uiso   1.00
H174   H     0.86266   0.81379   0.88878   0.00000  Uiso   1.00
H175   H     0.34934   0.00423   0.79316   0.00000  Uiso   1.00
O176   O     0.04144   0.09055   0.47408   0.00000  Uiso   1.00
O177   O     0.91941   0.48201   0.89188   0.00000  Uiso   1.00
O178   O     0.24594   0.73185   0.76643   0.00000  Uiso   1.00
N179   N     0.96052   0.85600   0.37168   0.00000  Uiso   1.00
N180   N     0.87359   0.42234   0.95680   0.00000  Uiso   1.00
N181   N     0.39367   0.60036   0.86739   0.00000  Uiso   1.00
N182   N     0.94650   0.13982   0.32937   0.00000  Uiso   1.00
N183   N     0.85956   0.70617   0.91449   0.00000  Uiso   1.00
N184   N     0.37965   0.88419   0.82508   0.00000  Uiso   1.00
