data_job_02369
_audit_creation_date              2018-12-19
_audit_creation_method            'Materials Studio'
_symmetry_space_group_name_H-M    'P1'
_symmetry_Int_Tables_number       1
_symmetry_cell_setting            triclinic
loop_
_symmetry_equiv_pos_as_xyz
  x,y,z
_cell_length_a                    9.6194
_cell_length_b                    23.3427
_cell_length_c                    13.3705
_cell_angle_alpha                 90.0000
_cell_angle_beta                  90.0000
_cell_angle_gamma                 90.0000
loop_
_atom_site_label
_atom_site_type_symbol
_atom_site_fract_x
_atom_site_fract_y
_atom_site_fract_z
_atom_site_U_iso_or_equiv
_atom_site_adp_type
_atom_site_occupancy
C1     C     0.04692   0.30933   0.13904   0.00000  Uiso   1.00
C2     C     0.15230   0.31070   0.22421   0.00000  Uiso   1.00
C3     C     0.29580   0.31026   0.21350   0.00000  Uiso   1.00
C4     C     0.37423   0.31169   0.30064   0.00000  Uiso   1.00
C5     C     0.54743   0.31351   0.41853   0.00000  Uiso   1.00
C6     C     0.95401   0.25764   0.15889   0.00000  Uiso   1.00
C7     C     0.93077   0.21258   0.09325   0.00000  Uiso   1.00
C8     C     0.84226   0.16936   0.12540   0.00000  Uiso   1.00
C9     C     0.70754   0.08881   0.14185   0.00000  Uiso   1.00
C10    C     0.95504   0.36195   0.15312   0.00000  Uiso   1.00
C11    C     0.93262   0.40460   0.08262   0.00000  Uiso   1.00
C12    C     0.84494   0.44919   0.10989   0.00000  Uiso   1.00
C13    C     0.71181   0.53061   0.11738   0.00000  Uiso   1.00
C14    C     0.93104   0.31268   0.31282   0.00000  Uiso   1.00
C15    C     0.08936   0.31252   0.31860   0.00000  Uiso   1.00
C16    C     0.16759   0.31396   0.40577   0.00000  Uiso   1.00
C17    C     0.31118   0.31352   0.39520   0.00000  Uiso   1.00
C18    C     0.89107   0.25945   0.25328   0.00000  Uiso   1.00
C19    C     0.80257   0.21629   0.28552   0.00000  Uiso   1.00
C20    C     0.77921   0.17118   0.21996   0.00000  Uiso   1.00
C21    C     0.89209   0.36377   0.24751   0.00000  Uiso   1.00
C22    C     0.80442   0.40830   0.27489   0.00000  Uiso   1.00
C23    C     0.78188   0.45101   0.20445   0.00000  Uiso   1.00
H24    H     0.09592   0.30791   0.06555   0.00000  Uiso   1.00
H25    H     0.34447   0.30884   0.14044   0.00000  Uiso   1.00
H26    H     0.97949   0.21119   0.02021   0.00000  Uiso   1.00
H27    H     0.98134   0.40318   0.00958   0.00000  Uiso   1.00
H28    H     0.59227   0.31065   0.26510   0.00000  Uiso   1.00
H29    H     0.82266   0.10476   0.01157   0.00000  Uiso   1.00
H30    H     0.82656   0.50960   0.98915   0.00000  Uiso   1.00
H31    H     0.88203   0.31409   0.38631   0.00000  Uiso   1.00
H32    H     0.11885   0.31536   0.47881   0.00000  Uiso   1.00
H33    H     0.75387   0.21771   0.35857   0.00000  Uiso   1.00
H34    H     0.75573   0.40969   0.34794   0.00000  Uiso   1.00
H35    H     0.40916   0.31594   0.53973   0.00000  Uiso   1.00
H36    H     0.63953   0.11004   0.28620   0.00000  Uiso   1.00
H37    H     0.64345   0.51489   0.26378   0.00000  Uiso   1.00
O38    O     0.66036   0.31400   0.45748   0.00000  Uiso   1.00
O39    O     0.65063   0.04388   0.12484   0.00000  Uiso   1.00
O40    O     0.65577   0.57502   0.09543   0.00000  Uiso   1.00
N41    N     0.51668   0.31174   0.31704   0.00000  Uiso   1.00
N42    N     0.79715   0.11923   0.08001   0.00000  Uiso   1.00
N43    N     0.80077   0.49771   0.05904   0.00000  Uiso   1.00
N44    N     0.41814   0.31458   0.46482   0.00000  Uiso   1.00
N45    N     0.69861   0.12208   0.22779   0.00000  Uiso   1.00
N46    N     0.70224   0.50056   0.20682   0.00000  Uiso   1.00
C47    C     0.95308   0.69067   0.13904   0.00000  Uiso   1.00
C48    C     0.84770   0.68930   0.22421   0.00000  Uiso   1.00
C49    C     0.70420   0.68974   0.21350   0.00000  Uiso   1.00
C50    C     0.62577   0.68831   0.30064   0.00000  Uiso   1.00
C51    C     0.45257   0.68649   0.41853   0.00000  Uiso   1.00
C52    C     0.04599   0.74236   0.15889   0.00000  Uiso   1.00
C53    C     0.06923   0.78742   0.09325   0.00000  Uiso   1.00
C54    C     0.15774   0.83064   0.12540   0.00000  Uiso   1.00
C55    C     0.29246   0.91119   0.14185   0.00000  Uiso   1.00
C56    C     0.04496   0.63805   0.15312   0.00000  Uiso   1.00
C57    C     0.06738   0.59540   0.08262   0.00000  Uiso   1.00
C58    C     0.15506   0.55081   0.10989   0.00000  Uiso   1.00
C59    C     0.28819   0.46939   0.11738   0.00000  Uiso   1.00
C60    C     0.06896   0.68732   0.31282   0.00000  Uiso   1.00
C61    C     0.91064   0.68748   0.31860   0.00000  Uiso   1.00
C62    C     0.83241   0.68604   0.40577   0.00000  Uiso   1.00
C63    C     0.68882   0.68648   0.39520   0.00000  Uiso   1.00
C64    C     0.10893   0.74055   0.25328   0.00000  Uiso   1.00
C65    C     0.19743   0.78371   0.28552   0.00000  Uiso   1.00
C66    C     0.22079   0.82882   0.21996   0.00000  Uiso   1.00
C67    C     0.10791   0.63623   0.24751   0.00000  Uiso   1.00
C68    C     0.19558   0.59170   0.27489   0.00000  Uiso   1.00
C69    C     0.21812   0.54899   0.20445   0.00000  Uiso   1.00
H70    H     0.90408   0.69209   0.06555   0.00000  Uiso   1.00
H71    H     0.65553   0.69116   0.14044   0.00000  Uiso   1.00
H72    H     0.02051   0.78881   0.02021   0.00000  Uiso   1.00
H73    H     0.01866   0.59682   0.00958   0.00000  Uiso   1.00
H74    H     0.40773   0.68935   0.26510   0.00000  Uiso   1.00
H75    H     0.17734   0.89524   0.01157   0.00000  Uiso   1.00
H76    H     0.17344   0.49040   0.98915   0.00000  Uiso   1.00
H77    H     0.11797   0.68591   0.38631   0.00000  Uiso   1.00
H78    H     0.88115   0.68464   0.47881   0.00000  Uiso   1.00
H79    H     0.24613   0.78229   0.35857   0.00000  Uiso   1.00
H80    H     0.24427   0.59031   0.34794   0.00000  Uiso   1.00
H81    H     0.59084   0.68406   0.53973   0.00000  Uiso   1.00
H82    H     0.36047   0.88996   0.28620   0.00000  Uiso   1.00
H83    H     0.35655   0.48511   0.26378   0.00000  Uiso   1.00
O84    O     0.33964   0.68600   0.45748   0.00000  Uiso   1.00
O85    O     0.34937   0.95612   0.12484   0.00000  Uiso   1.00
O86    O     0.34423   0.42498   0.09543   0.00000  Uiso   1.00
N87    N     0.48332   0.68826   0.31704   0.00000  Uiso   1.00
N88    N     0.20285   0.88077   0.08001   0.00000  Uiso   1.00
N89    N     0.19923   0.50229   0.05904   0.00000  Uiso   1.00
N90    N     0.58186   0.68542   0.46482   0.00000  Uiso   1.00
N91    N     0.30139   0.87792   0.22779   0.00000  Uiso   1.00
N92    N     0.29776   0.49944   0.20682   0.00000  Uiso   1.00
C93    C     0.45308   0.80933   0.86096   0.00000  Uiso   1.00
C94    C     0.34770   0.81070   0.77579   0.00000  Uiso   1.00
C95    C     0.20420   0.81026   0.78650   0.00000  Uiso   1.00
C96    C     0.12577   0.81169   0.69936   0.00000  Uiso   1.00
C97    C     0.95257   0.81351   0.58147   0.00000  Uiso   1.00
C98    C     0.54599   0.75764   0.84111   0.00000  Uiso   1.00
C99    C     0.56923   0.71258   0.90675   0.00000  Uiso   1.00
C100   C     0.65774   0.66936   0.87460   0.00000  Uiso   1.00
C101   C     0.79246   0.58881   0.85815   0.00000  Uiso   1.00
C102   C     0.54496   0.86195   0.84688   0.00000  Uiso   1.00
C103   C     0.56738   0.90460   0.91738   0.00000  Uiso   1.00
C104   C     0.65506   0.94919   0.89011   0.00000  Uiso   1.00
C105   C     0.78819   0.03061   0.88262   0.00000  Uiso   1.00
C106   C     0.56896   0.81268   0.68718   0.00000  Uiso   1.00
C107   C     0.41064   0.81252   0.68140   0.00000  Uiso   1.00
C108   C     0.33241   0.81396   0.59423   0.00000  Uiso   1.00
C109   C     0.18882   0.81352   0.60480   0.00000  Uiso   1.00
C110   C     0.60893   0.75945   0.74672   0.00000  Uiso   1.00
C111   C     0.69743   0.71629   0.71448   0.00000  Uiso   1.00
C112   C     0.72079   0.67118   0.78004   0.00000  Uiso   1.00
C113   C     0.60791   0.86377   0.75249   0.00000  Uiso   1.00
C114   C     0.69558   0.90830   0.72511   0.00000  Uiso   1.00
C115   C     0.71812   0.95101   0.79555   0.00000  Uiso   1.00
H116   H     0.40408   0.80791   0.93445   0.00000  Uiso   1.00
H117   H     0.15553   0.80884   0.85956   0.00000  Uiso   1.00
H118   H     0.52051   0.71119   0.97979   0.00000  Uiso   1.00
H119   H     0.51866   0.90318   0.99042   0.00000  Uiso   1.00
H120   H     0.90773   0.81065   0.73490   0.00000  Uiso   1.00
H121   H     0.67734   0.60476   0.98843   0.00000  Uiso   1.00
H122   H     0.67344   0.00960   0.01085   0.00000  Uiso   1.00
H123   H     0.61797   0.81409   0.61369   0.00000  Uiso   1.00
H124   H     0.38115   0.81536   0.52119   0.00000  Uiso   1.00
H125   H     0.74613   0.71771   0.64143   0.00000  Uiso   1.00
H126   H     0.74427   0.90969   0.65206   0.00000  Uiso   1.00
H127   H     0.09084   0.81594   0.46027   0.00000  Uiso   1.00
H128   H     0.86047   0.61004   0.71380   0.00000  Uiso   1.00
H129   H     0.85655   0.01489   0.73622   0.00000  Uiso   1.00
O130   O     0.83964   0.81400   0.54252   0.00000  Uiso   1.00
O131   O     0.84937   0.54388   0.87516   0.00000  Uiso   1.00
O132   O     0.84423   0.07502   0.90457   0.00000  Uiso   1.00
N133   N     0.98332   0.81174   0.68296   0.00000  Uiso   1.00
N134   N     0.70285   0.61923   0.91999   0.00000  Uiso   1.00
N135   N     0.69923   0.99771   0.94096   0.00000  Uiso   1.00
N136   N     0.08186   0.81458   0.53518   0.00000  Uiso   1.00
N137   N     0.80139   0.62208   0.77221   0.00000  Uiso   1.00
N138   N     0.79776   0.00056   0.79318   0.00000  Uiso   1.00
C139   C     0.54692   0.19067   0.86096   0.00000  Uiso   1.00
C140   C     0.65230   0.18930   0.77579   0.00000  Uiso   1.00
C141   C     0.79580   0.18974   0.78650   0.00000  Uiso   1.00
C142   C     0.87423   0.18831   0.69936   0.00000  Uiso   1.00
C143   C     0.04743   0.18649   0.58147   0.00000  Uiso   1.00
C144   C     0.45401   0.24236   0.84111   0.00000  Uiso   1.00
C145   C     0.43077   0.28742   0.90675   0.00000  Uiso   1.00
C146   C     0.34226   0.33064   0.87460   0.00000  Uiso   1.00
C147   C     0.20754   0.41119   0.85815   0.00000  Uiso   1.00
C148   C     0.45504   0.13805   0.84688   0.00000  Uiso   1.00
C149   C     0.43262   0.09540   0.91738   0.00000  Uiso   1.00
C150   C     0.34494   0.05081   0.89011   0.00000  Uiso   1.00
C151   C     0.21181   0.96939   0.88262   0.00000  Uiso   1.00
C152   C     0.43104   0.18732   0.68718   0.00000  Uiso   1.00
C153   C     0.58936   0.18748   0.68140   0.00000  Uiso   1.00
C154   C     0.66759   0.18604   0.59423   0.00000  Uiso   1.00
C155   C     0.81118   0.18648   0.60480   0.00000  Uiso   1.00
C156   C     0.39107   0.24055   0.74672   0.00000  Uiso   1.00
C157   C     0.30257   0.28371   0.71448   0.00000  Uiso   1.00
C158   C     0.27921   0.32882   0.78004   0.00000  Uiso   1.00
C159   C     0.39209   0.13623   0.75249   0.00000  Uiso   1.00
C160   C     0.30442   0.09170   0.72511   0.00000  Uiso   1.00
C161   C     0.28188   0.04899   0.79555   0.00000  Uiso   1.00
H162   H     0.59592   0.19209   0.93445   0.00000  Uiso   1.00
H163   H     0.84447   0.19116   0.85956   0.00000  Uiso   1.00
H164   H     0.47949   0.28881   0.97979   0.00000  Uiso   1.00
H165   H     0.48134   0.09682   0.99042   0.00000  Uiso   1.00
H166   H     0.09227   0.18935   0.73490   0.00000  Uiso   1.00
H167   H     0.32266   0.39524   0.98843   0.00000  Uiso   1.00
H168   H     0.32656   0.99040   0.01085   0.00000  Uiso   1.00
H169   H     0.38203   0.18591   0.61369   0.00000  Uiso   1.00
H170   H     0.61885   0.18464   0.52119   0.00000  Uiso   1.00
H171   H     0.25387   0.28229   0.64143   0.00000  Uiso   1.00
H172   H     0.25573   0.09031   0.65206   0.00000  Uiso   1.00
H173   H     0.90916   0.18406   0.46027   0.00000  Uiso   1.00
H174   H     0.13953   0.38996   0.71380   0.00000  Uiso   1.00
H175   H     0.14345   0.98511   0.73622   0.00000  Uiso   1.00
O176   O     0.16036   0.18600   0.54252   0.00000  Uiso   1.00
O177   O     0.15063   0.45612   0.87516   0.00000  Uiso   1.00
O178   O     0.15577   0.92498   0.90457   0.00000  Uiso   1.00
N179   N     0.01668   0.18826   0.68296   0.00000  Uiso   1.00
N180   N     0.29715   0.38077   0.91999   0.00000  Uiso   1.00
N181   N     0.30077   0.00229   0.94096   0.00000  Uiso   1.00
N182   N     0.91814   0.18542   0.53518   0.00000  Uiso   1.00
N183   N     0.19861   0.37792   0.77221   0.00000  Uiso   1.00
N184   N     0.20224   0.99944   0.79318   0.00000  Uiso   1.00
