data_job_04686
_audit_creation_date              2018-12-19
_audit_creation_method            'Materials Studio'
_symmetry_space_group_name_H-M    'P1'
_symmetry_Int_Tables_number       1
_symmetry_cell_setting            triclinic
loop_
_symmetry_equiv_pos_as_xyz
  x,y,z
_cell_length_a                    9.1647
_cell_length_b                    15.4402
_cell_length_c                    32.5513
_cell_angle_alpha                 90.0000
_cell_angle_beta                  90.0000
_cell_angle_gamma                 90.0000
loop_
_atom_site_label
_atom_site_type_symbol
_atom_site_fract_x
_atom_site_fract_y
_atom_site_fract_z
_atom_site_U_iso_or_equiv
_atom_site_adp_type
_atom_site_occupancy
C1     C     0.20755   0.73070   0.59716   0.00000  Uiso   1.00
C2     C     0.33983   0.68521   0.57867   0.00000  Uiso   1.00
C3     C     0.34614   0.64762   0.53998   0.00000  Uiso   1.00
C4     C     0.47716   0.60918   0.52875   0.00000  Uiso   1.00
C5     C     0.66422   0.53863   0.49600   0.00000  Uiso   1.00
C6     C     0.17589   0.68444   0.63758   0.00000  Uiso   1.00
C7     C     0.04435   0.64622   0.64843   0.00000  Uiso   1.00
C8     C     0.03736   0.60715   0.68680   0.00000  Uiso   1.00
C9     C     0.96987   0.53546   0.74553   0.00000  Uiso   1.00
C10    C     0.25870   0.82147   0.60871   0.00000  Uiso   1.00
C11    C     0.19677   0.89846   0.59530   0.00000  Uiso   1.00
C12    C     0.25949   0.97476   0.60938   0.00000  Uiso   1.00
C13    C     0.32058   0.11582   0.62329   0.00000  Uiso   1.00
C14    C     0.42901   0.72928   0.64601   0.00000  Uiso   1.00
C15    C     0.46011   0.68443   0.60520   0.00000  Uiso   1.00
C16    C     0.59115   0.64605   0.59402   0.00000  Uiso   1.00
C17    C     0.59766   0.60841   0.55533   0.00000  Uiso   1.00
C18    C     0.29616   0.68367   0.66411   0.00000  Uiso   1.00
C19    C     0.28936   0.64465   0.70247   0.00000  Uiso   1.00
C20    C     0.15786   0.60638   0.71338   0.00000  Uiso   1.00
C21    C     0.37899   0.82070   0.63525   0.00000  Uiso   1.00
C22    C     0.44179   0.89689   0.64934   0.00000  Uiso   1.00
C23    C     0.37998   0.97398   0.63595   0.00000  Uiso   1.00
H24    H     0.11390   0.73130   0.57651   0.00000  Uiso   1.00
H25    H     0.25303   0.64823   0.51946   0.00000  Uiso   1.00
H26    H     0.95129   0.64684   0.62789   0.00000  Uiso   1.00
H27    H     0.10369   0.89904   0.57477   0.00000  Uiso   1.00
H28    H     0.46030   0.55576   0.46791   0.00000  Uiso   1.00
H29    H     0.82405   0.55285   0.69656   0.00000  Uiso   1.00
H30    H     0.14542   0.08466   0.58455   0.00000  Uiso   1.00
H31    H     0.52265   0.72868   0.66667   0.00000  Uiso   1.00
H32    H     0.68422   0.64546   0.61456   0.00000  Uiso   1.00
H33    H     0.38247   0.64407   0.72300   0.00000  Uiso   1.00
H34    H     0.53487   0.89627   0.66987   0.00000  Uiso   1.00
H35    H     0.81027   0.55351   0.54510   0.00000  Uiso   1.00
H36    H     0.17400   0.55061   0.77375   0.00000  Uiso   1.00
H37    H     0.49539   0.08241   0.66174   0.00000  Uiso   1.00
O38    O     0.73417   0.49991   0.47061   0.00000  Uiso   1.00
O39    O     0.89942   0.49612   0.77059   0.00000  Uiso   1.00
O40    O     0.32106   0.19384   0.62363   0.00000  Uiso   1.00
N41    N     0.52050   0.56666   0.49323   0.00000  Uiso   1.00
N42    N     0.92565   0.56394   0.70700   0.00000  Uiso   1.00
N43    N     0.22608   0.06113   0.60228   0.00000  Uiso   1.00
N44    N     0.70882   0.56545   0.53476   0.00000  Uiso   1.00
N45    N     0.11396   0.56273   0.74853   0.00000  Uiso   1.00
N46    N     0.41440   0.05993   0.64382   0.00000  Uiso   1.00
C47    C     0.54658   0.23325   0.39686   0.00000  Uiso   1.00
C48    C     0.41480   0.18679   0.41509   0.00000  Uiso   1.00
C49    C     0.40847   0.14888   0.45371   0.00000  Uiso   1.00
C50    C     0.27795   0.10954   0.46469   0.00000  Uiso   1.00
C51    C     0.09158   0.03757   0.49706   0.00000  Uiso   1.00
C52    C     0.57979   0.18748   0.35641   0.00000  Uiso   1.00
C53    C     0.71219   0.15018   0.34568   0.00000  Uiso   1.00
C54    C     0.72056   0.11143   0.30727   0.00000  Uiso   1.00
C55    C     0.79037   0.04060   0.24851   0.00000  Uiso   1.00
C56    C     0.49401   0.32377   0.38538   0.00000  Uiso   1.00
C57    C     0.55432   0.40105   0.39900   0.00000  Uiso   1.00
C58    C     0.49050   0.47705   0.38497   0.00000  Uiso   1.00
C59    C     0.42713   0.61782   0.37120   0.00000  Uiso   1.00
C60    C     0.32603   0.23079   0.34770   0.00000  Uiso   1.00
C61    C     0.29501   0.18545   0.38839   0.00000  Uiso   1.00
C62    C     0.16446   0.14616   0.39932   0.00000  Uiso   1.00
C63    C     0.15794   0.10820   0.43794   0.00000  Uiso   1.00
C64    C     0.46000   0.18615   0.32971   0.00000  Uiso   1.00
C65    C     0.46818   0.14746   0.29129   0.00000  Uiso   1.00
C66    C     0.60056   0.11009   0.28051   0.00000  Uiso   1.00
C67    C     0.37422   0.32243   0.35868   0.00000  Uiso   1.00
C68    C     0.31030   0.39833   0.34461   0.00000  Uiso   1.00
C69    C     0.37049   0.47571   0.35822   0.00000  Uiso   1.00
H70    H     0.63984   0.23428   0.41765   0.00000  Uiso   1.00
H71    H     0.50120   0.14992   0.47436   0.00000  Uiso   1.00
H72    H     0.80488   0.15123   0.36635   0.00000  Uiso   1.00
H73    H     0.64702   0.40206   0.41967   0.00000  Uiso   1.00
H74    H     0.29468   0.05578   0.52546   0.00000  Uiso   1.00
H75    H     0.93501   0.05855   0.29772   0.00000  Uiso   1.00
H76    H     0.60215   0.58749   0.41014   0.00000  Uiso   1.00
H77    H     0.23277   0.22975   0.32691   0.00000  Uiso   1.00
H78    H     0.07178   0.14514   0.37865   0.00000  Uiso   1.00
H79    H     0.37546   0.14644   0.27064   0.00000  Uiso   1.00
H80    H     0.21761   0.39727   0.32395   0.00000  Uiso   1.00
H81    H     0.94615   0.05189   0.44777   0.00000  Uiso   1.00
H82    H     0.58649   0.05467   0.22003   0.00000  Uiso   1.00
H83    H     0.25362   0.58360   0.33245   0.00000  Uiso   1.00
O84    O     0.02188   0.99823   0.52229   0.00000  Uiso   1.00
O85    O     0.86197   0.00189   0.22349   0.00000  Uiso   1.00
O86    O     0.42526   0.69583   0.37098   0.00000  Uiso   1.00
N87    N     0.23474   0.06649   0.50008   0.00000  Uiso   1.00
N88    N     0.83340   0.06907   0.28715   0.00000  Uiso   1.00
N89    N     0.52223   0.56358   0.39225   0.00000  Uiso   1.00
N90    N     0.04720   0.06440   0.45828   0.00000  Uiso   1.00
N91    N     0.64586   0.06698   0.24535   0.00000  Uiso   1.00
N92    N     0.33468   0.56149   0.35045   0.00000  Uiso   1.00
C93    C     0.79245   0.26930   0.09716   0.00000  Uiso   1.00
C94    C     0.66017   0.31479   0.07867   0.00000  Uiso   1.00
C95    C     0.65386   0.35238   0.03998   0.00000  Uiso   1.00
C96    C     0.52284   0.39082   0.02875   0.00000  Uiso   1.00
C97    C     0.33578   0.46137   0.99600   0.00000  Uiso   1.00
C98    C     0.82411   0.31556   0.13758   0.00000  Uiso   1.00
C99    C     0.95565   0.35378   0.14843   0.00000  Uiso   1.00
C100   C     0.96264   0.39285   0.18680   0.00000  Uiso   1.00
C101   C     0.03013   0.46454   0.24553   0.00000  Uiso   1.00
C102   C     0.74130   0.17853   0.10871   0.00000  Uiso   1.00
C103   C     0.80323   0.10154   0.09530   0.00000  Uiso   1.00
C104   C     0.74051   0.02524   0.10938   0.00000  Uiso   1.00
C105   C     0.67942   0.88418   0.12329   0.00000  Uiso   1.00
C106   C     0.57099   0.27072   0.14601   0.00000  Uiso   1.00
C107   C     0.53989   0.31557   0.10520   0.00000  Uiso   1.00
C108   C     0.40885   0.35395   0.09402   0.00000  Uiso   1.00
C109   C     0.40234   0.39159   0.05533   0.00000  Uiso   1.00
C110   C     0.70384   0.31633   0.16411   0.00000  Uiso   1.00
C111   C     0.71064   0.35535   0.20247   0.00000  Uiso   1.00
C112   C     0.84214   0.39362   0.21338   0.00000  Uiso   1.00
C113   C     0.62101   0.17930   0.13525   0.00000  Uiso   1.00
C114   C     0.55821   0.10311   0.14934   0.00000  Uiso   1.00
C115   C     0.62002   0.02602   0.13595   0.00000  Uiso   1.00
H116   H     0.88610   0.26870   0.07651   0.00000  Uiso   1.00
H117   H     0.74697   0.35177   0.01946   0.00000  Uiso   1.00
H118   H     0.04871   0.35316   0.12789   0.00000  Uiso   1.00
H119   H     0.89631   0.10096   0.07477   0.00000  Uiso   1.00
H120   H     0.53970   0.44424   0.96791   0.00000  Uiso   1.00
H121   H     0.17595   0.44715   0.19656   0.00000  Uiso   1.00
H122   H     0.85458   0.91534   0.08455   0.00000  Uiso   1.00
H123   H     0.47735   0.27132   0.16667   0.00000  Uiso   1.00
H124   H     0.31578   0.35454   0.11456   0.00000  Uiso   1.00
H125   H     0.61753   0.35593   0.22300   0.00000  Uiso   1.00
H126   H     0.46513   0.10373   0.16987   0.00000  Uiso   1.00
H127   H     0.18973   0.44649   0.04510   0.00000  Uiso   1.00
H128   H     0.82600   0.44939   0.27375   0.00000  Uiso   1.00
H129   H     0.50461   0.91759   0.16174   0.00000  Uiso   1.00
O130   O     0.26583   0.50009   0.97061   0.00000  Uiso   1.00
O131   O     0.10058   0.50388   0.27059   0.00000  Uiso   1.00
O132   O     0.67894   0.80616   0.12363   0.00000  Uiso   1.00
N133   N     0.47950   0.43334   0.99323   0.00000  Uiso   1.00
N134   N     0.07435   0.43606   0.20700   0.00000  Uiso   1.00
N135   N     0.77392   0.93887   0.10228   0.00000  Uiso   1.00
N136   N     0.29118   0.43455   0.03476   0.00000  Uiso   1.00
N137   N     0.88604   0.43727   0.24853   0.00000  Uiso   1.00
N138   N     0.58560   0.94007   0.14382   0.00000  Uiso   1.00
C139   C     0.45342   0.76675   0.89686   0.00000  Uiso   1.00
C140   C     0.58520   0.81321   0.91509   0.00000  Uiso   1.00
C141   C     0.59153   0.85112   0.95371   0.00000  Uiso   1.00
C142   C     0.72205   0.89046   0.96469   0.00000  Uiso   1.00
C143   C     0.90842   0.96243   0.99706   0.00000  Uiso   1.00
C144   C     0.42021   0.81252   0.85641   0.00000  Uiso   1.00
C145   C     0.28781   0.84982   0.84568   0.00000  Uiso   1.00
C146   C     0.27944   0.88857   0.80727   0.00000  Uiso   1.00
C147   C     0.20963   0.95940   0.74851   0.00000  Uiso   1.00
C148   C     0.50599   0.67623   0.88538   0.00000  Uiso   1.00
C149   C     0.44568   0.59895   0.89900   0.00000  Uiso   1.00
C150   C     0.50950   0.52295   0.88497   0.00000  Uiso   1.00
C151   C     0.57287   0.38218   0.87120   0.00000  Uiso   1.00
C152   C     0.67397   0.76921   0.84770   0.00000  Uiso   1.00
C153   C     0.70499   0.81455   0.88839   0.00000  Uiso   1.00
C154   C     0.83554   0.85384   0.89932   0.00000  Uiso   1.00
C155   C     0.84206   0.89180   0.93794   0.00000  Uiso   1.00
C156   C     0.54000   0.81385   0.82971   0.00000  Uiso   1.00
C157   C     0.53182   0.85254   0.79129   0.00000  Uiso   1.00
C158   C     0.39944   0.88991   0.78051   0.00000  Uiso   1.00
C159   C     0.62578   0.67757   0.85868   0.00000  Uiso   1.00
C160   C     0.68970   0.60167   0.84461   0.00000  Uiso   1.00
C161   C     0.62951   0.52429   0.85822   0.00000  Uiso   1.00
H162   H     0.36016   0.76572   0.91765   0.00000  Uiso   1.00
H163   H     0.49880   0.85008   0.97436   0.00000  Uiso   1.00
H164   H     0.19512   0.84877   0.86635   0.00000  Uiso   1.00
H165   H     0.35298   0.59794   0.91967   0.00000  Uiso   1.00
H166   H     0.70532   0.94422   0.02546   0.00000  Uiso   1.00
H167   H     0.06499   0.94145   0.79772   0.00000  Uiso   1.00
H168   H     0.39785   0.41251   0.91014   0.00000  Uiso   1.00
H169   H     0.76723   0.77025   0.82691   0.00000  Uiso   1.00
H170   H     0.92822   0.85486   0.87865   0.00000  Uiso   1.00
H171   H     0.62454   0.85356   0.77064   0.00000  Uiso   1.00
H172   H     0.78239   0.60273   0.82395   0.00000  Uiso   1.00
H173   H     0.05385   0.94811   0.94777   0.00000  Uiso   1.00
H174   H     0.41351   0.94533   0.72003   0.00000  Uiso   1.00
H175   H     0.74638   0.41640   0.83245   0.00000  Uiso   1.00
O176   O     0.97812   0.00177   0.02229   0.00000  Uiso   1.00
O177   O     0.13803   0.99811   0.72349   0.00000  Uiso   1.00
O178   O     0.57474   0.30417   0.87098   0.00000  Uiso   1.00
N179   N     0.76526   0.93351   0.00008   0.00000  Uiso   1.00
N180   N     0.16660   0.93093   0.78715   0.00000  Uiso   1.00
N181   N     0.47777   0.43642   0.89225   0.00000  Uiso   1.00
N182   N     0.95280   0.93560   0.95828   0.00000  Uiso   1.00
N183   N     0.35414   0.93302   0.74535   0.00000  Uiso   1.00
N184   N     0.66532   0.43851   0.85045   0.00000  Uiso   1.00
C185   C     0.70755   0.26930   0.59716   0.00000  Uiso   1.00
C186   C     0.83983   0.31479   0.57867   0.00000  Uiso   1.00
C187   C     0.84614   0.35238   0.53998   0.00000  Uiso   1.00
C188   C     0.97716   0.39082   0.52875   0.00000  Uiso   1.00
C189   C     0.16422   0.46137   0.49600   0.00000  Uiso   1.00
C190   C     0.67589   0.31556   0.63758   0.00000  Uiso   1.00
C191   C     0.54435   0.35378   0.64843   0.00000  Uiso   1.00
C192   C     0.53736   0.39285   0.68680   0.00000  Uiso   1.00
C193   C     0.46987   0.46454   0.74553   0.00000  Uiso   1.00
C194   C     0.75870   0.17853   0.60871   0.00000  Uiso   1.00
C195   C     0.69677   0.10154   0.59530   0.00000  Uiso   1.00
C196   C     0.75949   0.02524   0.60938   0.00000  Uiso   1.00
C197   C     0.82058   0.88418   0.62329   0.00000  Uiso   1.00
C198   C     0.92901   0.27072   0.64601   0.00000  Uiso   1.00
C199   C     0.96011   0.31557   0.60520   0.00000  Uiso   1.00
C200   C     0.09115   0.35395   0.59402   0.00000  Uiso   1.00
C201   C     0.09766   0.39159   0.55533   0.00000  Uiso   1.00
C202   C     0.79616   0.31633   0.66411   0.00000  Uiso   1.00
C203   C     0.78936   0.35535   0.70247   0.00000  Uiso   1.00
C204   C     0.65786   0.39362   0.71338   0.00000  Uiso   1.00
C205   C     0.87899   0.17930   0.63525   0.00000  Uiso   1.00
C206   C     0.94179   0.10311   0.64934   0.00000  Uiso   1.00
C207   C     0.87998   0.02602   0.63595   0.00000  Uiso   1.00
H208   H     0.61390   0.26870   0.57651   0.00000  Uiso   1.00
H209   H     0.75303   0.35177   0.51946   0.00000  Uiso   1.00
H210   H     0.45129   0.35316   0.62789   0.00000  Uiso   1.00
H211   H     0.60369   0.10096   0.57477   0.00000  Uiso   1.00
H212   H     0.96030   0.44424   0.46791   0.00000  Uiso   1.00
H213   H     0.32405   0.44715   0.69656   0.00000  Uiso   1.00
H214   H     0.64542   0.91534   0.58455   0.00000  Uiso   1.00
H215   H     0.02265   0.27132   0.66667   0.00000  Uiso   1.00
H216   H     0.18422   0.35454   0.61456   0.00000  Uiso   1.00
H217   H     0.88247   0.35593   0.72300   0.00000  Uiso   1.00
H218   H     0.03487   0.10373   0.66987   0.00000  Uiso   1.00
H219   H     0.31027   0.44649   0.54510   0.00000  Uiso   1.00
H220   H     0.67400   0.44939   0.77375   0.00000  Uiso   1.00
H221   H     0.99539   0.91759   0.66174   0.00000  Uiso   1.00
O222   O     0.23417   0.50009   0.47061   0.00000  Uiso   1.00
O223   O     0.39942   0.50388   0.77059   0.00000  Uiso   1.00
O224   O     0.82106   0.80616   0.62363   0.00000  Uiso   1.00
N225   N     0.02050   0.43334   0.49323   0.00000  Uiso   1.00
N226   N     0.42565   0.43606   0.70700   0.00000  Uiso   1.00
N227   N     0.72608   0.93887   0.60228   0.00000  Uiso   1.00
N228   N     0.20882   0.43455   0.53476   0.00000  Uiso   1.00
N229   N     0.61396   0.43727   0.74853   0.00000  Uiso   1.00
N230   N     0.91440   0.94007   0.64382   0.00000  Uiso   1.00
C231   C     0.04658   0.76675   0.39686   0.00000  Uiso   1.00
C232   C     0.91480   0.81321   0.41509   0.00000  Uiso   1.00
C233   C     0.90847   0.85112   0.45371   0.00000  Uiso   1.00
C234   C     0.77795   0.89046   0.46469   0.00000  Uiso   1.00
C235   C     0.59158   0.96243   0.49706   0.00000  Uiso   1.00
C236   C     0.07979   0.81252   0.35641   0.00000  Uiso   1.00
C237   C     0.21219   0.84982   0.34568   0.00000  Uiso   1.00
C238   C     0.22056   0.88857   0.30727   0.00000  Uiso   1.00
C239   C     0.29037   0.95940   0.24851   0.00000  Uiso   1.00
C240   C     0.99401   0.67623   0.38538   0.00000  Uiso   1.00
C241   C     0.05432   0.59895   0.39900   0.00000  Uiso   1.00
C242   C     0.99050   0.52295   0.38497   0.00000  Uiso   1.00
C243   C     0.92713   0.38218   0.37120   0.00000  Uiso   1.00
C244   C     0.82603   0.76921   0.34770   0.00000  Uiso   1.00
C245   C     0.79501   0.81455   0.38839   0.00000  Uiso   1.00
C246   C     0.66446   0.85384   0.39932   0.00000  Uiso   1.00
C247   C     0.65794   0.89180   0.43794   0.00000  Uiso   1.00
C248   C     0.96000   0.81385   0.32971   0.00000  Uiso   1.00
C249   C     0.96818   0.85254   0.29129   0.00000  Uiso   1.00
C250   C     0.10056   0.88991   0.28051   0.00000  Uiso   1.00
C251   C     0.87422   0.67757   0.35868   0.00000  Uiso   1.00
C252   C     0.81030   0.60167   0.34461   0.00000  Uiso   1.00
C253   C     0.87049   0.52429   0.35822   0.00000  Uiso   1.00
H254   H     0.13984   0.76572   0.41765   0.00000  Uiso   1.00
H255   H     0.00120   0.85008   0.47436   0.00000  Uiso   1.00
H256   H     0.30488   0.84877   0.36635   0.00000  Uiso   1.00
H257   H     0.14702   0.59794   0.41967   0.00000  Uiso   1.00
H258   H     0.79468   0.94422   0.52546   0.00000  Uiso   1.00
H259   H     0.43501   0.94145   0.29772   0.00000  Uiso   1.00
H260   H     0.10215   0.41251   0.41014   0.00000  Uiso   1.00
H261   H     0.73277   0.77025   0.32691   0.00000  Uiso   1.00
H262   H     0.57178   0.85486   0.37865   0.00000  Uiso   1.00
H263   H     0.87546   0.85356   0.27064   0.00000  Uiso   1.00
H264   H     0.71761   0.60273   0.32395   0.00000  Uiso   1.00
H265   H     0.44615   0.94811   0.44777   0.00000  Uiso   1.00
H266   H     0.08649   0.94533   0.22003   0.00000  Uiso   1.00
H267   H     0.75362   0.41640   0.33245   0.00000  Uiso   1.00
O268   O     0.52188   0.00177   0.52229   0.00000  Uiso   1.00
O269   O     0.36197   0.99811   0.22349   0.00000  Uiso   1.00
O270   O     0.92526   0.30417   0.37098   0.00000  Uiso   1.00
N271   N     0.73474   0.93351   0.50008   0.00000  Uiso   1.00
N272   N     0.33340   0.93093   0.28715   0.00000  Uiso   1.00
N273   N     0.02223   0.43642   0.39225   0.00000  Uiso   1.00
N274   N     0.54720   0.93560   0.45828   0.00000  Uiso   1.00
N275   N     0.14586   0.93302   0.24535   0.00000  Uiso   1.00
N276   N     0.83468   0.43851   0.35045   0.00000  Uiso   1.00
C277   C     0.29245   0.73070   0.09716   0.00000  Uiso   1.00
C278   C     0.16017   0.68521   0.07867   0.00000  Uiso   1.00
C279   C     0.15386   0.64762   0.03998   0.00000  Uiso   1.00
C280   C     0.02284   0.60918   0.02875   0.00000  Uiso   1.00
C281   C     0.83578   0.53863   0.99600   0.00000  Uiso   1.00
C282   C     0.32411   0.68444   0.13758   0.00000  Uiso   1.00
C283   C     0.45565   0.64622   0.14843   0.00000  Uiso   1.00
C284   C     0.46264   0.60715   0.18680   0.00000  Uiso   1.00
C285   C     0.53013   0.53546   0.24553   0.00000  Uiso   1.00
C286   C     0.24130   0.82147   0.10871   0.00000  Uiso   1.00
C287   C     0.30323   0.89846   0.09530   0.00000  Uiso   1.00
C288   C     0.24051   0.97476   0.10938   0.00000  Uiso   1.00
C289   C     0.17942   0.11582   0.12329   0.00000  Uiso   1.00
C290   C     0.07099   0.72928   0.14601   0.00000  Uiso   1.00
C291   C     0.03989   0.68443   0.10520   0.00000  Uiso   1.00
C292   C     0.90885   0.64605   0.09402   0.00000  Uiso   1.00
C293   C     0.90234   0.60841   0.05533   0.00000  Uiso   1.00
C294   C     0.20384   0.68367   0.16411   0.00000  Uiso   1.00
C295   C     0.21064   0.64465   0.20247   0.00000  Uiso   1.00
C296   C     0.34214   0.60638   0.21338   0.00000  Uiso   1.00
C297   C     0.12101   0.82070   0.13525   0.00000  Uiso   1.00
C298   C     0.05821   0.89689   0.14934   0.00000  Uiso   1.00
C299   C     0.12002   0.97398   0.13595   0.00000  Uiso   1.00
H300   H     0.38610   0.73130   0.07651   0.00000  Uiso   1.00
H301   H     0.24697   0.64823   0.01946   0.00000  Uiso   1.00
H302   H     0.54871   0.64684   0.12789   0.00000  Uiso   1.00
H303   H     0.39631   0.89904   0.07477   0.00000  Uiso   1.00
H304   H     0.03970   0.55576   0.96791   0.00000  Uiso   1.00
H305   H     0.67595   0.55285   0.19656   0.00000  Uiso   1.00
H306   H     0.35458   0.08466   0.08455   0.00000  Uiso   1.00
H307   H     0.97735   0.72868   0.16667   0.00000  Uiso   1.00
H308   H     0.81578   0.64546   0.11456   0.00000  Uiso   1.00
H309   H     0.11753   0.64407   0.22300   0.00000  Uiso   1.00
H310   H     0.96513   0.89627   0.16987   0.00000  Uiso   1.00
H311   H     0.68973   0.55351   0.04510   0.00000  Uiso   1.00
H312   H     0.32600   0.55061   0.27375   0.00000  Uiso   1.00
H313   H     0.00461   0.08241   0.16174   0.00000  Uiso   1.00
O314   O     0.76583   0.49991   0.97061   0.00000  Uiso   1.00
O315   O     0.60058   0.49612   0.27059   0.00000  Uiso   1.00
O316   O     0.17894   0.19384   0.12363   0.00000  Uiso   1.00
N317   N     0.97950   0.56666   0.99323   0.00000  Uiso   1.00
N318   N     0.57435   0.56394   0.20700   0.00000  Uiso   1.00
N319   N     0.27392   0.06113   0.10228   0.00000  Uiso   1.00
N320   N     0.79118   0.56545   0.03476   0.00000  Uiso   1.00
N321   N     0.38604   0.56273   0.24853   0.00000  Uiso   1.00
N322   N     0.08560   0.05993   0.14382   0.00000  Uiso   1.00
C323   C     0.95342   0.23325   0.89686   0.00000  Uiso   1.00
C324   C     0.08520   0.18679   0.91509   0.00000  Uiso   1.00
C325   C     0.09153   0.14888   0.95371   0.00000  Uiso   1.00
C326   C     0.22205   0.10954   0.96469   0.00000  Uiso   1.00
C327   C     0.40842   0.03757   0.99706   0.00000  Uiso   1.00
C328   C     0.92021   0.18748   0.85641   0.00000  Uiso   1.00
C329   C     0.78781   0.15018   0.84568   0.00000  Uiso   1.00
C330   C     0.77944   0.11143   0.80727   0.00000  Uiso   1.00
C331   C     0.70963   0.04060   0.74851   0.00000  Uiso   1.00
C332   C     0.00599   0.32377   0.88538   0.00000  Uiso   1.00
C333   C     0.94568   0.40105   0.89900   0.00000  Uiso   1.00
C334   C     0.00950   0.47705   0.88497   0.00000  Uiso   1.00
C335   C     0.07287   0.61782   0.87120   0.00000  Uiso   1.00
C336   C     0.17397   0.23079   0.84770   0.00000  Uiso   1.00
C337   C     0.20499   0.18545   0.88839   0.00000  Uiso   1.00
C338   C     0.33554   0.14616   0.89932   0.00000  Uiso   1.00
C339   C     0.34206   0.10820   0.93794   0.00000  Uiso   1.00
C340   C     0.04000   0.18615   0.82971   0.00000  Uiso   1.00
C341   C     0.03182   0.14746   0.79129   0.00000  Uiso   1.00
C342   C     0.89944   0.11009   0.78051   0.00000  Uiso   1.00
C343   C     0.12578   0.32243   0.85868   0.00000  Uiso   1.00
C344   C     0.18970   0.39833   0.84461   0.00000  Uiso   1.00
C345   C     0.12951   0.47571   0.85822   0.00000  Uiso   1.00
H346   H     0.86016   0.23428   0.91765   0.00000  Uiso   1.00
H347   H     0.99880   0.14992   0.97436   0.00000  Uiso   1.00
H348   H     0.69512   0.15123   0.86635   0.00000  Uiso   1.00
H349   H     0.85298   0.40206   0.91967   0.00000  Uiso   1.00
H350   H     0.20532   0.05578   0.02546   0.00000  Uiso   1.00
H351   H     0.56499   0.05855   0.79772   0.00000  Uiso   1.00
H352   H     0.89785   0.58749   0.91014   0.00000  Uiso   1.00
H353   H     0.26723   0.22975   0.82691   0.00000  Uiso   1.00
H354   H     0.42822   0.14514   0.87865   0.00000  Uiso   1.00
H355   H     0.12454   0.14644   0.77064   0.00000  Uiso   1.00
H356   H     0.28239   0.39727   0.82395   0.00000  Uiso   1.00
H357   H     0.55385   0.05189   0.94777   0.00000  Uiso   1.00
H358   H     0.91351   0.05467   0.72003   0.00000  Uiso   1.00
H359   H     0.24638   0.58360   0.83245   0.00000  Uiso   1.00
O360   O     0.47812   0.99823   0.02229   0.00000  Uiso   1.00
O361   O     0.63803   0.00189   0.72349   0.00000  Uiso   1.00
O362   O     0.07474   0.69583   0.87098   0.00000  Uiso   1.00
N363   N     0.26526   0.06649   0.00008   0.00000  Uiso   1.00
N364   N     0.66660   0.06907   0.78715   0.00000  Uiso   1.00
N365   N     0.97777   0.56358   0.89225   0.00000  Uiso   1.00
N366   N     0.45280   0.06440   0.95828   0.00000  Uiso   1.00
N367   N     0.85414   0.06698   0.74535   0.00000  Uiso   1.00
N368   N     0.16532   0.56149   0.85045   0.00000  Uiso   1.00
