data_job_05831
_audit_creation_date              2018-12-19
_audit_creation_method            'Materials Studio'
_symmetry_space_group_name_H-M    'P1'
_symmetry_Int_Tables_number       1
_symmetry_cell_setting            triclinic
loop_
_symmetry_equiv_pos_as_xyz
  x,y,z
_cell_length_a                    27.9925
_cell_length_b                    27.9925
_cell_length_c                    7.3207
_cell_angle_alpha                 90.0000
_cell_angle_beta                  90.0000
_cell_angle_gamma                 120.0000
loop_
_atom_site_label
_atom_site_type_symbol
_atom_site_fract_x
_atom_site_fract_y
_atom_site_fract_z
_atom_site_U_iso_or_equiv
_atom_site_adp_type
_atom_site_occupancy
C1     C     0.78689   0.07937   0.75733   0.00000  Uiso   1.00
C2     C     0.80662   0.05548   0.90718   0.00000  Uiso   1.00
C3     C     0.82812   0.02082   0.88044   0.00000  Uiso   1.00
C4     C     0.84380   0.00343   0.03524   0.00000  Uiso   1.00
C5     C     0.87527   0.96376   0.24128   0.00000  Uiso   1.00
C6     C     0.72726   0.06189   0.80404   0.00000  Uiso   1.00
C7     C     0.68205   0.03262   0.69058   0.00000  Uiso   1.00
C8     C     0.63092   0.02063   0.75855   0.00000  Uiso   1.00
C9     C     0.53920   0.99095   0.80443   0.00000  Uiso   1.00
C10    C     0.81965   0.14182   0.78172   0.00000  Uiso   1.00
C11    C     0.85211   0.17976   0.64948   0.00000  Uiso   1.00
C12    C     0.87877   0.23507   0.69865   0.00000  Uiso   1.00
C13    C     0.93050   0.32949   0.70987   0.00000  Uiso   1.00
C14    C     0.77649   0.11011   0.07977   0.00000  Uiso   1.00
C15    C     0.80097   0.07218   0.08232   0.00000  Uiso   1.00
C16    C     0.81662   0.05483   0.23719   0.00000  Uiso   1.00
C17    C     0.83815   0.02015   0.21069   0.00000  Uiso   1.00
C18    C     0.72161   0.07858   0.97918   0.00000  Uiso   1.00
C19    C     0.67055   0.06663   0.04733   0.00000  Uiso   1.00
C20    C     0.62527   0.03736   0.93400   0.00000  Uiso   1.00
C21    C     0.81401   0.15851   0.95687   0.00000  Uiso   1.00
C22    C     0.84062   0.21377   0.00624   0.00000  Uiso   1.00
C23    C     0.87311   0.25180   0.87410   0.00000  Uiso   1.00
H24    H     0.79128   0.06637   0.62097   0.00000  Uiso   1.00
H25    H     0.83248   0.00790   0.74488   0.00000  Uiso   1.00
H26    H     0.68643   0.01971   0.55505   0.00000  Uiso   1.00
H27    H     0.85647   0.16683   0.51396   0.00000  Uiso   1.00
H28    H     0.87565   0.95043   0.95951   0.00000  Uiso   1.00
H29    H     0.56770   0.97534   0.55920   0.00000  Uiso   1.00
H30    H     0.92626   0.28556   0.47256   0.00000  Uiso   1.00
H31    H     0.77210   0.12311   0.21613   0.00000  Uiso   1.00
H32    H     0.81225   0.06776   0.37271   0.00000  Uiso   1.00
H33    H     0.66620   0.07956   0.18287   0.00000  Uiso   1.00
H34    H     0.83624   0.22668   0.14178   0.00000  Uiso   1.00
H35    H     0.85923   0.99900   0.46907   0.00000  Uiso   1.00
H36    H     0.55127   0.02392   0.06876   0.00000  Uiso   1.00
H37    H     0.90984   0.33414   0.98212   0.00000  Uiso   1.00
O38    O     0.89418   0.93726   0.30656   0.00000  Uiso   1.00
O39    O     0.49016   0.96996   0.78135   0.00000  Uiso   1.00
O40    O     0.96059   0.37696   0.66768   0.00000  Uiso   1.00
N41    N     0.86629   0.96947   0.05794   0.00000  Uiso   1.00
N42    N     0.57836   0.99275   0.68369   0.00000  Uiso   1.00
N43    N     0.91358   0.28278   0.60267   0.00000  Uiso   1.00
N44    N     0.85745   0.99561   0.33214   0.00000  Uiso   1.00
N45    N     0.56953   0.01889   0.95788   0.00000  Uiso   1.00
N46    N     0.90475   0.30892   0.87686   0.00000  Uiso   1.00
C47    C     0.92063   0.70751   0.75733   0.00000  Uiso   1.00
C48    C     0.94452   0.75114   0.90718   0.00000  Uiso   1.00
C49    C     0.97918   0.80730   0.88044   0.00000  Uiso   1.00
C50    C     0.99657   0.84038   0.03524   0.00000  Uiso   1.00
C51    C     0.03624   0.91151   0.24128   0.00000  Uiso   1.00
C52    C     0.93811   0.66537   0.80404   0.00000  Uiso   1.00
C53    C     0.96738   0.64942   0.69058   0.00000  Uiso   1.00
C54    C     0.97937   0.61029   0.75855   0.00000  Uiso   1.00
C55    C     0.00905   0.54824   0.80443   0.00000  Uiso   1.00
C56    C     0.85818   0.67784   0.78172   0.00000  Uiso   1.00
C57    C     0.82024   0.67235   0.64948   0.00000  Uiso   1.00
C58    C     0.76493   0.64370   0.69865   0.00000  Uiso   1.00
C59    C     0.67051   0.60101   0.70987   0.00000  Uiso   1.00
C60    C     0.88989   0.66638   0.07977   0.00000  Uiso   1.00
C61    C     0.92782   0.72880   0.08232   0.00000  Uiso   1.00
C62    C     0.94517   0.76179   0.23719   0.00000  Uiso   1.00
C63    C     0.97985   0.81800   0.21069   0.00000  Uiso   1.00
C64    C     0.92142   0.64303   0.97918   0.00000  Uiso   1.00
C65    C     0.93337   0.60391   0.04733   0.00000  Uiso   1.00
C66    C     0.96264   0.58791   0.93400   0.00000  Uiso   1.00
C67    C     0.84149   0.65550   0.95687   0.00000  Uiso   1.00
C68    C     0.78623   0.62684   0.00624   0.00000  Uiso   1.00
C69    C     0.74820   0.62132   0.87410   0.00000  Uiso   1.00
H70    H     0.93363   0.72490   0.62097   0.00000  Uiso   1.00
H71    H     0.99210   0.82458   0.74488   0.00000  Uiso   1.00
H72    H     0.98029   0.66671   0.55505   0.00000  Uiso   1.00
H73    H     0.83317   0.68964   0.51396   0.00000  Uiso   1.00
H74    H     0.04957   0.92522   0.95951   0.00000  Uiso   1.00
H75    H     0.02466   0.59235   0.55920   0.00000  Uiso   1.00
H76    H     0.71444   0.64070   0.47256   0.00000  Uiso   1.00
H77    H     0.87689   0.64898   0.21613   0.00000  Uiso   1.00
H78    H     0.93224   0.74449   0.37271   0.00000  Uiso   1.00
H79    H     0.92044   0.58663   0.18287   0.00000  Uiso   1.00
H80    H     0.77332   0.60956   0.14178   0.00000  Uiso   1.00
H81    H     0.00100   0.86023   0.46907   0.00000  Uiso   1.00
H82    H     0.97608   0.52735   0.06876   0.00000  Uiso   1.00
H83    H     0.66586   0.57570   0.98212   0.00000  Uiso   1.00
O84    O     0.06274   0.95692   0.30656   0.00000  Uiso   1.00
O85    O     0.03004   0.52020   0.78135   0.00000  Uiso   1.00
O86    O     0.62304   0.58363   0.66768   0.00000  Uiso   1.00
N87    N     0.03053   0.89682   0.05794   0.00000  Uiso   1.00
N88    N     0.00725   0.58561   0.68369   0.00000  Uiso   1.00
N89    N     0.71722   0.63080   0.60267   0.00000  Uiso   1.00
N90    N     0.00439   0.86185   0.33214   0.00000  Uiso   1.00
N91    N     0.98111   0.55064   0.95788   0.00000  Uiso   1.00
N92    N     0.69108   0.59583   0.87686   0.00000  Uiso   1.00
C93    C     0.29249   0.21311   0.75733   0.00000  Uiso   1.00
C94    C     0.24886   0.19338   0.90718   0.00000  Uiso   1.00
C95    C     0.19270   0.17188   0.88044   0.00000  Uiso   1.00
C96    C     0.15962   0.15620   0.03524   0.00000  Uiso   1.00
C97    C     0.08849   0.12473   0.24128   0.00000  Uiso   1.00
C98    C     0.33463   0.27274   0.80404   0.00000  Uiso   1.00
C99    C     0.35058   0.31795   0.69058   0.00000  Uiso   1.00
C100   C     0.38971   0.36908   0.75855   0.00000  Uiso   1.00
C101   C     0.45176   0.46080   0.80443   0.00000  Uiso   1.00
C102   C     0.32216   0.18035   0.78172   0.00000  Uiso   1.00
C103   C     0.32765   0.14789   0.64948   0.00000  Uiso   1.00
C104   C     0.35630   0.12123   0.69865   0.00000  Uiso   1.00
C105   C     0.39899   0.06950   0.70987   0.00000  Uiso   1.00
C106   C     0.33362   0.22351   0.07977   0.00000  Uiso   1.00
C107   C     0.27120   0.19903   0.08232   0.00000  Uiso   1.00
C108   C     0.23821   0.18338   0.23719   0.00000  Uiso   1.00
C109   C     0.18200   0.16185   0.21069   0.00000  Uiso   1.00
C110   C     0.35697   0.27839   0.97918   0.00000  Uiso   1.00
C111   C     0.39609   0.32945   0.04733   0.00000  Uiso   1.00
C112   C     0.41209   0.37473   0.93400   0.00000  Uiso   1.00
C113   C     0.34450   0.18599   0.95687   0.00000  Uiso   1.00
C114   C     0.37316   0.15938   0.00624   0.00000  Uiso   1.00
C115   C     0.37868   0.12689   0.87410   0.00000  Uiso   1.00
H116   H     0.27510   0.20872   0.62097   0.00000  Uiso   1.00
H117   H     0.17542   0.16752   0.74488   0.00000  Uiso   1.00
H118   H     0.33329   0.31357   0.55505   0.00000  Uiso   1.00
H119   H     0.31036   0.14353   0.51396   0.00000  Uiso   1.00
H120   H     0.07478   0.12435   0.95951   0.00000  Uiso   1.00
H121   H     0.40765   0.43230   0.55920   0.00000  Uiso   1.00
H122   H     0.35930   0.07374   0.47256   0.00000  Uiso   1.00
H123   H     0.35102   0.22790   0.21613   0.00000  Uiso   1.00
H124   H     0.25551   0.18775   0.37271   0.00000  Uiso   1.00
H125   H     0.41337   0.33380   0.18287   0.00000  Uiso   1.00
H126   H     0.39044   0.16376   0.14178   0.00000  Uiso   1.00
H127   H     0.13977   0.14077   0.46907   0.00000  Uiso   1.00
H128   H     0.47265   0.44873   0.06876   0.00000  Uiso   1.00
H129   H     0.42430   0.09016   0.98212   0.00000  Uiso   1.00
O130   O     0.04308   0.10582   0.30656   0.00000  Uiso   1.00
O131   O     0.47980   0.50984   0.78135   0.00000  Uiso   1.00
O132   O     0.41637   0.03941   0.66768   0.00000  Uiso   1.00
N133   N     0.10318   0.13371   0.05794   0.00000  Uiso   1.00
N134   N     0.41439   0.42164   0.68369   0.00000  Uiso   1.00
N135   N     0.36920   0.08642   0.60267   0.00000  Uiso   1.00
N136   N     0.13815   0.14255   0.33214   0.00000  Uiso   1.00
N137   N     0.44936   0.43047   0.95788   0.00000  Uiso   1.00
N138   N     0.40417   0.09525   0.87686   0.00000  Uiso   1.00
C139   C     0.21311   0.92063   0.24267   0.00000  Uiso   1.00
C140   C     0.19338   0.94452   0.09282   0.00000  Uiso   1.00
C141   C     0.17188   0.97918   0.11956   0.00000  Uiso   1.00
C142   C     0.15620   0.99657   0.96476   0.00000  Uiso   1.00
C143   C     0.12473   0.03624   0.75872   0.00000  Uiso   1.00
C144   C     0.27274   0.93811   0.19596   0.00000  Uiso   1.00
C145   C     0.31795   0.96738   0.30942   0.00000  Uiso   1.00
C146   C     0.36908   0.97937   0.24145   0.00000  Uiso   1.00
C147   C     0.46080   0.00905   0.19557   0.00000  Uiso   1.00
C148   C     0.18035   0.85818   0.21828   0.00000  Uiso   1.00
C149   C     0.14789   0.82024   0.35052   0.00000  Uiso   1.00
C150   C     0.12123   0.76493   0.30135   0.00000  Uiso   1.00
C151   C     0.06950   0.67051   0.29013   0.00000  Uiso   1.00
C152   C     0.22351   0.88989   0.92023   0.00000  Uiso   1.00
C153   C     0.19903   0.92782   0.91768   0.00000  Uiso   1.00
C154   C     0.18338   0.94517   0.76281   0.00000  Uiso   1.00
C155   C     0.16185   0.97985   0.78931   0.00000  Uiso   1.00
C156   C     0.27839   0.92142   0.02082   0.00000  Uiso   1.00
C157   C     0.32945   0.93337   0.95267   0.00000  Uiso   1.00
C158   C     0.37473   0.96264   0.06600   0.00000  Uiso   1.00
C159   C     0.18599   0.84149   0.04313   0.00000  Uiso   1.00
C160   C     0.15938   0.78623   0.99376   0.00000  Uiso   1.00
C161   C     0.12689   0.74820   0.12590   0.00000  Uiso   1.00
H162   H     0.20872   0.93363   0.37903   0.00000  Uiso   1.00
H163   H     0.16752   0.99210   0.25512   0.00000  Uiso   1.00
H164   H     0.31357   0.98029   0.44495   0.00000  Uiso   1.00
H165   H     0.14353   0.83317   0.48604   0.00000  Uiso   1.00
H166   H     0.12435   0.04957   0.04049   0.00000  Uiso   1.00
H167   H     0.43230   0.02466   0.44080   0.00000  Uiso   1.00
H168   H     0.07374   0.71444   0.52744   0.00000  Uiso   1.00
H169   H     0.22790   0.87689   0.78387   0.00000  Uiso   1.00
H170   H     0.18775   0.93224   0.62729   0.00000  Uiso   1.00
H171   H     0.33380   0.92044   0.81713   0.00000  Uiso   1.00
H172   H     0.16376   0.77332   0.85822   0.00000  Uiso   1.00
H173   H     0.14077   0.00100   0.53093   0.00000  Uiso   1.00
H174   H     0.44873   0.97608   0.93124   0.00000  Uiso   1.00
H175   H     0.09016   0.66586   0.01788   0.00000  Uiso   1.00
O176   O     0.10582   0.06274   0.69344   0.00000  Uiso   1.00
O177   O     0.50984   0.03004   0.21865   0.00000  Uiso   1.00
O178   O     0.03941   0.62304   0.33232   0.00000  Uiso   1.00
N179   N     0.13371   0.03053   0.94206   0.00000  Uiso   1.00
N180   N     0.42164   0.00725   0.31631   0.00000  Uiso   1.00
N181   N     0.08642   0.71722   0.39733   0.00000  Uiso   1.00
N182   N     0.14255   0.00439   0.66786   0.00000  Uiso   1.00
N183   N     0.43047   0.98111   0.04212   0.00000  Uiso   1.00
N184   N     0.09525   0.69108   0.12314   0.00000  Uiso   1.00
C185   C     0.07937   0.29249   0.24267   0.00000  Uiso   1.00
C186   C     0.05548   0.24886   0.09282   0.00000  Uiso   1.00
C187   C     0.02082   0.19270   0.11956   0.00000  Uiso   1.00
C188   C     0.00343   0.15962   0.96476   0.00000  Uiso   1.00
C189   C     0.96376   0.08849   0.75872   0.00000  Uiso   1.00
C190   C     0.06189   0.33463   0.19596   0.00000  Uiso   1.00
C191   C     0.03262   0.35058   0.30942   0.00000  Uiso   1.00
C192   C     0.02063   0.38971   0.24145   0.00000  Uiso   1.00
C193   C     0.99095   0.45176   0.19557   0.00000  Uiso   1.00
C194   C     0.14182   0.32216   0.21828   0.00000  Uiso   1.00
C195   C     0.17976   0.32765   0.35052   0.00000  Uiso   1.00
C196   C     0.23507   0.35630   0.30135   0.00000  Uiso   1.00
C197   C     0.32949   0.39899   0.29013   0.00000  Uiso   1.00
C198   C     0.11011   0.33362   0.92023   0.00000  Uiso   1.00
C199   C     0.07218   0.27120   0.91768   0.00000  Uiso   1.00
C200   C     0.05483   0.23821   0.76281   0.00000  Uiso   1.00
C201   C     0.02015   0.18200   0.78931   0.00000  Uiso   1.00
C202   C     0.07858   0.35697   0.02082   0.00000  Uiso   1.00
C203   C     0.06663   0.39609   0.95267   0.00000  Uiso   1.00
C204   C     0.03736   0.41209   0.06600   0.00000  Uiso   1.00
C205   C     0.15851   0.34450   0.04313   0.00000  Uiso   1.00
C206   C     0.21377   0.37316   0.99376   0.00000  Uiso   1.00
C207   C     0.25180   0.37868   0.12590   0.00000  Uiso   1.00
H208   H     0.06637   0.27510   0.37903   0.00000  Uiso   1.00
H209   H     0.00790   0.17542   0.25512   0.00000  Uiso   1.00
H210   H     0.01971   0.33329   0.44495   0.00000  Uiso   1.00
H211   H     0.16683   0.31036   0.48604   0.00000  Uiso   1.00
H212   H     0.95043   0.07478   0.04049   0.00000  Uiso   1.00
H213   H     0.97534   0.40765   0.44080   0.00000  Uiso   1.00
H214   H     0.28556   0.35930   0.52744   0.00000  Uiso   1.00
H215   H     0.12311   0.35102   0.78387   0.00000  Uiso   1.00
H216   H     0.06776   0.25551   0.62729   0.00000  Uiso   1.00
H217   H     0.07956   0.41337   0.81713   0.00000  Uiso   1.00
H218   H     0.22668   0.39044   0.85822   0.00000  Uiso   1.00
H219   H     0.99900   0.13977   0.53093   0.00000  Uiso   1.00
H220   H     0.02392   0.47265   0.93124   0.00000  Uiso   1.00
H221   H     0.33414   0.42430   0.01788   0.00000  Uiso   1.00
O222   O     0.93726   0.04308   0.69344   0.00000  Uiso   1.00
O223   O     0.96996   0.47980   0.21865   0.00000  Uiso   1.00
O224   O     0.37696   0.41637   0.33232   0.00000  Uiso   1.00
N225   N     0.96947   0.10318   0.94206   0.00000  Uiso   1.00
N226   N     0.99275   0.41439   0.31631   0.00000  Uiso   1.00
N227   N     0.28278   0.36920   0.39733   0.00000  Uiso   1.00
N228   N     0.99561   0.13815   0.66786   0.00000  Uiso   1.00
N229   N     0.01889   0.44936   0.04212   0.00000  Uiso   1.00
N230   N     0.30892   0.40417   0.12314   0.00000  Uiso   1.00
C231   C     0.70751   0.78689   0.24267   0.00000  Uiso   1.00
C232   C     0.75114   0.80662   0.09282   0.00000  Uiso   1.00
C233   C     0.80730   0.82812   0.11956   0.00000  Uiso   1.00
C234   C     0.84038   0.84380   0.96476   0.00000  Uiso   1.00
C235   C     0.91151   0.87527   0.75872   0.00000  Uiso   1.00
C236   C     0.66537   0.72726   0.19596   0.00000  Uiso   1.00
C237   C     0.64942   0.68205   0.30942   0.00000  Uiso   1.00
C238   C     0.61029   0.63092   0.24145   0.00000  Uiso   1.00
C239   C     0.54824   0.53920   0.19557   0.00000  Uiso   1.00
C240   C     0.67784   0.81965   0.21828   0.00000  Uiso   1.00
C241   C     0.67235   0.85211   0.35052   0.00000  Uiso   1.00
C242   C     0.64370   0.87877   0.30135   0.00000  Uiso   1.00
C243   C     0.60101   0.93050   0.29013   0.00000  Uiso   1.00
C244   C     0.66638   0.77649   0.92023   0.00000  Uiso   1.00
C245   C     0.72880   0.80097   0.91768   0.00000  Uiso   1.00
C246   C     0.76179   0.81662   0.76281   0.00000  Uiso   1.00
C247   C     0.81800   0.83815   0.78931   0.00000  Uiso   1.00
C248   C     0.64303   0.72161   0.02082   0.00000  Uiso   1.00
C249   C     0.60391   0.67055   0.95267   0.00000  Uiso   1.00
C250   C     0.58791   0.62527   0.06600   0.00000  Uiso   1.00
C251   C     0.65550   0.81401   0.04313   0.00000  Uiso   1.00
C252   C     0.62684   0.84062   0.99376   0.00000  Uiso   1.00
C253   C     0.62132   0.87311   0.12590   0.00000  Uiso   1.00
H254   H     0.72490   0.79128   0.37903   0.00000  Uiso   1.00
H255   H     0.82458   0.83248   0.25512   0.00000  Uiso   1.00
H256   H     0.66671   0.68643   0.44495   0.00000  Uiso   1.00
H257   H     0.68964   0.85647   0.48604   0.00000  Uiso   1.00
H258   H     0.92522   0.87565   0.04049   0.00000  Uiso   1.00
H259   H     0.59235   0.56770   0.44080   0.00000  Uiso   1.00
H260   H     0.64070   0.92626   0.52744   0.00000  Uiso   1.00
H261   H     0.64898   0.77210   0.78387   0.00000  Uiso   1.00
H262   H     0.74449   0.81225   0.62729   0.00000  Uiso   1.00
H263   H     0.58663   0.66620   0.81713   0.00000  Uiso   1.00
H264   H     0.60956   0.83624   0.85822   0.00000  Uiso   1.00
H265   H     0.86023   0.85923   0.53093   0.00000  Uiso   1.00
H266   H     0.52735   0.55127   0.93124   0.00000  Uiso   1.00
H267   H     0.57570   0.90984   0.01788   0.00000  Uiso   1.00
O268   O     0.95692   0.89418   0.69344   0.00000  Uiso   1.00
O269   O     0.52020   0.49016   0.21865   0.00000  Uiso   1.00
O270   O     0.58363   0.96059   0.33232   0.00000  Uiso   1.00
N271   N     0.89682   0.86629   0.94206   0.00000  Uiso   1.00
N272   N     0.58561   0.57836   0.31631   0.00000  Uiso   1.00
N273   N     0.63080   0.91358   0.39733   0.00000  Uiso   1.00
N274   N     0.86185   0.85745   0.66786   0.00000  Uiso   1.00
N275   N     0.55064   0.56953   0.04212   0.00000  Uiso   1.00
N276   N     0.59583   0.90475   0.12314   0.00000  Uiso   1.00
