data_job_01773
_audit_creation_date              2018-12-19
_audit_creation_method            'Materials Studio'
_symmetry_space_group_name_H-M    'P1'
_symmetry_Int_Tables_number       1
_symmetry_cell_setting            triclinic
loop_
_symmetry_equiv_pos_as_xyz
  x,y,z
_cell_length_a                    24.0108
_cell_length_b                    17.7795
_cell_length_c                    12.3531
_cell_angle_alpha                 90.0000
_cell_angle_beta                  115.3141
_cell_angle_gamma                 90.0000
loop_
_atom_site_label
_atom_site_type_symbol
_atom_site_fract_x
_atom_site_fract_y
_atom_site_fract_z
_atom_site_U_iso_or_equiv
_atom_site_adp_type
_atom_site_occupancy
C1     C     0.77961   0.17388   0.71008   0.00000  Uiso   1.00
C2     C     0.81631   0.18662   0.84423   0.00000  Uiso   1.00
C3     C     0.81920   0.25339   0.90460   0.00000  Uiso   1.00
C4     C     0.85535   0.25362   0.02736   0.00000  Uiso   1.00
C5     C     0.90749   0.28320   0.22651   0.00000  Uiso   1.00
C6     C     0.82585   0.14653   0.66431   0.00000  Uiso   1.00
C7     C     0.83675   0.17958   0.57340   0.00000  Uiso   1.00
C8     C     0.88093   0.14605   0.54470   0.00000  Uiso   1.00
C9     C     0.94784   0.11336   0.46447   0.00000  Uiso   1.00
C10    C     0.73716   0.10739   0.69752   0.00000  Uiso   1.00
C11    C     0.67347   0.10753   0.63450   0.00000  Uiso   1.00
C12    C     0.64297   0.04104   0.63374   0.00000  Uiso   1.00
C13    C     0.57217   0.94758   0.60507   0.00000  Uiso   1.00
C14    C     0.83868   0.05556   0.82073   0.00000  Uiso   1.00
C15    C     0.84840   0.12236   0.90433   0.00000  Uiso   1.00
C16    C     0.88456   0.12248   0.02703   0.00000  Uiso   1.00
C17    C     0.88750   0.18924   0.08758   0.00000  Uiso   1.00
C18    C     0.85794   0.08227   0.72441   0.00000  Uiso   1.00
C19    C     0.90211   0.04868   0.69583   0.00000  Uiso   1.00
C20    C     0.91307   0.08167   0.60491   0.00000  Uiso   1.00
C21    C     0.76924   0.04313   0.75763   0.00000  Uiso   1.00
C22    C     0.73883   0.97662   0.75695   0.00000  Uiso   1.00
C23    C     0.67512   0.97666   0.69395   0.00000  Uiso   1.00
H24    H     0.75463   0.22391   0.66328   0.00000  Uiso   1.00
H25    H     0.79437   0.30311   0.85805   0.00000  Uiso   1.00
H26    H     0.81191   0.22931   0.52690   0.00000  Uiso   1.00
H27    H     0.64866   0.15727   0.58800   0.00000  Uiso   1.00
H28    H     0.85259   0.36259   0.10050   0.00000  Uiso   1.00
H29    H     0.88956   0.20696   0.40222   0.00000  Uiso   1.00
H30    H     0.54532   0.05505   0.53106   0.00000  Uiso   1.00
H31    H     0.86367   0.00552   0.86753   0.00000  Uiso   1.00
H32    H     0.90938   0.07274   0.07352   0.00000  Uiso   1.00
H33    H     0.92692   0.99894   0.74236   0.00000  Uiso   1.00
H34    H     0.76368   0.92690   0.80347   0.00000  Uiso   1.00
H35    H     0.94594   0.17562   0.27538   0.00000  Uiso   1.00
H36    H     0.98291   0.01999   0.57709   0.00000  Uiso   1.00
H37    H     0.63867   0.86807   0.70594   0.00000  Uiso   1.00
O38    O     0.92739   0.31727   0.31975   0.00000  Uiso   1.00
O39    O     0.97588   0.11308   0.40362   0.00000  Uiso   1.00
O40    O     0.52425   0.91378   0.57266   0.00000  Uiso   1.00
N41    N     0.86827   0.30936   0.11339   0.00000  Uiso   1.00
N42    N     0.90285   0.16386   0.46055   0.00000  Uiso   1.00
N43    N     0.58101   0.02183   0.58098   0.00000  Uiso   1.00
N44    N     0.91851   0.20875   0.20749   0.00000  Uiso   1.00
N45    N     0.95308   0.06325   0.55465   0.00000  Uiso   1.00
N46    N     0.63124   0.92122   0.67508   0.00000  Uiso   1.00
C47    C     0.27961   0.67388   0.71008   0.00000  Uiso   1.00
C48    C     0.31631   0.68662   0.84423   0.00000  Uiso   1.00
C49    C     0.31920   0.75339   0.90460   0.00000  Uiso   1.00
C50    C     0.35535   0.75362   0.02736   0.00000  Uiso   1.00
C51    C     0.40749   0.78320   0.22651   0.00000  Uiso   1.00
C52    C     0.32585   0.64653   0.66431   0.00000  Uiso   1.00
C53    C     0.33675   0.67958   0.57340   0.00000  Uiso   1.00
C54    C     0.38093   0.64605   0.54470   0.00000  Uiso   1.00
C55    C     0.44784   0.61336   0.46447   0.00000  Uiso   1.00
C56    C     0.23716   0.60739   0.69752   0.00000  Uiso   1.00
C57    C     0.17347   0.60753   0.63450   0.00000  Uiso   1.00
C58    C     0.14297   0.54104   0.63374   0.00000  Uiso   1.00
C59    C     0.07217   0.44758   0.60507   0.00000  Uiso   1.00
C60    C     0.33868   0.55556   0.82073   0.00000  Uiso   1.00
C61    C     0.34840   0.62236   0.90433   0.00000  Uiso   1.00
C62    C     0.38456   0.62248   0.02703   0.00000  Uiso   1.00
C63    C     0.38750   0.68924   0.08758   0.00000  Uiso   1.00
C64    C     0.35794   0.58227   0.72441   0.00000  Uiso   1.00
C65    C     0.40211   0.54868   0.69583   0.00000  Uiso   1.00
C66    C     0.41307   0.58167   0.60491   0.00000  Uiso   1.00
C67    C     0.26924   0.54313   0.75763   0.00000  Uiso   1.00
C68    C     0.23883   0.47662   0.75695   0.00000  Uiso   1.00
C69    C     0.17512   0.47666   0.69395   0.00000  Uiso   1.00
H70    H     0.25463   0.72391   0.66328   0.00000  Uiso   1.00
H71    H     0.29437   0.80311   0.85805   0.00000  Uiso   1.00
H72    H     0.31191   0.72931   0.52690   0.00000  Uiso   1.00
H73    H     0.14866   0.65727   0.58800   0.00000  Uiso   1.00
H74    H     0.35259   0.86259   0.10050   0.00000  Uiso   1.00
H75    H     0.38956   0.70696   0.40222   0.00000  Uiso   1.00
H76    H     0.04532   0.55505   0.53106   0.00000  Uiso   1.00
H77    H     0.36367   0.50552   0.86753   0.00000  Uiso   1.00
H78    H     0.40938   0.57274   0.07352   0.00000  Uiso   1.00
H79    H     0.42692   0.49894   0.74236   0.00000  Uiso   1.00
H80    H     0.26368   0.42690   0.80347   0.00000  Uiso   1.00
H81    H     0.44594   0.67562   0.27538   0.00000  Uiso   1.00
H82    H     0.48291   0.51999   0.57709   0.00000  Uiso   1.00
H83    H     0.13867   0.36807   0.70594   0.00000  Uiso   1.00
O84    O     0.42739   0.81727   0.31975   0.00000  Uiso   1.00
O85    O     0.47588   0.61308   0.40362   0.00000  Uiso   1.00
O86    O     0.02425   0.41378   0.57266   0.00000  Uiso   1.00
N87    N     0.36827   0.80936   0.11339   0.00000  Uiso   1.00
N88    N     0.40285   0.66386   0.46055   0.00000  Uiso   1.00
N89    N     0.08101   0.52183   0.58098   0.00000  Uiso   1.00
N90    N     0.41851   0.70875   0.20749   0.00000  Uiso   1.00
N91    N     0.45308   0.56325   0.55465   0.00000  Uiso   1.00
N92    N     0.13124   0.42122   0.67508   0.00000  Uiso   1.00
C93    C     0.22039   0.17388   0.78992   0.00000  Uiso   1.00
C94    C     0.18369   0.18662   0.65577   0.00000  Uiso   1.00
C95    C     0.18080   0.25339   0.59540   0.00000  Uiso   1.00
C96    C     0.14465   0.25362   0.47264   0.00000  Uiso   1.00
C97    C     0.09251   0.28320   0.27349   0.00000  Uiso   1.00
C98    C     0.17415   0.14653   0.83569   0.00000  Uiso   1.00
C99    C     0.16325   0.17958   0.92660   0.00000  Uiso   1.00
C100   C     0.11907   0.14605   0.95530   0.00000  Uiso   1.00
C101   C     0.05216   0.11336   0.03553   0.00000  Uiso   1.00
C102   C     0.26284   0.10739   0.80248   0.00000  Uiso   1.00
C103   C     0.32653   0.10753   0.86550   0.00000  Uiso   1.00
C104   C     0.35703   0.04104   0.86626   0.00000  Uiso   1.00
C105   C     0.42783   0.94758   0.89493   0.00000  Uiso   1.00
C106   C     0.16132   0.05556   0.67927   0.00000  Uiso   1.00
C107   C     0.15160   0.12236   0.59567   0.00000  Uiso   1.00
C108   C     0.11544   0.12248   0.47297   0.00000  Uiso   1.00
C109   C     0.11250   0.18924   0.41242   0.00000  Uiso   1.00
C110   C     0.14206   0.08227   0.77559   0.00000  Uiso   1.00
C111   C     0.09789   0.04868   0.80417   0.00000  Uiso   1.00
C112   C     0.08693   0.08167   0.89509   0.00000  Uiso   1.00
C113   C     0.23076   0.04313   0.74237   0.00000  Uiso   1.00
C114   C     0.26117   0.97662   0.74305   0.00000  Uiso   1.00
C115   C     0.32488   0.97666   0.80605   0.00000  Uiso   1.00
H116   H     0.24537   0.22391   0.83672   0.00000  Uiso   1.00
H117   H     0.20563   0.30311   0.64195   0.00000  Uiso   1.00
H118   H     0.18809   0.22931   0.97310   0.00000  Uiso   1.00
H119   H     0.35134   0.15727   0.91200   0.00000  Uiso   1.00
H120   H     0.14741   0.36259   0.39950   0.00000  Uiso   1.00
H121   H     0.11044   0.20696   0.09778   0.00000  Uiso   1.00
H122   H     0.45468   0.05505   0.96894   0.00000  Uiso   1.00
H123   H     0.13633   0.00552   0.63247   0.00000  Uiso   1.00
H124   H     0.09062   0.07274   0.42648   0.00000  Uiso   1.00
H125   H     0.07308   0.99894   0.75764   0.00000  Uiso   1.00
H126   H     0.23632   0.92690   0.69653   0.00000  Uiso   1.00
H127   H     0.05406   0.17562   0.22462   0.00000  Uiso   1.00
H128   H     0.01709   0.01999   0.92291   0.00000  Uiso   1.00
H129   H     0.36133   0.86807   0.79406   0.00000  Uiso   1.00
O130   O     0.07261   0.31727   0.18025   0.00000  Uiso   1.00
O131   O     0.02412   0.11308   0.09638   0.00000  Uiso   1.00
O132   O     0.47575   0.91378   0.92734   0.00000  Uiso   1.00
N133   N     0.13173   0.30936   0.38661   0.00000  Uiso   1.00
N134   N     0.09715   0.16386   0.03945   0.00000  Uiso   1.00
N135   N     0.41899   0.02183   0.91902   0.00000  Uiso   1.00
N136   N     0.08149   0.20875   0.29251   0.00000  Uiso   1.00
N137   N     0.04692   0.06325   0.94535   0.00000  Uiso   1.00
N138   N     0.36876   0.92122   0.82492   0.00000  Uiso   1.00
C139   C     0.72039   0.67388   0.78992   0.00000  Uiso   1.00
C140   C     0.68369   0.68662   0.65577   0.00000  Uiso   1.00
C141   C     0.68080   0.75339   0.59540   0.00000  Uiso   1.00
C142   C     0.64465   0.75362   0.47264   0.00000  Uiso   1.00
C143   C     0.59251   0.78320   0.27349   0.00000  Uiso   1.00
C144   C     0.67415   0.64653   0.83569   0.00000  Uiso   1.00
C145   C     0.66325   0.67958   0.92660   0.00000  Uiso   1.00
C146   C     0.61907   0.64605   0.95530   0.00000  Uiso   1.00
C147   C     0.55216   0.61336   0.03553   0.00000  Uiso   1.00
C148   C     0.76284   0.60739   0.80248   0.00000  Uiso   1.00
C149   C     0.82653   0.60753   0.86550   0.00000  Uiso   1.00
C150   C     0.85703   0.54104   0.86626   0.00000  Uiso   1.00
C151   C     0.92783   0.44758   0.89493   0.00000  Uiso   1.00
C152   C     0.66132   0.55556   0.67927   0.00000  Uiso   1.00
C153   C     0.65160   0.62236   0.59567   0.00000  Uiso   1.00
C154   C     0.61544   0.62248   0.47297   0.00000  Uiso   1.00
C155   C     0.61250   0.68924   0.41242   0.00000  Uiso   1.00
C156   C     0.64206   0.58227   0.77559   0.00000  Uiso   1.00
C157   C     0.59789   0.54868   0.80417   0.00000  Uiso   1.00
C158   C     0.58693   0.58167   0.89509   0.00000  Uiso   1.00
C159   C     0.73076   0.54313   0.74237   0.00000  Uiso   1.00
C160   C     0.76117   0.47662   0.74305   0.00000  Uiso   1.00
C161   C     0.82488   0.47666   0.80605   0.00000  Uiso   1.00
H162   H     0.74537   0.72391   0.83672   0.00000  Uiso   1.00
H163   H     0.70563   0.80311   0.64195   0.00000  Uiso   1.00
H164   H     0.68809   0.72931   0.97310   0.00000  Uiso   1.00
H165   H     0.85134   0.65727   0.91200   0.00000  Uiso   1.00
H166   H     0.64741   0.86259   0.39950   0.00000  Uiso   1.00
H167   H     0.61044   0.70696   0.09778   0.00000  Uiso   1.00
H168   H     0.95468   0.55505   0.96894   0.00000  Uiso   1.00
H169   H     0.63633   0.50552   0.63247   0.00000  Uiso   1.00
H170   H     0.59062   0.57274   0.42648   0.00000  Uiso   1.00
H171   H     0.57308   0.49894   0.75764   0.00000  Uiso   1.00
H172   H     0.73632   0.42690   0.69653   0.00000  Uiso   1.00
H173   H     0.55406   0.67562   0.22462   0.00000  Uiso   1.00
H174   H     0.51709   0.51999   0.92291   0.00000  Uiso   1.00
H175   H     0.86133   0.36807   0.79406   0.00000  Uiso   1.00
O176   O     0.57261   0.81727   0.18025   0.00000  Uiso   1.00
O177   O     0.52412   0.61308   0.09638   0.00000  Uiso   1.00
O178   O     0.97575   0.41378   0.92734   0.00000  Uiso   1.00
N179   N     0.63173   0.80936   0.38661   0.00000  Uiso   1.00
N180   N     0.59715   0.66386   0.03945   0.00000  Uiso   1.00
N181   N     0.91899   0.52183   0.91902   0.00000  Uiso   1.00
N182   N     0.58149   0.70875   0.29251   0.00000  Uiso   1.00
N183   N     0.54692   0.56325   0.94535   0.00000  Uiso   1.00
N184   N     0.86876   0.42122   0.82492   0.00000  Uiso   1.00
C185   C     0.22039   0.82612   0.28992   0.00000  Uiso   1.00
C186   C     0.18369   0.81338   0.15577   0.00000  Uiso   1.00
C187   C     0.18080   0.74661   0.09540   0.00000  Uiso   1.00
C188   C     0.14465   0.74638   0.97264   0.00000  Uiso   1.00
C189   C     0.09251   0.71680   0.77349   0.00000  Uiso   1.00
C190   C     0.17415   0.85347   0.33569   0.00000  Uiso   1.00
C191   C     0.16325   0.82042   0.42660   0.00000  Uiso   1.00
C192   C     0.11907   0.85395   0.45530   0.00000  Uiso   1.00
C193   C     0.05216   0.88664   0.53553   0.00000  Uiso   1.00
C194   C     0.26284   0.89261   0.30248   0.00000  Uiso   1.00
C195   C     0.32653   0.89247   0.36550   0.00000  Uiso   1.00
C196   C     0.35703   0.95896   0.36626   0.00000  Uiso   1.00
C197   C     0.42783   0.05242   0.39493   0.00000  Uiso   1.00
C198   C     0.16132   0.94444   0.17927   0.00000  Uiso   1.00
C199   C     0.15160   0.87764   0.09567   0.00000  Uiso   1.00
C200   C     0.11544   0.87752   0.97297   0.00000  Uiso   1.00
C201   C     0.11250   0.81076   0.91242   0.00000  Uiso   1.00
C202   C     0.14206   0.91773   0.27559   0.00000  Uiso   1.00
C203   C     0.09789   0.95132   0.30417   0.00000  Uiso   1.00
C204   C     0.08693   0.91833   0.39509   0.00000  Uiso   1.00
C205   C     0.23076   0.95687   0.24237   0.00000  Uiso   1.00
C206   C     0.26117   0.02338   0.24305   0.00000  Uiso   1.00
C207   C     0.32488   0.02334   0.30605   0.00000  Uiso   1.00
H208   H     0.24537   0.77609   0.33672   0.00000  Uiso   1.00
H209   H     0.20563   0.69689   0.14195   0.00000  Uiso   1.00
H210   H     0.18809   0.77069   0.47310   0.00000  Uiso   1.00
H211   H     0.35134   0.84273   0.41200   0.00000  Uiso   1.00
H212   H     0.14741   0.63741   0.89950   0.00000  Uiso   1.00
H213   H     0.11044   0.79304   0.59778   0.00000  Uiso   1.00
H214   H     0.45468   0.94495   0.46894   0.00000  Uiso   1.00
H215   H     0.13633   0.99448   0.13247   0.00000  Uiso   1.00
H216   H     0.09062   0.92726   0.92648   0.00000  Uiso   1.00
H217   H     0.07308   0.00106   0.25764   0.00000  Uiso   1.00
H218   H     0.23632   0.07310   0.19653   0.00000  Uiso   1.00
H219   H     0.05406   0.82438   0.72462   0.00000  Uiso   1.00
H220   H     0.01709   0.98001   0.42291   0.00000  Uiso   1.00
H221   H     0.36133   0.13193   0.29406   0.00000  Uiso   1.00
O222   O     0.07261   0.68273   0.68025   0.00000  Uiso   1.00
O223   O     0.02412   0.88692   0.59638   0.00000  Uiso   1.00
O224   O     0.47575   0.08622   0.42734   0.00000  Uiso   1.00
N225   N     0.13173   0.69064   0.88661   0.00000  Uiso   1.00
N226   N     0.09715   0.83614   0.53945   0.00000  Uiso   1.00
N227   N     0.41899   0.97817   0.41902   0.00000  Uiso   1.00
N228   N     0.08149   0.79125   0.79251   0.00000  Uiso   1.00
N229   N     0.04692   0.93675   0.44535   0.00000  Uiso   1.00
N230   N     0.36876   0.07878   0.32492   0.00000  Uiso   1.00
C231   C     0.72039   0.32612   0.28992   0.00000  Uiso   1.00
C232   C     0.68369   0.31338   0.15577   0.00000  Uiso   1.00
C233   C     0.68080   0.24661   0.09540   0.00000  Uiso   1.00
C234   C     0.64465   0.24638   0.97264   0.00000  Uiso   1.00
C235   C     0.59251   0.21680   0.77349   0.00000  Uiso   1.00
C236   C     0.67415   0.35347   0.33569   0.00000  Uiso   1.00
C237   C     0.66325   0.32042   0.42660   0.00000  Uiso   1.00
C238   C     0.61907   0.35395   0.45530   0.00000  Uiso   1.00
C239   C     0.55216   0.38664   0.53553   0.00000  Uiso   1.00
C240   C     0.76284   0.39261   0.30248   0.00000  Uiso   1.00
C241   C     0.82653   0.39247   0.36550   0.00000  Uiso   1.00
C242   C     0.85703   0.45896   0.36626   0.00000  Uiso   1.00
C243   C     0.92783   0.55242   0.39493   0.00000  Uiso   1.00
C244   C     0.66132   0.44444   0.17927   0.00000  Uiso   1.00
C245   C     0.65160   0.37764   0.09567   0.00000  Uiso   1.00
C246   C     0.61544   0.37752   0.97297   0.00000  Uiso   1.00
C247   C     0.61250   0.31076   0.91242   0.00000  Uiso   1.00
C248   C     0.64206   0.41773   0.27559   0.00000  Uiso   1.00
C249   C     0.59789   0.45132   0.30417   0.00000  Uiso   1.00
C250   C     0.58693   0.41833   0.39509   0.00000  Uiso   1.00
C251   C     0.73076   0.45687   0.24237   0.00000  Uiso   1.00
C252   C     0.76117   0.52338   0.24305   0.00000  Uiso   1.00
C253   C     0.82488   0.52334   0.30605   0.00000  Uiso   1.00
H254   H     0.74537   0.27609   0.33672   0.00000  Uiso   1.00
H255   H     0.70563   0.19689   0.14195   0.00000  Uiso   1.00
H256   H     0.68809   0.27069   0.47310   0.00000  Uiso   1.00
H257   H     0.85134   0.34273   0.41200   0.00000  Uiso   1.00
H258   H     0.64741   0.13741   0.89950   0.00000  Uiso   1.00
H259   H     0.61044   0.29304   0.59778   0.00000  Uiso   1.00
H260   H     0.95468   0.44495   0.46894   0.00000  Uiso   1.00
H261   H     0.63633   0.49448   0.13247   0.00000  Uiso   1.00
H262   H     0.59062   0.42726   0.92648   0.00000  Uiso   1.00
H263   H     0.57308   0.50106   0.25764   0.00000  Uiso   1.00
H264   H     0.73632   0.57310   0.19653   0.00000  Uiso   1.00
H265   H     0.55406   0.32438   0.72462   0.00000  Uiso   1.00
H266   H     0.51709   0.48001   0.42291   0.00000  Uiso   1.00
H267   H     0.86133   0.63193   0.29406   0.00000  Uiso   1.00
O268   O     0.57261   0.18273   0.68025   0.00000  Uiso   1.00
O269   O     0.52412   0.38692   0.59638   0.00000  Uiso   1.00
O270   O     0.97575   0.58622   0.42734   0.00000  Uiso   1.00
N271   N     0.63173   0.19064   0.88661   0.00000  Uiso   1.00
N272   N     0.59715   0.33614   0.53945   0.00000  Uiso   1.00
N273   N     0.91899   0.47817   0.41902   0.00000  Uiso   1.00
N274   N     0.58149   0.29125   0.79251   0.00000  Uiso   1.00
N275   N     0.54692   0.43675   0.44535   0.00000  Uiso   1.00
N276   N     0.86876   0.57878   0.32492   0.00000  Uiso   1.00
C277   C     0.77961   0.82612   0.21008   0.00000  Uiso   1.00
C278   C     0.81631   0.81338   0.34423   0.00000  Uiso   1.00
C279   C     0.81920   0.74661   0.40460   0.00000  Uiso   1.00
C280   C     0.85535   0.74638   0.52736   0.00000  Uiso   1.00
C281   C     0.90749   0.71680   0.72651   0.00000  Uiso   1.00
C282   C     0.82585   0.85347   0.16431   0.00000  Uiso   1.00
C283   C     0.83675   0.82042   0.07340   0.00000  Uiso   1.00
C284   C     0.88093   0.85395   0.04470   0.00000  Uiso   1.00
C285   C     0.94784   0.88664   0.96447   0.00000  Uiso   1.00
C286   C     0.73716   0.89261   0.19752   0.00000  Uiso   1.00
C287   C     0.67347   0.89247   0.13450   0.00000  Uiso   1.00
C288   C     0.64297   0.95896   0.13374   0.00000  Uiso   1.00
C289   C     0.57217   0.05242   0.10507   0.00000  Uiso   1.00
C290   C     0.83868   0.94444   0.32073   0.00000  Uiso   1.00
C291   C     0.84840   0.87764   0.40433   0.00000  Uiso   1.00
C292   C     0.88456   0.87752   0.52703   0.00000  Uiso   1.00
C293   C     0.88750   0.81076   0.58758   0.00000  Uiso   1.00
C294   C     0.85794   0.91773   0.22441   0.00000  Uiso   1.00
C295   C     0.90211   0.95132   0.19583   0.00000  Uiso   1.00
C296   C     0.91307   0.91833   0.10491   0.00000  Uiso   1.00
C297   C     0.76924   0.95687   0.25763   0.00000  Uiso   1.00
C298   C     0.73883   0.02338   0.25695   0.00000  Uiso   1.00
C299   C     0.67512   0.02334   0.19395   0.00000  Uiso   1.00
H300   H     0.75463   0.77609   0.16328   0.00000  Uiso   1.00
H301   H     0.79437   0.69689   0.35805   0.00000  Uiso   1.00
H302   H     0.81191   0.77069   0.02690   0.00000  Uiso   1.00
H303   H     0.64866   0.84273   0.08800   0.00000  Uiso   1.00
H304   H     0.85259   0.63741   0.60050   0.00000  Uiso   1.00
H305   H     0.88956   0.79304   0.90222   0.00000  Uiso   1.00
H306   H     0.54532   0.94495   0.03106   0.00000  Uiso   1.00
H307   H     0.86367   0.99448   0.36753   0.00000  Uiso   1.00
H308   H     0.90938   0.92726   0.57352   0.00000  Uiso   1.00
H309   H     0.92692   0.00106   0.24236   0.00000  Uiso   1.00
H310   H     0.76368   0.07310   0.30347   0.00000  Uiso   1.00
H311   H     0.94594   0.82438   0.77538   0.00000  Uiso   1.00
H312   H     0.98291   0.98001   0.07709   0.00000  Uiso   1.00
H313   H     0.63867   0.13193   0.20594   0.00000  Uiso   1.00
O314   O     0.92739   0.68273   0.81975   0.00000  Uiso   1.00
O315   O     0.97588   0.88692   0.90362   0.00000  Uiso   1.00
O316   O     0.52425   0.08622   0.07266   0.00000  Uiso   1.00
N317   N     0.86827   0.69064   0.61339   0.00000  Uiso   1.00
N318   N     0.90285   0.83614   0.96055   0.00000  Uiso   1.00
N319   N     0.58101   0.97817   0.08098   0.00000  Uiso   1.00
N320   N     0.91851   0.79125   0.70749   0.00000  Uiso   1.00
N321   N     0.95308   0.93675   0.05465   0.00000  Uiso   1.00
N322   N     0.63124   0.07878   0.17508   0.00000  Uiso   1.00
C323   C     0.27961   0.32612   0.21008   0.00000  Uiso   1.00
C324   C     0.31631   0.31338   0.34423   0.00000  Uiso   1.00
C325   C     0.31920   0.24661   0.40460   0.00000  Uiso   1.00
C326   C     0.35535   0.24638   0.52736   0.00000  Uiso   1.00
C327   C     0.40749   0.21680   0.72651   0.00000  Uiso   1.00
C328   C     0.32585   0.35347   0.16431   0.00000  Uiso   1.00
C329   C     0.33675   0.32042   0.07340   0.00000  Uiso   1.00
C330   C     0.38093   0.35395   0.04470   0.00000  Uiso   1.00
C331   C     0.44784   0.38664   0.96447   0.00000  Uiso   1.00
C332   C     0.23716   0.39261   0.19752   0.00000  Uiso   1.00
C333   C     0.17347   0.39247   0.13450   0.00000  Uiso   1.00
C334   C     0.14297   0.45896   0.13374   0.00000  Uiso   1.00
C335   C     0.07217   0.55242   0.10507   0.00000  Uiso   1.00
C336   C     0.33868   0.44444   0.32073   0.00000  Uiso   1.00
C337   C     0.34840   0.37764   0.40433   0.00000  Uiso   1.00
C338   C     0.38456   0.37752   0.52703   0.00000  Uiso   1.00
C339   C     0.38750   0.31076   0.58758   0.00000  Uiso   1.00
C340   C     0.35794   0.41773   0.22441   0.00000  Uiso   1.00
C341   C     0.40211   0.45132   0.19583   0.00000  Uiso   1.00
C342   C     0.41307   0.41833   0.10491   0.00000  Uiso   1.00
C343   C     0.26924   0.45687   0.25763   0.00000  Uiso   1.00
C344   C     0.23883   0.52338   0.25695   0.00000  Uiso   1.00
C345   C     0.17512   0.52334   0.19395   0.00000  Uiso   1.00
H346   H     0.25463   0.27609   0.16328   0.00000  Uiso   1.00
H347   H     0.29437   0.19689   0.35805   0.00000  Uiso   1.00
H348   H     0.31191   0.27069   0.02690   0.00000  Uiso   1.00
H349   H     0.14866   0.34273   0.08800   0.00000  Uiso   1.00
H350   H     0.35259   0.13741   0.60050   0.00000  Uiso   1.00
H351   H     0.38956   0.29304   0.90222   0.00000  Uiso   1.00
H352   H     0.04532   0.44495   0.03106   0.00000  Uiso   1.00
H353   H     0.36367   0.49448   0.36753   0.00000  Uiso   1.00
H354   H     0.40938   0.42726   0.57352   0.00000  Uiso   1.00
H355   H     0.42692   0.50106   0.24236   0.00000  Uiso   1.00
H356   H     0.26368   0.57310   0.30347   0.00000  Uiso   1.00
H357   H     0.44594   0.32438   0.77538   0.00000  Uiso   1.00
H358   H     0.48291   0.48001   0.07709   0.00000  Uiso   1.00
H359   H     0.13867   0.63193   0.20594   0.00000  Uiso   1.00
O360   O     0.42739   0.18273   0.81975   0.00000  Uiso   1.00
O361   O     0.47588   0.38692   0.90362   0.00000  Uiso   1.00
O362   O     0.02425   0.58622   0.07266   0.00000  Uiso   1.00
N363   N     0.36827   0.19064   0.61339   0.00000  Uiso   1.00
N364   N     0.40285   0.33614   0.96055   0.00000  Uiso   1.00
N365   N     0.08101   0.47817   0.08098   0.00000  Uiso   1.00
N366   N     0.41851   0.29125   0.70749   0.00000  Uiso   1.00
N367   N     0.45308   0.43675   0.05465   0.00000  Uiso   1.00
N368   N     0.13124   0.57878   0.17508   0.00000  Uiso   1.00
