data_job_06987
_audit_creation_date              2018-12-19
_audit_creation_method            'Materials Studio'
_symmetry_space_group_name_H-M    'P1'
_symmetry_Int_Tables_number       1
_symmetry_cell_setting            triclinic
loop_
_symmetry_equiv_pos_as_xyz
  x,y,z
_cell_length_a                    21.5636
_cell_length_b                    22.8195
_cell_length_c                    22.6630
_cell_angle_alpha                 84.2762
_cell_angle_beta                  90.9404
_cell_angle_gamma                 83.6424
loop_
_atom_site_label
_atom_site_type_symbol
_atom_site_fract_x
_atom_site_fract_y
_atom_site_fract_z
_atom_site_U_iso_or_equiv
_atom_site_adp_type
_atom_site_occupancy
C1     C     0.08972   0.71222   0.83793   0.00000  Uiso   1.00
C2     C     0.05447   0.74750   0.88305   0.00000  Uiso   1.00
C3     C     0.07994   0.78488   0.91912   0.00000  Uiso   1.00
C4     C     0.03994   0.81313   0.95746   0.00000  Uiso   1.00
C5     C     0.99482   0.86923   0.02721   0.00000  Uiso   1.00
C6     C     0.07996   0.64758   0.85482   0.00000  Uiso   1.00
C7     C     0.12686   0.60095   0.86715   0.00000  Uiso   1.00
C8     C     0.10830   0.54508   0.88171   0.00000  Uiso   1.00
C9     C     0.10276   0.44605   0.90758   0.00000  Uiso   1.00
C10    C     0.05501   0.73040   0.77864   0.00000  Uiso   1.00
C11    C     0.08094   0.75339   0.72691   0.00000  Uiso   1.00
C12    C     0.04138   0.76723   0.67733   0.00000  Uiso   1.00
C13    C     0.99710   0.79679   0.58492   0.00000  Uiso   1.00
C14    C     0.97338   0.69591   0.84187   0.00000  Uiso   1.00
C15    C     0.99128   0.73864   0.88519   0.00000  Uiso   1.00
C16    C     0.95123   0.76683   0.92348   0.00000  Uiso   1.00
C17    C     0.97663   0.80425   0.95960   0.00000  Uiso   1.00
C18    C     0.01677   0.63872   0.85696   0.00000  Uiso   1.00
C19    C     0.99814   0.58290   0.87150   0.00000  Uiso   1.00
C20    C     0.04500   0.53620   0.88385   0.00000  Uiso   1.00
C21    C     0.99182   0.72154   0.78077   0.00000  Uiso   1.00
C22    C     0.95222   0.73534   0.73126   0.00000  Uiso   1.00
C23    C     0.97808   0.75835   0.67947   0.00000  Uiso   1.00
H24    H     0.13892   0.71911   0.83627   0.00000  Uiso   1.00
H25    H     0.12885   0.79172   0.91746   0.00000  Uiso   1.00
H26    H     0.17575   0.60782   0.86548   0.00000  Uiso   1.00
H27    H     0.12984   0.76024   0.72527   0.00000  Uiso   1.00
H28    H     0.08982   0.86830   0.00843   0.00000  Uiso   1.00
H29    H     0.18872   0.48053   0.89882   0.00000  Uiso   1.00
H30    H     0.09190   0.80192   0.60315   0.00000  Uiso   1.00
H31    H     0.92418   0.68901   0.84353   0.00000  Uiso   1.00
H32    H     0.90233   0.75997   0.92512   0.00000  Uiso   1.00
H33    H     0.94924   0.57606   0.87315   0.00000  Uiso   1.00
H34    H     0.90332   0.72848   0.73293   0.00000  Uiso   1.00
H35    H     0.90597   0.84252   0.01465   0.00000  Uiso   1.00
H36    H     0.00487   0.45475   0.90503   0.00000  Uiso   1.00
H37    H     0.90805   0.77615   0.60937   0.00000  Uiso   1.00
O38    O     0.98740   0.90262   0.06510   0.00000  Uiso   1.00
O39    O     0.11716   0.39388   0.92127   0.00000  Uiso   1.00
O40    O     0.99013   0.81554   0.53337   0.00000  Uiso   1.00
N41    N     0.04955   0.85250   0.99869   0.00000  Uiso   1.00
N42    N     0.14202   0.48996   0.89622   0.00000  Uiso   1.00
N43    N     0.05150   0.79043   0.61979   0.00000  Uiso   1.00
N44    N     0.95062   0.83864   0.00204   0.00000  Uiso   1.00
N45    N     0.04309   0.47609   0.89956   0.00000  Uiso   1.00
N46    N     0.95257   0.77656   0.62313   0.00000  Uiso   1.00
C47    C     0.85006   0.06592   0.71592   0.00000  Uiso   1.00
C48    C     0.90412   0.02450   0.74628   0.00000  Uiso   1.00
C49    C     0.94878   0.04052   0.78452   0.00000  Uiso   1.00
C50    C     0.99445   0.99612   0.80768   0.00000  Uiso   1.00
C51    C     0.07827   0.94069   0.85702   0.00000  Uiso   1.00
C52    C     0.85635   0.06128   0.64958   0.00000  Uiso   1.00
C53    C     0.86084   0.10822   0.60652   0.00000  Uiso   1.00
C54    C     0.86629   0.09478   0.54828   0.00000  Uiso   1.00
C55    C     0.87590   0.09645   0.44749   0.00000  Uiso   1.00
C56    C     0.79087   0.03844   0.73348   0.00000  Uiso   1.00
C57    C     0.74028   0.06616   0.76096   0.00000  Uiso   1.00
C58    C     0.69059   0.03350   0.77335   0.00000  Uiso   1.00
C59    C     0.59852   0.99969   0.80283   0.00000  Uiso   1.00
C60    C     0.85175   0.95861   0.68904   0.00000  Uiso   1.00
C61    C     0.90504   0.96622   0.73167   0.00000  Uiso   1.00
C62    C     0.95065   0.92179   0.75479   0.00000  Uiso   1.00
C63    C     0.99537   0.93773   0.79306   0.00000  Uiso   1.00
C64    C     0.85727   0.00300   0.63498   0.00000  Uiso   1.00
C65    C     0.86271   0.98949   0.57679   0.00000  Uiso   1.00
C66    C     0.86721   0.03639   0.53366   0.00000  Uiso   1.00
C67    C     0.79178   0.98015   0.71889   0.00000  Uiso   1.00
C68    C     0.74215   0.94743   0.73123   0.00000  Uiso   1.00
C69    C     0.69151   0.97510   0.75872   0.00000  Uiso   1.00
H70    H     0.84934   0.11130   0.72728   0.00000  Uiso   1.00
H71    H     0.94806   0.08563   0.79581   0.00000  Uiso   1.00
H72    H     0.86012   0.15332   0.61783   0.00000  Uiso   1.00
H73    H     0.73959   0.11127   0.77225   0.00000  Uiso   1.00
H74    H     0.05792   0.03147   0.86532   0.00000  Uiso   1.00
H75    H     0.87248   0.17420   0.49006   0.00000  Uiso   1.00
H76    H     0.61831   0.08553   0.81568   0.00000  Uiso   1.00
H77    H     0.85246   0.91323   0.67767   0.00000  Uiso   1.00
H78    H     0.95135   0.87668   0.74348   0.00000  Uiso   1.00
H79    H     0.86341   0.94438   0.56551   0.00000  Uiso   1.00
H80    H     0.74288   0.90233   0.71992   0.00000  Uiso   1.00
H81    H     0.06059   0.86188   0.82285   0.00000  Uiso   1.00
H82    H     0.87515   0.00462   0.44758   0.00000  Uiso   1.00
H83    H     0.62098   0.91595   0.77320   0.00000  Uiso   1.00
O84    O     0.12426   0.92621   0.88825   0.00000  Uiso   1.00
O85    O     0.88096   0.11348   0.39592   0.00000  Uiso   1.00
O86    O     0.54750   0.99714   0.82313   0.00000  Uiso   1.00
N87    N     0.04497   0.99657   0.84630   0.00000  Uiso   1.00
N88    N     0.87161   0.13001   0.49546   0.00000  Uiso   1.00
N89    N     0.63397   0.04712   0.79987   0.00000  Uiso   1.00
N90    N     0.04640   0.90531   0.82345   0.00000  Uiso   1.00
N91    N     0.87304   0.03876   0.47260   0.00000  Uiso   1.00
N92    N     0.63540   0.95587   0.77701   0.00000  Uiso   1.00
C93    C     0.75120   0.84216   0.03617   0.00000  Uiso   1.00
C94    C     0.77466   0.89523   0.00065   0.00000  Uiso   1.00
C95    C     0.82316   0.92559   0.01781   0.00000  Uiso   1.00
C96    C     0.83751   0.97296   0.97909   0.00000  Uiso   1.00
C97    C     0.87894   0.05289   0.93214   0.00000  Uiso   1.00
C98    C     0.68173   0.85931   0.04433   0.00000  Uiso   1.00
C99    C     0.65209   0.85945   0.09823   0.00000  Uiso   1.00
C100   C     0.58820   0.87656   0.09627   0.00000  Uiso   1.00
C101   C     0.48534   0.90068   0.11715   0.00000  Uiso   1.00
C102   C     0.75557   0.79259   0.99551   0.00000  Uiso   1.00
C103   C     0.78801   0.73663   0.00835   0.00000  Uiso   1.00
C104   C     0.78629   0.69756   0.96529   0.00000  Uiso   1.00
C105   C     0.79808   0.61809   0.91036   0.00000  Uiso   1.00
C106   C     0.69044   0.87228   0.93689   0.00000  Uiso   1.00
C107   C     0.74165   0.91159   0.94672   0.00000  Uiso   1.00
C108   C     0.75593   0.95892   0.90796   0.00000  Uiso   1.00
C109   C     0.80445   0.98934   0.92506   0.00000  Uiso   1.00
C110   C     0.64872   0.87567   0.99041   0.00000  Uiso   1.00
C111   C     0.58486   0.89278   0.98838   0.00000  Uiso   1.00
C112   C     0.55514   0.89295   0.04225   0.00000  Uiso   1.00
C113   C     0.72257   0.80895   0.94158   0.00000  Uiso   1.00
C114   C     0.72079   0.76996   0.89850   0.00000  Uiso   1.00
C115   C     0.75322   0.71395   0.91127   0.00000  Uiso   1.00
H116   H     0.77689   0.82942   0.07816   0.00000  Uiso   1.00
H117   H     0.84869   0.91292   0.05955   0.00000  Uiso   1.00
H118   H     0.67764   0.84678   0.13995   0.00000  Uiso   1.00
H119   H     0.81355   0.72398   0.05009   0.00000  Uiso   1.00
H120   H     0.91371   0.01272   0.01515   0.00000  Uiso   1.00
H121   H     0.55305   0.87325   0.18467   0.00000  Uiso   1.00
H122   H     0.83963   0.61430   0.99518   0.00000  Uiso   1.00
H123   H     0.66474   0.88502   0.89490   0.00000  Uiso   1.00
H124   H     0.73039   0.97157   0.86623   0.00000  Uiso   1.00
H125   H     0.55934   0.90543   0.94663   0.00000  Uiso   1.00
H126   H     0.69524   0.78263   0.85677   0.00000  Uiso   1.00
H127   H     0.81769   0.06033   0.85824   0.00000  Uiso   1.00
H128   H     0.45703   0.92085   0.02777   0.00000  Uiso   1.00
H129   H     0.74361   0.66190   0.83827   0.00000  Uiso   1.00
O130   O     0.91090   0.09247   0.92115   0.00000  Uiso   1.00
O131   O     0.43772   0.90947   0.14356   0.00000  Uiso   1.00
O132   O     0.81371   0.56974   0.89495   0.00000  Uiso   1.00
N133   N     0.88212   0.01204   0.98215   0.00000  Uiso   1.00
N134   N     0.54492   0.88165   0.14064   0.00000  Uiso   1.00
N135   N     0.81283   0.63955   0.96349   0.00000  Uiso   1.00
N136   N     0.83045   0.03766   0.89772   0.00000  Uiso   1.00
N137   N     0.49325   0.90726   0.05622   0.00000  Uiso   1.00
N138   N     0.76117   0.66516   0.87906   0.00000  Uiso   1.00
C139   C     0.46025   0.18146   0.43563   0.00000  Uiso   1.00
C140   C     0.42241   0.23341   0.46057   0.00000  Uiso   1.00
C141   C     0.44316   0.26638   0.50365   0.00000  Uiso   1.00
C142   C     0.40144   0.31213   0.52050   0.00000  Uiso   1.00
C143   C     0.35186   0.39094   0.56307   0.00000  Uiso   1.00
C144   C     0.46030   0.19731   0.36865   0.00000  Uiso   1.00
C145   C     0.51291   0.19990   0.33445   0.00000  Uiso   1.00
C146   C     0.50309   0.21525   0.27391   0.00000  Uiso   1.00
C147   C     0.51234   0.23797   0.17376   0.00000  Uiso   1.00
C148   C     0.42200   0.12919   0.44567   0.00000  Uiso   1.00
C149   C     0.44242   0.07450   0.47620   0.00000  Uiso   1.00
C150   C     0.40036   0.03249   0.48049   0.00000  Uiso   1.00
C151   C     0.35014   0.94944   0.49992   0.00000  Uiso   1.00
C152   C     0.34927   0.20410   0.38894   0.00000  Uiso   1.00
C153   C     0.36213   0.24571   0.43521   0.00000  Uiso   1.00
C154   C     0.32037   0.29142   0.45200   0.00000  Uiso   1.00
C155   C     0.34105   0.32444   0.49510   0.00000  Uiso   1.00
C156   C     0.40002   0.20960   0.34329   0.00000  Uiso   1.00
C157   C     0.39012   0.22494   0.28280   0.00000  Uiso   1.00
C158   C     0.44270   0.22757   0.24851   0.00000  Uiso   1.00
C159   C     0.36172   0.14148   0.42031   0.00000  Uiso   1.00
C160   C     0.31962   0.09954   0.42455   0.00000  Uiso   1.00
C161   C     0.33997   0.04480   0.45509   0.00000  Uiso   1.00
H162   H     0.50719   0.17190   0.45537   0.00000  Uiso   1.00
H163   H     0.48981   0.25685   0.52326   0.00000  Uiso   1.00
H164   H     0.55955   0.19038   0.35408   0.00000  Uiso   1.00
H165   H     0.48907   0.06500   0.49582   0.00000  Uiso   1.00
H166   H     0.44398   0.35648   0.58734   0.00000  Uiso   1.00
H167   H     0.59103   0.21631   0.23061   0.00000  Uiso   1.00
H168   H     0.44240   0.95191   0.52948   0.00000  Uiso   1.00
H169   H     0.30234   0.21367   0.36920   0.00000  Uiso   1.00
H170   H     0.27372   0.30092   0.43237   0.00000  Uiso   1.00
H171   H     0.34347   0.23445   0.26319   0.00000  Uiso   1.00
H172   H     0.27298   0.10907   0.40492   0.00000  Uiso   1.00
H173   H     0.26859   0.39225   0.51357   0.00000  Uiso   1.00
H174   H     0.41565   0.25207   0.15683   0.00000  Uiso   1.00
H175   H     0.26701   0.98768   0.45571   0.00000  Uiso   1.00
O176   O     0.34116   0.43102   0.59355   0.00000  Uiso   1.00
O177   O     0.53409   0.24711   0.12553   0.00000  Uiso   1.00
O178   O     0.33909   0.90023   0.51765   0.00000  Uiso   1.00
N179   N     0.40662   0.35292   0.56132   0.00000  Uiso   1.00
N180   N     0.54411   0.22187   0.22780   0.00000  Uiso   1.00
N181   N     0.40515   0.97468   0.50720   0.00000  Uiso   1.00
N182   N     0.31225   0.37216   0.52162   0.00000  Uiso   1.00
N183   N     0.44973   0.24112   0.18810   0.00000  Uiso   1.00
N184   N     0.31078   0.99393   0.46751   0.00000  Uiso   1.00
C185   C     0.20839   0.09113   0.72781   0.00000  Uiso   1.00
C186   C     0.26766   0.11317   0.70246   0.00000  Uiso   1.00
C187   C     0.30592   0.14801   0.72989   0.00000  Uiso   1.00
C188   C     0.35800   0.16350   0.69941   0.00000  Uiso   1.00
C189   C     0.44803   0.20054   0.66857   0.00000  Uiso   1.00
C190   C     0.21777   0.02382   0.72877   0.00000  Uiso   1.00
C191   C     0.21407   0.98352   0.77832   0.00000  Uiso   1.00
C192   C     0.22413   0.92379   0.76999   0.00000  Uiso   1.00
C193   C     0.23665   0.82211   0.77999   0.00000  Uiso   1.00
C194   C     0.15650   0.11281   0.68168   0.00000  Uiso   1.00
C195   C     0.10128   0.14732   0.69165   0.00000  Uiso   1.00
C196   C     0.05975   0.16250   0.64367   0.00000  Uiso   1.00
C197   C     0.97715   0.19899   0.58056   0.00000  Uiso   1.00
C198   C     0.23284   0.05670   0.62491   0.00000  Uiso   1.00
C199   C     0.28094   0.09447   0.64657   0.00000  Uiso   1.00
C200   C     0.33297   0.10991   0.61604   0.00000  Uiso   1.00
C201   C     0.37130   0.14476   0.64342   0.00000  Uiso   1.00
C202   C     0.23105   0.00511   0.67288   0.00000  Uiso   1.00
C203   C     0.24112   0.94543   0.66448   0.00000  Uiso   1.00
C204   C     0.23744   0.90505   0.71400   0.00000  Uiso   1.00
C205   C     0.16978   0.09410   0.62579   0.00000  Uiso   1.00
C206   C     0.12833   0.10923   0.57780   0.00000  Uiso   1.00
C207   C     0.07306   0.14376   0.58768   0.00000  Uiso   1.00
H208   H     0.19805   0.10569   0.77132   0.00000  Uiso   1.00
H209   H     0.29563   0.16247   0.77314   0.00000  Uiso   1.00
H210   H     0.20378   0.99801   0.82156   0.00000  Uiso   1.00
H211   H     0.09102   0.16179   0.73490   0.00000  Uiso   1.00
H212   H     0.40969   0.21715   0.75052   0.00000  Uiso   1.00
H213   H     0.21600   0.87038   0.85262   0.00000  Uiso   1.00
H214   H     0.97820   0.21574   0.66988   0.00000  Uiso   1.00
H215   H     0.24318   0.04214   0.58139   0.00000  Uiso   1.00
H216   H     0.34324   0.09543   0.57279   0.00000  Uiso   1.00
H217   H     0.25139   0.93097   0.62122   0.00000  Uiso   1.00
H218   H     0.13862   0.09475   0.53455   0.00000  Uiso   1.00
H219   H     0.44833   0.16274   0.58791   0.00000  Uiso   1.00
H220   H     0.25463   0.81597   0.69001   0.00000  Uiso   1.00
H221   H     0.01684   0.16132   0.50727   0.00000  Uiso   1.00
O222   O     0.49403   0.22613   0.66700   0.00000  Uiso   1.00
O223   O     0.23990   0.77119   0.80094   0.00000  Uiso   1.00
O224   O     0.92792   0.22429   0.56119   0.00000  Uiso   1.00
N225   N     0.40504   0.19704   0.71343   0.00000  Uiso   1.00
N226   N     0.22396   0.87283   0.80889   0.00000  Uiso   1.00
N227   N     0.00164   0.19570   0.63804   0.00000  Uiso   1.00
N228   N     0.42583   0.16776   0.62593   0.00000  Uiso   1.00
N229   N     0.24476   0.84355   0.72139   0.00000  Uiso   1.00
N230   N     0.02243   0.16642   0.55054   0.00000  Uiso   1.00
C231   C     0.12907   0.43262   0.51678   0.00000  Uiso   1.00
C232   C     0.15440   0.39065   0.57045   0.00000  Uiso   1.00
C233   C     0.19585   0.40345   0.61358   0.00000  Uiso   1.00
C234   C     0.21340   0.35911   0.65916   0.00000  Uiso   1.00
C235   C     0.25623   0.30235   0.74217   0.00000  Uiso   1.00
C236   C     0.05814   0.43753   0.52025   0.00000  Uiso   1.00
C237   C     0.01866   0.48975   0.52116   0.00000  Uiso   1.00
C238   C     0.95518   0.48487   0.52446   0.00000  Uiso   1.00
C239   C     0.84856   0.50090   0.52948   0.00000  Uiso   1.00
C240   C     0.14549   0.40010   0.46253   0.00000  Uiso   1.00
C241   C     0.17943   0.42086   0.41490   0.00000  Uiso   1.00
C242   C     0.18946   0.38447   0.36960   0.00000  Uiso   1.00
C243   C     0.21846   0.34238   0.28501   0.00000  Uiso   1.00
C244   C     0.08651   0.33109   0.52101   0.00000  Uiso   1.00
C245   C     0.13129   0.33551   0.57276   0.00000  Uiso   1.00
C246   C     0.14877   0.29113   0.61827   0.00000  Uiso   1.00
C247   C     0.19024   0.30387   0.66146   0.00000  Uiso   1.00
C248   C     0.03503   0.38239   0.52255   0.00000  Uiso   1.00
C249   C     0.97158   0.37743   0.52585   0.00000  Uiso   1.00
C250   C     0.93202   0.42963   0.52676   0.00000  Uiso   1.00
C251   C     0.12237   0.34496   0.46483   0.00000  Uiso   1.00
C252   C     0.13235   0.30853   0.41959   0.00000  Uiso   1.00
C253   C     0.16631   0.32923   0.37191   0.00000  Uiso   1.00
H254   H     0.14706   0.47555   0.51498   0.00000  Uiso   1.00
H255   H     0.21373   0.44614   0.61179   0.00000  Uiso   1.00
H256   H     0.03657   0.53242   0.51937   0.00000  Uiso   1.00
H257   H     0.19731   0.46353   0.41314   0.00000  Uiso   1.00
H258   H     0.27743   0.38922   0.72014   0.00000  Uiso   1.00
H259   H     0.90387   0.57115   0.52525   0.00000  Uiso   1.00
H260   H     0.24283   0.42589   0.30123   0.00000  Uiso   1.00
H261   H     0.06851   0.28816   0.52280   0.00000  Uiso   1.00
H262   H     0.13088   0.24846   0.62004   0.00000  Uiso   1.00
H263   H     0.95371   0.33475   0.52762   0.00000  Uiso   1.00
H264   H     0.11446   0.26586   0.42139   0.00000  Uiso   1.00
H265   H     0.21018   0.22878   0.72684   0.00000  Uiso   1.00
H266   H     0.83663   0.41072   0.53195   0.00000  Uiso   1.00
H267   H     0.17558   0.26545   0.30793   0.00000  Uiso   1.00
O268   O     0.28623   0.28627   0.78733   0.00000  Uiso   1.00
O269   O     0.79614   0.52497   0.53163   0.00000  Uiso   1.00
O270   O     0.24085   0.33439   0.23772   0.00000  Uiso   1.00
N271   N     0.25306   0.35690   0.70837   0.00000  Uiso   1.00
N272   N     0.90380   0.52700   0.52617   0.00000  Uiso   1.00
N273   N     0.22069   0.39120   0.31672   0.00000  Uiso   1.00
N274   N     0.21687   0.27057   0.71197   0.00000  Uiso   1.00
N275   N     0.86762   0.44067   0.52977   0.00000  Uiso   1.00
N276   N     0.18450   0.30487   0.32033   0.00000  Uiso   1.00
C277   C     0.93973   0.25171   0.12554   0.00000  Uiso   1.00
C278   C     0.98341   0.22168   0.08258   0.00000  Uiso   1.00
C279   C     0.96724   0.18238   0.04355   0.00000  Uiso   1.00
C280   C     0.01393   0.15974   0.00792   0.00000  Uiso   1.00
C281   C     0.07253   0.11067   0.94068   0.00000  Uiso   1.00
C282   C     0.94199   0.31816   0.11123   0.00000  Uiso   1.00
C283   C     0.89097   0.35998   0.09629   0.00000  Uiso   1.00
C284   C     0.90280   0.41855   0.08479   0.00000  Uiso   1.00
C285   C     0.89707   0.51928   0.06207   0.00000  Uiso   1.00
C286   C     0.97032   0.23564   0.18702   0.00000  Uiso   1.00
C287   C     0.94313   0.20809   0.23581   0.00000  Uiso   1.00
C288   C     0.97881   0.19720   0.28812   0.00000  Uiso   1.00
C289   C     0.01708   0.16980   0.38308   0.00000  Uiso   1.00
C290   C     0.05142   0.28138   0.13168   0.00000  Uiso   1.00
C291   C     0.04408   0.23780   0.08592   0.00000  Uiso   1.00
C292   C     0.09081   0.21520   0.05034   0.00000  Uiso   1.00
C293   C     0.07471   0.17588   0.01126   0.00000  Uiso   1.00
C294   C     0.00265   0.33428   0.11456   0.00000  Uiso   1.00
C295   C     0.01455   0.39280   0.10308   0.00000  Uiso   1.00
C296   C     0.96357   0.43470   0.08813   0.00000  Uiso   1.00
C297   C     0.03099   0.25175   0.19036   0.00000  Uiso   1.00
C298   C     0.06671   0.24091   0.24260   0.00000  Uiso   1.00
C299   C     0.03958   0.21335   0.29146   0.00000  Uiso   1.00
H300   H     0.89249   0.23917   0.12295   0.00000  Uiso   1.00
H301   H     0.92028   0.16992   0.04098   0.00000  Uiso   1.00
H302   H     0.84403   0.34750   0.09372   0.00000  Uiso   1.00
H303   H     0.89618   0.19562   0.23322   0.00000  Uiso   1.00
H304   H     0.97784   0.10027   0.95155   0.00000  Uiso   1.00
H305   H     0.81706   0.47469   0.06279   0.00000  Uiso   1.00
H306   H     0.92703   0.15445   0.35694   0.00000  Uiso   1.00
H307   H     0.09865   0.29393   0.13428   0.00000  Uiso   1.00
H308   H     0.13776   0.22768   0.05292   0.00000  Uiso   1.00
H309   H     0.06150   0.40526   0.10567   0.00000  Uiso   1.00
H310   H     0.11366   0.25339   0.24516   0.00000  Uiso   1.00
H311   H     0.15435   0.14716   0.96124   0.00000  Uiso   1.00
H312   H     0.99357   0.52158   0.07248   0.00000  Uiso   1.00
H313   H     0.10354   0.20133   0.36664   0.00000  Uiso   1.00
O314   O     0.08809   0.07916   0.90266   0.00000  Uiso   1.00
O315   O     0.87715   0.57039   0.04861   0.00000  Uiso   1.00
O316   O     0.02143   0.15023   0.43454   0.00000  Uiso   1.00
N317   N     0.01402   0.12039   0.96500   0.00000  Uiso   1.00
N318   N     0.86370   0.47045   0.06899   0.00000  Uiso   1.00
N319   N     0.96651   0.17106   0.34401   0.00000  Uiso   1.00
N320   N     0.10899   0.14562   0.97022   0.00000  Uiso   1.00
N321   N     0.95868   0.49568   0.07421   0.00000  Uiso   1.00
N322   N     0.06149   0.19629   0.34923   0.00000  Uiso   1.00
C323   C     0.20715   0.93611   0.27024   0.00000  Uiso   1.00
C324   C     0.15019   0.97129   0.23789   0.00000  Uiso   1.00
C325   C     0.11536   0.95237   0.19287   0.00000  Uiso   1.00
C326   C     0.06495   0.99108   0.16899   0.00000  Uiso   1.00
C327   C     0.97876   0.03724   0.11568   0.00000  Uiso   1.00
C328   C     0.19243   0.93190   0.33601   0.00000  Uiso   1.00
C329   C     0.19313   0.87986   0.37348   0.00000  Uiso   1.00
C330   C     0.17829   0.88541   0.43219   0.00000  Uiso   1.00
C331   C     0.15773   0.87041   0.53121   0.00000  Uiso   1.00
C332   C     0.25992   0.97530   0.26261   0.00000  Uiso   1.00
C333   C     0.31737   0.95974   0.23839   0.00000  Uiso   1.00
C334   C     0.35935   0.00182   0.23533   0.00000  Uiso   1.00
C335   C     0.44358   0.05421   0.22039   0.00000  Uiso   1.00
C336   C     0.17955   0.03850   0.30788   0.00000  Uiso   1.00
C337   C     0.13520   0.02691   0.25834   0.00000  Uiso   1.00
C338   C     0.08482   0.06566   0.23452   0.00000  Uiso   1.00
C339   C     0.04993   0.04680   0.18948   0.00000  Uiso   1.00
C340   C     0.17744   0.98751   0.35645   0.00000  Uiso   1.00
C341   C     0.16260   0.99314   0.41513   0.00000  Uiso   1.00
C342   C     0.16327   0.94112   0.45268   0.00000  Uiso   1.00
C343   C     0.24493   0.03091   0.28306   0.00000  Uiso   1.00
C344   C     0.28683   0.07303   0.28004   0.00000  Uiso   1.00
C345   C     0.34434   0.05754   0.25581   0.00000  Uiso   1.00
H346   H     0.21882   0.89281   0.25432   0.00000  Uiso   1.00
H347   H     0.12697   0.90933   0.17706   0.00000  Uiso   1.00
H348   H     0.20474   0.83683   0.35764   0.00000  Uiso   1.00
H349   H     0.32896   0.91670   0.22257   0.00000  Uiso   1.00
H350   H     0.01852   0.95216   0.10044   0.00000  Uiso   1.00
H351   H     0.18251   0.79929   0.48121   0.00000  Uiso   1.00
H352   H     0.44445   0.96771   0.19639   0.00000  Uiso   1.00
H353   H     0.16788   0.08180   0.32380   0.00000  Uiso   1.00
H354   H     0.07323   0.10869   0.25036   0.00000  Uiso   1.00
H355   H     0.15100   0.03619   0.43094   0.00000  Uiso   1.00
H356   H     0.27522   0.11606   0.29587   0.00000  Uiso   1.00
H357   H     0.97490   0.11397   0.15993   0.00000  Uiso   1.00
H358   H     0.13890   0.96110   0.54070   0.00000  Uiso   1.00
H359   H     0.40083   0.12952   0.25588   0.00000  Uiso   1.00
O360   O     0.93535   0.04734   0.08064   0.00000  Uiso   1.00
O361   O     0.15052   0.84678   0.58018   0.00000  Uiso   1.00
O362   O     0.49417   0.06774   0.20650   0.00000  Uiso   1.00
N363   N     0.02125   0.98656   0.12452   0.00000  Uiso   1.00
N364   N     0.17456   0.84363   0.48050   0.00000  Uiso   1.00
N365   N     0.41946   0.00108   0.21424   0.00000  Uiso   1.00
N366   N     0.99778   0.07363   0.15653   0.00000  Uiso   1.00
N367   N     0.15109   0.93070   0.51251   0.00000  Uiso   1.00
N368   N     0.39599   0.08815   0.24625   0.00000  Uiso   1.00
C369   C     0.29441   0.15857   0.95290   0.00000  Uiso   1.00
C370   C     0.27454   0.10104   0.98292   0.00000  Uiso   1.00
C371   C     0.23482   0.06561   0.95832   0.00000  Uiso   1.00
C372   C     0.22241   0.01475   0.99293   0.00000  Uiso   1.00
C373   C     0.18756   0.92767   0.03084   0.00000  Uiso   1.00
C374   C     0.36557   0.15010   0.95337   0.00000  Uiso   1.00
C375   C     0.40239   0.15592   0.90393   0.00000  Uiso   1.00
C376   C     0.46661   0.14638   0.91367   0.00000  Uiso   1.00
C377   C     0.57310   0.13551   0.90570   0.00000  Uiso   1.00
C378   C     0.27643   0.20584   0.99450   0.00000  Uiso   1.00
C379   C     0.23832   0.25853   0.97965   0.00000  Uiso   1.00
C380   C     0.22751   0.29591   0.02402   0.00000  Uiso   1.00
C381   C     0.19559   0.37158   0.07992   0.00000  Uiso   1.00
C382   C     0.34301   0.13127   0.05810   0.00000  Uiso   1.00
C383   C     0.30094   0.08622   0.04006   0.00000  Uiso   1.00
C384   C     0.28859   0.03540   0.07471   0.00000  Uiso   1.00
C385   C     0.24885   0.99990   0.05017   0.00000  Uiso   1.00
C386   C     0.39197   0.13528   0.01051   0.00000  Uiso   1.00
C387   C     0.45616   0.12572   0.02032   0.00000  Uiso   1.00
C388   C     0.49306   0.13152   0.97091   0.00000  Uiso   1.00
C389   C     0.30283   0.19101   0.05164   0.00000  Uiso   1.00
C390   C     0.29208   0.22832   0.09604   0.00000  Uiso   1.00
C391   C     0.25395   0.28106   0.08126   0.00000  Uiso   1.00
H392   H     0.27387   0.17011   0.90841   0.00000  Uiso   1.00
H393   H     0.21441   0.07709   0.91410   0.00000  Uiso   1.00
H394   H     0.38195   0.16740   0.85972   0.00000  Uiso   1.00
H395   H     0.21790   0.26999   0.93542   0.00000  Uiso   1.00
H396   H     0.16014   0.96742   0.94559   0.00000  Uiso   1.00
H397   H     0.51341   0.15786   0.83093   0.00000  Uiso   1.00
H398   H     0.16748   0.37419   0.99057   0.00000  Uiso   1.00
H399   H     0.36356   0.11972   0.10259   0.00000  Uiso   1.00
H400   H     0.30902   0.02394   0.11893   0.00000  Uiso   1.00
H401   H     0.47657   0.11425   0.06455   0.00000  Uiso   1.00
H402   H     0.31252   0.21684   0.14026   0.00000  Uiso   1.00
H403   H     0.23694   0.92427   0.11184   0.00000  Uiso   1.00
H404   H     0.59021   0.11472   0.99718   0.00000  Uiso   1.00
H405   H     0.24428   0.33104   0.15682   0.00000  Uiso   1.00
O406   O     0.16106   0.88373   0.03595   0.00000  Uiso   1.00
O407   O     0.62454   0.13360   0.88552   0.00000  Uiso   1.00
O408   O     0.17068   0.41741   0.09497   0.00000  Uiso   1.00
N409   N     0.18569   0.97041   0.98248   0.00000  Uiso   1.00
N410   N     0.51598   0.14846   0.87528   0.00000  Uiso   1.00
N411   N     0.19258   0.35071   0.02452   0.00000  Uiso   1.00
N412   N     0.22701   0.94720   0.07194   0.00000  Uiso   1.00
N413   N     0.55730   0.12525   0.96473   0.00000  Uiso   1.00
N414   N     0.23390   0.32750   0.11398   0.00000  Uiso   1.00
C415   C     0.32907   0.50506   0.94964   0.00000  Uiso   1.00
C416   C     0.36852   0.45376   0.92519   0.00000  Uiso   1.00
C417   C     0.34683   0.41452   0.88886   0.00000  Uiso   1.00
C418   C     0.39032   0.37059   0.87123   0.00000  Uiso   1.00
C419   C     0.44200   0.29160   0.83053   0.00000  Uiso   1.00
C420   C     0.33840   0.49520   0.01689   0.00000  Uiso   1.00
C421   C     0.29139   0.49080   0.05766   0.00000  Uiso   1.00
C422   C     0.30954   0.48177   0.11724   0.00000  Uiso   1.00
C423   C     0.31446   0.46716   0.21891   0.00000  Uiso   1.00
C424   C     0.35964   0.56058   0.92968   0.00000  Uiso   1.00
C425   C     0.33049   0.61117   0.89714   0.00000  Uiso   1.00
C426   C     0.36652   0.65720   0.88330   0.00000  Uiso   1.00
C427   C     0.40442   0.74410   0.84956   0.00000  Uiso   1.00
C428   C     0.44488   0.49685   0.98295   0.00000  Uiso   1.00
C429   C     0.43142   0.44930   0.94328   0.00000  Uiso   1.00
C430   C     0.47496   0.40543   0.92571   0.00000  Uiso   1.00
C431   C     0.45334   0.36613   0.88935   0.00000  Uiso   1.00
C432   C     0.40130   0.49074   0.03498   0.00000  Uiso   1.00
C433   C     0.41952   0.48172   0.09451   0.00000  Uiso   1.00
C434   C     0.37256   0.47730   0.13536   0.00000  Uiso   1.00
C435   C     0.42255   0.55612   0.94777   0.00000  Uiso   1.00
C436   C     0.45862   0.60208   0.93399   0.00000  Uiso   1.00
C437   C     0.42953   0.65273   0.90142   0.00000  Uiso   1.00
H438   H     0.28009   0.50853   0.93556   0.00000  Uiso   1.00
H439   H     0.29814   0.41798   0.87487   0.00000  Uiso   1.00
H440   H     0.24272   0.49426   0.04365   0.00000  Uiso   1.00
H441   H     0.28181   0.61461   0.88314   0.00000  Uiso   1.00
H442   H     0.34589   0.31561   0.81558   0.00000  Uiso   1.00
H443   H     0.22902   0.47647   0.17146   0.00000  Uiso   1.00
H444   H     0.31146   0.73024   0.83301   0.00000  Uiso   1.00
H445   H     0.49385   0.49337   0.99704   0.00000  Uiso   1.00
H446   H     0.52363   0.40199   0.93972   0.00000  Uiso   1.00
H447   H     0.46821   0.47827   0.10850   0.00000  Uiso   1.00
H448   H     0.50730   0.59861   0.94799   0.00000  Uiso   1.00
H449   H     0.52891   0.30262   0.86821   0.00000  Uiso   1.00
H450   H     0.41204   0.46349   0.22409   0.00000  Uiso   1.00
H451   H     0.49447   0.71726   0.88564   0.00000  Uiso   1.00
O452   O     0.45313   0.24926   0.80309   0.00000  Uiso   1.00
O453   O     0.29980   0.46032   0.26999   0.00000  Uiso   1.00
O454   O     0.40795   0.79326   0.82595   0.00000  Uiso   1.00
N455   N     0.38488   0.32510   0.83582   0.00000  Uiso   1.00
N456   N     0.27562   0.47549   0.16855   0.00000  Uiso   1.00
N457   N     0.35268   0.71275   0.85214   0.00000  Uiso   1.00
N458   N     0.48336   0.31811   0.86414   0.00000  Uiso   1.00
N459   N     0.37409   0.46850   0.19687   0.00000  Uiso   1.00
N460   N     0.45116   0.70577   0.88046   0.00000  Uiso   1.00
C461   C     0.56853   0.60210   0.64135   0.00000  Uiso   1.00
C462   C     0.51722   0.57409   0.67574   0.00000  Uiso   1.00
C463   C     0.47802   0.53637   0.65417   0.00000  Uiso   1.00
C464   C     0.43408   0.51546   0.69258   0.00000  Uiso   1.00
C465   C     0.35507   0.46952   0.73716   0.00000  Uiso   1.00
C466   C     0.55407   0.66884   0.64307   0.00000  Uiso   1.00
C467   C     0.54588   0.71078   0.59403   0.00000  Uiso   1.00
C468   C     0.53297   0.76964   0.60494   0.00000  Uiso   1.00
C469   C     0.51124   0.87080   0.59880   0.00000  Uiso   1.00
C470   C     0.62857   0.58389   0.67828   0.00000  Uiso   1.00
C471   C     0.68302   0.55441   0.65884   0.00000  Uiso   1.00
C472   C     0.73283   0.54175   0.69939   0.00000  Uiso   1.00
C473   C     0.82676   0.51101   0.74791   0.00000  Uiso   1.00
C474   C     0.56019   0.63204   0.74792   0.00000  Uiso   1.00
C475   C     0.51269   0.59036   0.73362   0.00000  Uiso   1.00
C476   C     0.46880   0.56950   0.77207   0.00000  Uiso   1.00
C477   C     0.42954   0.53175   0.75057   0.00000  Uiso   1.00
C478   C     0.54955   0.68511   0.70095   0.00000  Uiso   1.00
C479   C     0.53665   0.74391   0.71193   0.00000  Uiso   1.00
C480   C     0.52843   0.78593   0.66292   0.00000  Uiso   1.00
C481   C     0.62404   0.60015   0.73616   0.00000  Uiso   1.00
C482   C     0.67379   0.58754   0.77674   0.00000  Uiso   1.00
C483   C     0.72830   0.55804   0.75737   0.00000  Uiso   1.00
H484   H     0.57205   0.58944   0.59629   0.00000  Uiso   1.00
H485   H     0.48153   0.52380   0.60937   0.00000  Uiso   1.00
H486   H     0.54939   0.69819   0.54925   0.00000  Uiso   1.00
H487   H     0.68650   0.54183   0.61405   0.00000  Uiso   1.00
H488   H     0.37917   0.45821   0.64940   0.00000  Uiso   1.00
H489   H     0.52226   0.82592   0.52262   0.00000  Uiso   1.00
H490   H     0.81140   0.49622   0.65925   0.00000  Uiso   1.00
H491   H     0.55667   0.64471   0.79298   0.00000  Uiso   1.00
H492   H     0.46531   0.58209   0.81686   0.00000  Uiso   1.00
H493   H     0.53316   0.75648   0.75673   0.00000  Uiso   1.00
H494   H     0.67027   0.60013   0.82153   0.00000  Uiso   1.00
H495   H     0.36599   0.50552   0.81780   0.00000  Uiso   1.00
H496   H     0.50909   0.87323   0.69101   0.00000  Uiso   1.00
H497   H     0.79822   0.54353   0.82765   0.00000  Uiso   1.00
O498   O     0.31274   0.43969   0.74575   0.00000  Uiso   1.00
O499   O     0.50049   0.92211   0.57942   0.00000  Uiso   1.00
O500   O     0.87982   0.48955   0.75868   0.00000  Uiso   1.00
N501   N     0.38861   0.47793   0.68576   0.00000  Uiso   1.00
N502   N     0.52239   0.82171   0.56722   0.00000  Uiso   1.00
N503   N     0.79271   0.51349   0.69496   0.00000  Uiso   1.00
N504   N     0.38153   0.50339   0.77638   0.00000  Uiso   1.00
N505   N     0.51530   0.84717   0.65784   0.00000  Uiso   1.00
N506   N     0.78562   0.53895   0.78558   0.00000  Uiso   1.00
C507   C     0.68531   0.28280   0.88664   0.00000  Uiso   1.00
C508   C     0.65358   0.31598   0.83049   0.00000  Uiso   1.00
C509   C     0.61340   0.29325   0.79248   0.00000  Uiso   1.00
C510   C     0.58923   0.33067   0.74347   0.00000  Uiso   1.00
C511   C     0.53764   0.37335   0.65787   0.00000  Uiso   1.00
C512   C     0.75516   0.28529   0.87924   0.00000  Uiso   1.00
C513   C     0.80038   0.23675   0.88223   0.00000  Uiso   1.00
C514   C     0.86172   0.24834   0.87427   0.00000  Uiso   1.00
C515   C     0.96783   0.24337   0.86439   0.00000  Uiso   1.00
C516   C     0.66673   0.32037   0.93688   0.00000  Uiso   1.00
C517   C     0.63763   0.30133   0.98834   0.00000  Uiso   1.00
C518   C     0.62453   0.34246   0.02891   0.00000  Uiso   1.00
C519   C     0.59335   0.39197   0.10853   0.00000  Uiso   1.00
C520   C     0.71383   0.38968   0.86720   0.00000  Uiso   1.00
C521   C     0.66907   0.37403   0.81993   0.00000  Uiso   1.00
C522   C     0.64495   0.41150   0.77097   0.00000  Uiso   1.00
C523   C     0.60475   0.38883   0.73289   0.00000  Uiso   1.00
C524   C     0.77065   0.34334   0.86868   0.00000  Uiso   1.00
C525   C     0.83194   0.35500   0.86072   0.00000  Uiso   1.00
C526   C     0.87724   0.30649   0.86369   0.00000  Uiso   1.00
C527   C     0.68222   0.37843   0.92632   0.00000  Uiso   1.00
C528   C     0.66918   0.41959   0.96682   0.00000  Uiso   1.00
C529   C     0.64005   0.40062   0.01833   0.00000  Uiso   1.00
H530   H     0.67325   0.23760   0.89486   0.00000  Uiso   1.00
H531   H     0.60143   0.24832   0.80066   0.00000  Uiso   1.00
H532   H     0.78838   0.19183   0.89040   0.00000  Uiso   1.00
H533   H     0.62565   0.25641   0.99649   0.00000  Uiso   1.00
H534   H     0.52865   0.28579   0.69155   0.00000  Uiso   1.00
H535   H     0.92285   0.16668   0.88080   0.00000  Uiso   1.00
H536   H     0.57970   0.30286   0.10451   0.00000  Uiso   1.00
H537   H     0.72589   0.43488   0.85898   0.00000  Uiso   1.00
H538   H     0.65695   0.45642   0.76281   0.00000  Uiso   1.00
H539   H     0.84391   0.39993   0.85255   0.00000  Uiso   1.00
H540   H     0.68117   0.46451   0.95864   0.00000  Uiso   1.00
H541   H     0.57372   0.45470   0.66083   0.00000  Uiso   1.00
H542   H     0.96792   0.33559   0.85008   0.00000  Uiso   1.00
H543   H     0.62476   0.47176   0.07378   0.00000  Uiso   1.00
O544   O     0.50490   0.38085   0.61356   0.00000  Uiso   1.00
O545   O     0.02208   0.22458   0.86186   0.00000  Uiso   1.00
O546   O     0.57187   0.40324   0.15535   0.00000  Uiso   1.00
N547   N     0.54871   0.32259   0.69753   0.00000  Uiso   1.00
N548   N     0.91726   0.21123   0.87445   0.00000  Uiso   1.00
N549   N     0.59646   0.33854   0.08361   0.00000  Uiso   1.00
N550   N     0.57296   0.41348   0.68100   0.00000  Uiso   1.00
N551   N     0.94151   0.30212   0.85792   0.00000  Uiso   1.00
N552   N     0.62071   0.42942   0.06707   0.00000  Uiso   1.00
