data_job_07014
_audit_creation_date              2018-12-19
_audit_creation_method            'Materials Studio'
_symmetry_space_group_name_H-M    'P1'
_symmetry_Int_Tables_number       1
_symmetry_cell_setting            triclinic
loop_
_symmetry_equiv_pos_as_xyz
  x,y,z
_cell_length_a                    20.2555
_cell_length_b                    21.1054
_cell_length_c                    25.1134
_cell_angle_alpha                 85.4616
_cell_angle_beta                  97.6280
_cell_angle_gamma                 61.9286
loop_
_atom_site_label
_atom_site_type_symbol
_atom_site_fract_x
_atom_site_fract_y
_atom_site_fract_z
_atom_site_U_iso_or_equiv
_atom_site_adp_type
_atom_site_occupancy
C1     C     0.58351   0.31724   0.78584   0.00000  Uiso   1.00
C2     C     0.59289   0.24219   0.80353   0.00000  Uiso   1.00
C3     C     0.55780   0.22544   0.84195   0.00000  Uiso   1.00
C4     C     0.57376   0.15357   0.85244   0.00000  Uiso   1.00
C5     C     0.58086   0.04511   0.88404   0.00000  Uiso   1.00
C6     C     0.66368   0.30806   0.79567   0.00000  Uiso   1.00
C7     C     0.68811   0.34670   0.82748   0.00000  Uiso   1.00
C8     C     0.76366   0.33027   0.83135   0.00000  Uiso   1.00
C9     C     0.88065   0.32412   0.85071   0.00000  Uiso   1.00
C10    C     0.55616   0.33440   0.72425   0.00000  Uiso   1.00
C11    C     0.49018   0.39521   0.69601   0.00000  Uiso   1.00
C12    C     0.47522   0.40097   0.63974   0.00000  Uiso   1.00
C13    C     0.42526   0.43572   0.54821   0.00000  Uiso   1.00
C14    C     0.67426   0.21937   0.73613   0.00000  Uiso   1.00
C15    C     0.64218   0.18903   0.77653   0.00000  Uiso   1.00
C16    C     0.65820   0.11716   0.78696   0.00000  Uiso   1.00
C17    C     0.62314   0.10031   0.82539   0.00000  Uiso   1.00
C18    C     0.71297   0.25490   0.76867   0.00000  Uiso   1.00
C19    C     0.78851   0.23842   0.77249   0.00000  Uiso   1.00
C20    C     0.81305   0.27702   0.80430   0.00000  Uiso   1.00
C21    C     0.60545   0.28124   0.69725   0.00000  Uiso   1.00
C22    C     0.59059   0.28692   0.64101   0.00000  Uiso   1.00
C23    C     0.52460   0.34772   0.61269   0.00000  Uiso   1.00
H24    H     0.54514   0.35863   0.80686   0.00000  Uiso   1.00
H25    H     0.51966   0.26660   0.86284   0.00000  Uiso   1.00
H26    H     0.64995   0.38784   0.84837   0.00000  Uiso   1.00
H27    H     0.45205   0.43633   0.71691   0.00000  Uiso   1.00
H28    H     0.51317   0.14112   0.91302   0.00000  Uiso   1.00
H29    H     0.78788   0.39678   0.88248   0.00000  Uiso   1.00
H30    H     0.37058   0.49904   0.60529   0.00000  Uiso   1.00
H31    H     0.71264   0.17798   0.71511   0.00000  Uiso   1.00
H32    H     0.69635   0.07604   0.76606   0.00000  Uiso   1.00
H33    H     0.82664   0.19728   0.75158   0.00000  Uiso   1.00
H34    H     0.62874   0.24577   0.62013   0.00000  Uiso   1.00
H35    H     0.65658   0.98645   0.83447   0.00000  Uiso   1.00
H36    H     0.93129   0.24211   0.80393   0.00000  Uiso   1.00
H37    H     0.51399   0.34437   0.52674   0.00000  Uiso   1.00
O38    O     0.57116   0.99998   0.90893   0.00000  Uiso   1.00
O39    O     0.93156   0.33540   0.86886   0.00000  Uiso   1.00
O40    O     0.38408   0.46957   0.50519   0.00000  Uiso   1.00
N41    N     0.54915   0.11871   0.88753   0.00000  Uiso   1.00
N42    N     0.80599   0.35773   0.85899   0.00000  Uiso   1.00
N43    N     0.41586   0.45335   0.59984   0.00000  Uiso   1.00
N44    N     0.62631   0.03549   0.84527   0.00000  Uiso   1.00
N45    N     0.88316   0.27450   0.81672   0.00000  Uiso   1.00
N46    N     0.49303   0.37012   0.55757   0.00000  Uiso   1.00
C47    C     0.30356   0.91076   0.63946   0.00000  Uiso   1.00
C48    C     0.27835   0.85311   0.63974   0.00000  Uiso   1.00
C49    C     0.20352   0.86650   0.63221   0.00000  Uiso   1.00
C50    C     0.19235   0.80637   0.63392   0.00000  Uiso   1.00
C51    C     0.14385   0.72764   0.63303   0.00000  Uiso   1.00
C52    C     0.35739   0.89225   0.69383   0.00000  Uiso   1.00
C53    C     0.34901   0.93855   0.73178   0.00000  Uiso   1.00
C54    C     0.40439   0.91136   0.77901   0.00000  Uiso   1.00
C55    C     0.47863   0.89342   0.86208   0.00000  Uiso   1.00
C56    C     0.35255   0.89743   0.59605   0.00000  Uiso   1.00
C57    C     0.34012   0.94808   0.55179   0.00000  Uiso   1.00
C58    C     0.39143   0.92526   0.51670   0.00000  Uiso   1.00
C59    C     0.45816   0.91536   0.44795   0.00000  Uiso   1.00
C60    C     0.41682   0.78017   0.65586   0.00000  Uiso   1.00
C61    C     0.33987   0.78218   0.64865   0.00000  Uiso   1.00
C62    C     0.32882   0.72201   0.65036   0.00000  Uiso   1.00
C63    C     0.25397   0.73531   0.64284   0.00000  Uiso   1.00
C64    C     0.41890   0.82132   0.70274   0.00000  Uiso   1.00
C65    C     0.47431   0.79406   0.74992   0.00000  Uiso   1.00
C66    C     0.46601   0.84031   0.78794   0.00000  Uiso   1.00
C67    C     0.41407   0.82649   0.60495   0.00000  Uiso   1.00
C68    C     0.46542   0.80360   0.56993   0.00000  Uiso   1.00
C69    C     0.45306   0.85420   0.52563   0.00000  Uiso   1.00
H70    H     0.25567   0.96598   0.63252   0.00000  Uiso   1.00
H71    H     0.15592   0.92140   0.62533   0.00000  Uiso   1.00
H72    H     0.30140   0.99344   0.72487   0.00000  Uiso   1.00
H73    H     0.29251   0.00297   0.54491   0.00000  Uiso   1.00
H74    H     0.07247   0.84068   0.62129   0.00000  Uiso   1.00
H75    H     0.37923   0.99259   0.83118   0.00000  Uiso   1.00
H76    H     0.36047   0.01269   0.45170   0.00000  Uiso   1.00
H77    H     0.46471   0.72494   0.66279   0.00000  Uiso   1.00
H78    H     0.37643   0.66713   0.65725   0.00000  Uiso   1.00
H79    H     0.52191   0.73917   0.75680   0.00000  Uiso   1.00
H80    H     0.51301   0.74870   0.57684   0.00000  Uiso   1.00
H81    H     0.25144   0.63431   0.64721   0.00000  Uiso   1.00
H82    H     0.55820   0.78622   0.85710   0.00000  Uiso   1.00
H83    H     0.53944   0.80632   0.47761   0.00000  Uiso   1.00
O84    O     0.10011   0.70381   0.63008   0.00000  Uiso   1.00
O85    O     0.50257   0.90312   0.90544   0.00000  Uiso   1.00
O86    O     0.47796   0.92949   0.40756   0.00000  Uiso   1.00
N87    N     0.12670   0.80005   0.62814   0.00000  Uiso   1.00
N88    N     0.41350   0.94207   0.82438   0.00000  Uiso   1.00
N89    N     0.39597   0.96087   0.46960   0.00000  Uiso   1.00
N90    N     0.22300   0.68900   0.64209   0.00000  Uiso   1.00
N91    N     0.50980   0.83102   0.83832   0.00000  Uiso   1.00
N92    N     0.49228   0.84982   0.48354   0.00000  Uiso   1.00
C93    C     0.86687   0.97819   0.15769   0.00000  Uiso   1.00
C94    C     0.84926   0.96203   0.10102   0.00000  Uiso   1.00
C95    C     0.85978   0.99077   0.05326   0.00000  Uiso   1.00
C96    C     0.84020   0.96925   0.00557   0.00000  Uiso   1.00
C97    C     0.81724   0.95157   0.91755   0.00000  Uiso   1.00
C98    C     0.79281   0.00665   0.17930   0.00000  Uiso   1.00
C99    C     0.75586   0.07289   0.19737   0.00000  Uiso   1.00
C100   C     0.68876   0.08892   0.21558   0.00000  Uiso   1.00
C101   C     0.57818   0.14048   0.24913   0.00000  Uiso   1.00
C102   C     0.92189   0.90468   0.19291   0.00000  Uiso   1.00
C103   C     0.99347   0.88518   0.22244   0.00000  Uiso   1.00
C104   C     0.03504   0.81536   0.25212   0.00000  Uiso   1.00
C105   C     0.12488   0.70861   0.30681   0.00000  Uiso   1.00
C106   C     0.81340   0.88887   0.15792   0.00000  Uiso   1.00
C107   C     0.82022   0.91352   0.10115   0.00000  Uiso   1.00
C108   C     0.80062   0.89195   0.05352   0.00000  Uiso   1.00
C109   C     0.81111   0.92064   0.00569   0.00000  Uiso   1.00
C110   C     0.76376   0.95814   0.17943   0.00000  Uiso   1.00
C111   C     0.69671   0.97407   0.19762   0.00000  Uiso   1.00
C112   C     0.65966   0.04032   0.21570   0.00000  Uiso   1.00
C113   C     0.89285   0.85616   0.19304   0.00000  Uiso   1.00
C114   C     0.93431   0.78636   0.22269   0.00000  Uiso   1.00
C115   C     0.00594   0.76676   0.25225   0.00000  Uiso   1.00
H116   H     0.88948   0.01596   0.15760   0.00000  Uiso   1.00
H117   H     0.88225   0.02831   0.05318   0.00000  Uiso   1.00
H118   H     0.77835   0.11041   0.19727   0.00000  Uiso   1.00
H119   H     0.01592   0.92274   0.22233   0.00000  Uiso   1.00
H120   H     0.86140   0.02064   0.93747   0.00000  Uiso   1.00
H121   H     0.64235   0.19374   0.24130   0.00000  Uiso   1.00
H122   H     0.14331   0.79799   0.29416   0.00000  Uiso   1.00
H123   H     0.79079   0.85110   0.15802   0.00000  Uiso   1.00
H124   H     0.77815   0.85441   0.05363   0.00000  Uiso   1.00
H125   H     0.67425   0.93651   0.19771   0.00000  Uiso   1.00
H126   H     0.91182   0.74884   0.22278   0.00000  Uiso   1.00
H127   H     0.77690   0.87949   0.93783   0.00000  Uiso   1.00
H128   H     0.55785   0.05260   0.24167   0.00000  Uiso   1.00
H129   H     0.05881   0.65685   0.29452   0.00000  Uiso   1.00
O130   O     0.81259   0.95524   0.86896   0.00000  Uiso   1.00
O131   O     0.52521   0.18234   0.26759   0.00000  Uiso   1.00
O132   O     0.18246   0.66312   0.33693   0.00000  Uiso   1.00
N133   N     0.84326   0.98696   0.95188   0.00000  Uiso   1.00
N134   N     0.63845   0.14880   0.23594   0.00000  Uiso   1.00
N135   N     0.10680   0.77881   0.28537   0.00000  Uiso   1.00
N136   N     0.79780   0.91100   0.95208   0.00000  Uiso   1.00
N137   N     0.59299   0.07285   0.23613   0.00000  Uiso   1.00
N138   N     0.06134   0.70286   0.28556   0.00000  Uiso   1.00
C139   C     0.23707   0.46010   0.21671   0.00000  Uiso   1.00
C140   C     0.21906   0.39900   0.20692   0.00000  Uiso   1.00
C141   C     0.19244   0.36705   0.24266   0.00000  Uiso   1.00
C142   C     0.17941   0.31199   0.22617   0.00000  Uiso   1.00
C143   C     0.14940   0.22053   0.21863   0.00000  Uiso   1.00
C144   C     0.18895   0.52145   0.16886   0.00000  Uiso   1.00
C145   C     0.13703   0.59246   0.17262   0.00000  Uiso   1.00
C146   C     0.09867   0.64048   0.12409   0.00000  Uiso   1.00
C147   C     0.02196   0.73915   0.05748   0.00000  Uiso   1.00
C148   C     0.31978   0.43176   0.21071   0.00000  Uiso   1.00
C149   C     0.37787   0.42736   0.24964   0.00000  Uiso   1.00
C150   C     0.44965   0.39988   0.23634   0.00000  Uiso   1.00
C151   C     0.57607   0.35928   0.23469   0.00000  Uiso   1.00
C152   C     0.26127   0.41912   0.12387   0.00000  Uiso   1.00
C153   C     0.23220   0.37675   0.15649   0.00000  Uiso   1.00
C154   C     0.21920   0.32171   0.13994   0.00000  Uiso   1.00
C155   C     0.19257   0.28969   0.17566   0.00000  Uiso   1.00
C156   C     0.20209   0.49920   0.11844   0.00000  Uiso   1.00
C157   C     0.16380   0.54712   0.06990   0.00000  Uiso   1.00
C158   C     0.11183   0.61818   0.07358   0.00000  Uiso   1.00
C159   C     0.33292   0.40950   0.16028   0.00000  Uiso   1.00
C160   C     0.40463   0.38202   0.14692   0.00000  Uiso   1.00
C161   C     0.46281   0.37758   0.18582   0.00000  Uiso   1.00
H162   H     0.22684   0.47743   0.25596   0.00000  Uiso   1.00
H163   H     0.18227   0.38430   0.28168   0.00000  Uiso   1.00
H164   H     0.12688   0.60967   0.21164   0.00000  Uiso   1.00
H165   H     0.36768   0.44459   0.28865   0.00000  Uiso   1.00
H166   H     0.13863   0.27125   0.28794   0.00000  Uiso   1.00
H167   H     0.02185   0.74647   0.14027   0.00000  Uiso   1.00
H168   H     0.52961   0.39837   0.30266   0.00000  Uiso   1.00
H169   H     0.27149   0.40179   0.08460   0.00000  Uiso   1.00
H170   H     0.22938   0.30450   0.10092   0.00000  Uiso   1.00
H171   H     0.17398   0.52988   0.03088   0.00000  Uiso   1.00
H172   H     0.41478   0.36480   0.10789   0.00000  Uiso   1.00
H173   H     0.17685   0.20648   0.14123   0.00000  Uiso   1.00
H174   H     0.06008   0.68171   0.99356   0.00000  Uiso   1.00
H175   H     0.56784   0.33360   0.15595   0.00000  Uiso   1.00
O176   O     0.12920   0.17625   0.22840   0.00000  Uiso   1.00
O177   O     0.97601   0.79972   0.03467   0.00000  Uiso   1.00
O178   O     0.64218   0.34302   0.24772   0.00000  Uiso   1.00
N179   N     0.15342   0.26934   0.25118   0.00000  Uiso   1.00
N180   N     0.04423   0.71365   0.11312   0.00000  Uiso   1.00
N181   N     0.51894   0.38822   0.26493   0.00000  Uiso   1.00
N182   N     0.17399   0.23449   0.17223   0.00000  Uiso   1.00
N183   N     0.06480   0.67880   0.03417   0.00000  Uiso   1.00
N184   N     0.53951   0.35337   0.18599   0.00000  Uiso   1.00
C185   C     0.52522   0.76620   0.19744   0.00000  Uiso   1.00
C186   C     0.57118   0.68399   0.21544   0.00000  Uiso   1.00
C187   C     0.64958   0.64405   0.23343   0.00000  Uiso   1.00
C188   C     0.68082   0.56937   0.24805   0.00000  Uiso   1.00
C189   C     0.75911   0.44681   0.27652   0.00000  Uiso   1.00
C190   C     0.46505   0.79423   0.23297   0.00000  Uiso   1.00
C191   C     0.45420   0.84700   0.26569   0.00000  Uiso   1.00
C192   C     0.39608   0.86513   0.29507   0.00000  Uiso   1.00
C193   C     0.30956   0.91378   0.35072   0.00000  Uiso   1.00
C194   C     0.48192   0.77815   0.13981   0.00000  Uiso   1.00
C195   C     0.48524   0.81741   0.09419   0.00000  Uiso   1.00
C196   C     0.44131   0.82201   0.04513   0.00000  Uiso   1.00
C197   C     0.38099   0.84569   0.95613   0.00000  Uiso   1.00
C198   C     0.44128   0.70459   0.19143   0.00000  Uiso   1.00
C199   C     0.52559   0.65052   0.21217   0.00000  Uiso   1.00
C200   C     0.55672   0.57588   0.22677   0.00000  Uiso   1.00
C201   C     0.63515   0.53584   0.24478   0.00000  Uiso   1.00
C202   C     0.41945   0.76077   0.22971   0.00000  Uiso   1.00
C203   C     0.36133   0.77884   0.25904   0.00000  Uiso   1.00
C204   C     0.35041   0.83161   0.29180   0.00000  Uiso   1.00
C205   C     0.43633   0.74469   0.13654   0.00000  Uiso   1.00
C206   C     0.39238   0.74924   0.08754   0.00000  Uiso   1.00
C207   C     0.39564   0.78849   0.04186   0.00000  Uiso   1.00
H208   H     0.56071   0.79225   0.19999   0.00000  Uiso   1.00
H209   H     0.68485   0.66996   0.23596   0.00000  Uiso   1.00
H210   H     0.48949   0.87289   0.26821   0.00000  Uiso   1.00
H211   H     0.52053   0.84330   0.09673   0.00000  Uiso   1.00
H212   H     0.80236   0.51963   0.27441   0.00000  Uiso   1.00
H213   H     0.39042   0.94753   0.34240   0.00000  Uiso   1.00
H214   H     0.45587   0.88513   0.98081   0.00000  Uiso   1.00
H215   H     0.40579   0.67854   0.18889   0.00000  Uiso   1.00
H216   H     0.52142   0.55000   0.22424   0.00000  Uiso   1.00
H217   H     0.32606   0.75293   0.25650   0.00000  Uiso   1.00
H218   H     0.35710   0.72334   0.08502   0.00000  Uiso   1.00
H219   H     0.66971   0.42227   0.26490   0.00000  Uiso   1.00
H220   H     0.25778   0.85017   0.33290   0.00000  Uiso   1.00
H221   H     0.32323   0.78777   0.97131   0.00000  Uiso   1.00
O222   O     0.81489   0.38845   0.29313   0.00000  Uiso   1.00
O223   O     0.27444   0.94985   0.38233   0.00000  Uiso   1.00
O224   O     0.36032   0.86798   0.90794   0.00000  Uiso   1.00
N225   N     0.75527   0.51436   0.26731   0.00000  Uiso   1.00
N226   N     0.37014   0.91441   0.33089   0.00000  Uiso   1.00
N227   N     0.43132   0.85608   0.99283   0.00000  Uiso   1.00
N228   N     0.68390   0.46196   0.26219   0.00000  Uiso   1.00
N229   N     0.29877   0.86202   0.32577   0.00000  Uiso   1.00
N230   N     0.35995   0.80369   0.98772   0.00000  Uiso   1.00
C231   C     0.00116   0.43736   0.64977   0.00000  Uiso   1.00
C232   C     0.96807   0.42653   0.59526   0.00000  Uiso   1.00
C233   C     0.89351   0.46886   0.56709   0.00000  Uiso   1.00
C234   C     0.87441   0.45010   0.51789   0.00000  Uiso   1.00
C235   C     0.81489   0.44226   0.43632   0.00000  Uiso   1.00
C236   C     0.06973   0.44577   0.64051   0.00000  Uiso   1.00
C237   C     0.08065   0.50427   0.65039   0.00000  Uiso   1.00
C238   C     0.14714   0.50170   0.63929   0.00000  Uiso   1.00
C239   C     0.24547   0.52371   0.62801   0.00000  Uiso   1.00
C240   C     0.03330   0.36539   0.68798   0.00000  Uiso   1.00
C241   C     0.01361   0.35631   0.73778   0.00000  Uiso   1.00
C242   C     0.04944   0.28606   0.76665   0.00000  Uiso   1.00
C243   C     0.09121   0.18328   0.82908   0.00000  Uiso   1.00
C244   C     0.09982   0.32877   0.61250   0.00000  Uiso   1.00
C245   C     0.02166   0.36754   0.57502   0.00000  Uiso   1.00
C246   C     0.00267   0.34871   0.52586   0.00000  Uiso   1.00
C247   C     0.92810   0.39100   0.49761   0.00000  Uiso   1.00
C248   C     0.12332   0.38678   0.62027   0.00000  Uiso   1.00
C249   C     0.18981   0.38412   0.60916   0.00000  Uiso   1.00
C250   C     0.20083   0.44261   0.61901   0.00000  Uiso   1.00
C251   C     0.08689   0.30640   0.66774   0.00000  Uiso   1.00
C252   C     0.12276   0.23616   0.69655   0.00000  Uiso   1.00
C253   C     0.10313   0.22697   0.74637   0.00000  Uiso   1.00
H254   H     0.95944   0.48329   0.66552   0.00000  Uiso   1.00
H255   H     0.85206   0.51450   0.58276   0.00000  Uiso   1.00
H256   H     0.03918   0.54990   0.66606   0.00000  Uiso   1.00
H257   H     0.97214   0.40197   0.75343   0.00000  Uiso   1.00
H258   H     0.75665   0.52312   0.48207   0.00000  Uiso   1.00
H259   H     0.15120   0.59775   0.65771   0.00000  Uiso   1.00
H260   H     0.00984   0.28579   0.84196   0.00000  Uiso   1.00
H261   H     0.14154   0.28285   0.59674   0.00000  Uiso   1.00
H262   H     0.04415   0.30306   0.51020   0.00000  Uiso   1.00
H263   H     0.23127   0.33847   0.59350   0.00000  Uiso   1.00
H264   H     0.16423   0.19053   0.68087   0.00000  Uiso   1.00
H265   H     0.91255   0.35150   0.42317   0.00000  Uiso   1.00
H266   H     0.30711   0.42614   0.59883   0.00000  Uiso   1.00
H267   H     0.16575   0.11418   0.78307   0.00000  Uiso   1.00
O268   O     0.76725   0.45424   0.39692   0.00000  Uiso   1.00
O269   O     0.28490   0.55215   0.62738   0.00000  Uiso   1.00
O270   O     0.09944   0.14287   0.86910   0.00000  Uiso   1.00
N271   N     0.80670   0.47994   0.48009   0.00000  Uiso   1.00
N272   N     0.17558   0.54973   0.64430   0.00000  Uiso   1.00
N273   N     0.04344   0.25808   0.81656   0.00000  Uiso   1.00
N274   N     0.89059   0.38760   0.44840   0.00000  Uiso   1.00
N275   N     0.25947   0.45739   0.61261   0.00000  Uiso   1.00
N276   N     0.12733   0.16573   0.78487   0.00000  Uiso   1.00
C277   C     0.20816   0.70493   0.89772   0.00000  Uiso   1.00
C278   C     0.19805   0.78082   0.88261   0.00000  Uiso   1.00
C279   C     0.23197   0.80040   0.84474   0.00000  Uiso   1.00
C280   C     0.21549   0.87258   0.83674   0.00000  Uiso   1.00
C281   C     0.20716   0.98271   0.80887   0.00000  Uiso   1.00
C282   C     0.12817   0.71368   0.88778   0.00000  Uiso   1.00
C283   C     0.10335   0.67680   0.85428   0.00000  Uiso   1.00
C284   C     0.02805   0.69246   0.85063   0.00000  Uiso   1.00
C285   C     0.91125   0.69831   0.83083   0.00000  Uiso   1.00
C286   C     0.23686   0.68428   0.95915   0.00000  Uiso   1.00
C287   C     0.30342   0.62267   0.98565   0.00000  Uiso   1.00
C288   C     0.31962   0.61357   0.04209   0.00000  Uiso   1.00
C289   C     0.37159   0.57377   0.13310   0.00000  Uiso   1.00
C290   C     0.11857   0.79828   0.95083   0.00000  Uiso   1.00
C291   C     0.14938   0.83152   0.91146   0.00000  Uiso   1.00
C292   C     0.13285   0.90369   0.90351   0.00000  Uiso   1.00
C293   C     0.16675   0.92338   0.86564   0.00000  Uiso   1.00
C294   C     0.07951   0.76438   0.91663   0.00000  Uiso   1.00
C295   C     0.00423   0.78009   0.91304   0.00000  Uiso   1.00
C296   C     0.97930   0.74326   0.87953   0.00000  Uiso   1.00
C297   C     0.18820   0.73498   0.98800   0.00000  Uiso   1.00
C298   C     0.20430   0.72596   0.04441   0.00000  Uiso   1.00
C299   C     0.27087   0.66436   0.07100   0.00000  Uiso   1.00
H300   H     0.24604   0.66545   0.87526   0.00000  Uiso   1.00
H301   H     0.26962   0.76115   0.82242   0.00000  Uiso   1.00
H302   H     0.14102   0.63756   0.83196   0.00000  Uiso   1.00
H303   H     0.34106   0.58345   0.96331   0.00000  Uiso   1.00
H304   H     0.27428   0.88961   0.77656   0.00000  Uiso   1.00
H305   H     0.00313   0.62901   0.79668   0.00000  Uiso   1.00
H306   H     0.42496   0.51489   0.07366   0.00000  Uiso   1.00
H307   H     0.08069   0.83776   0.97329   0.00000  Uiso   1.00
H308   H     0.09519   0.94292   0.92584   0.00000  Uiso   1.00
H309   H     0.96659   0.81933   0.93537   0.00000  Uiso   1.00
H310   H     0.16664   0.76521   0.06673   0.00000  Uiso   1.00
H311   H     0.13271   0.03714   0.86049   0.00000  Uiso   1.00
H312   H     0.86155   0.77653   0.88061   0.00000  Uiso   1.00
H313   H     0.28338   0.66242   0.15760   0.00000  Uiso   1.00
O314   O     0.21600   0.02945   0.78552   0.00000  Uiso   1.00
O315   O     0.86026   0.68753   0.81193   0.00000  Uiso   1.00
O316   O     0.41369   0.53781   0.17533   0.00000  Uiso   1.00
N317   N     0.23898   0.90990   0.80283   0.00000  Uiso   1.00
N318   N     0.98547   0.66626   0.82163   0.00000  Uiso   1.00
N319   N     0.37983   0.55956   0.08059   0.00000  Uiso   1.00
N320   N     0.16280   0.98928   0.84800   0.00000  Uiso   1.00
N321   N     0.90929   0.74564   0.86680   0.00000  Uiso   1.00
N322   N     0.30365   0.63894   0.12576   0.00000  Uiso   1.00
C323   C     0.34796   0.25132   0.93867   0.00000  Uiso   1.00
C324   C     0.40639   0.26473   0.97350   0.00000  Uiso   1.00
C325   C     0.46718   0.21367   0.01317   0.00000  Uiso   1.00
C326   C     0.51419   0.23664   0.04055   0.00000  Uiso   1.00
C327   C     0.60696   0.24658   0.09643   0.00000  Uiso   1.00
C328   C     0.35049   0.27182   0.87965   0.00000  Uiso   1.00
C329   C     0.36427   0.22672   0.84042   0.00000  Uiso   1.00
C330   C     0.36420   0.25566   0.78879   0.00000  Uiso   1.00
C331   C     0.37013   0.27662   0.69897   0.00000  Uiso   1.00
C332   C     0.27015   0.30759   0.94781   0.00000  Uiso   1.00
C333   C     0.21636   0.29258   0.96586   0.00000  Uiso   1.00
C334   C     0.14865   0.35165   0.97160   0.00000  Uiso   1.00
C335   C     0.02984   0.42816   0.98759   0.00000  Uiso   1.00
C336   C     0.32333   0.38292   0.91673   0.00000  Uiso   1.00
C337   C     0.39301   0.33621   0.96159   0.00000  Uiso   1.00
C338   C     0.43993   0.35927   0.98891   0.00000  Uiso   1.00
C339   C     0.50079   0.30825   0.02862   0.00000  Uiso   1.00
C340   C     0.33711   0.34330   0.86774   0.00000  Uiso   1.00
C341   C     0.33701   0.37232   0.81616   0.00000  Uiso   1.00
C342   C     0.35080   0.32727   0.77686   0.00000  Uiso   1.00
C343   C     0.25676   0.37908   0.93589   0.00000  Uiso   1.00
C344   C     0.18912   0.43818   0.94160   0.00000  Uiso   1.00
C345   C     0.13525   0.42326   0.95966   0.00000  Uiso   1.00
H346   H     0.35838   0.19567   0.94794   0.00000  Uiso   1.00
H347   H     0.47752   0.15835   0.02238   0.00000  Uiso   1.00
H348   H     0.37461   0.17140   0.84965   0.00000  Uiso   1.00
H349   H     0.22674   0.23726   0.97508   0.00000  Uiso   1.00
H350   H     0.60373   0.14849   0.09964   0.00000  Uiso   1.00
H351   H     0.38671   0.17602   0.73543   0.00000  Uiso   1.00
H352   H     0.07489   0.31488   0.99991   0.00000  Uiso   1.00
H353   H     0.31291   0.43858   0.90746   0.00000  Uiso   1.00
H354   H     0.42956   0.41459   0.97968   0.00000  Uiso   1.00
H355   H     0.32666   0.42764   0.80695   0.00000  Uiso   1.00
H356   H     0.17878   0.49349   0.93238   0.00000  Uiso   1.00
H357   H     0.56481   0.35646   0.06499   0.00000  Uiso   1.00
H358   H     0.34779   0.38400   0.70078   0.00000  Uiso   1.00
H359   H     0.03597   0.52286   0.96526   0.00000  Uiso   1.00
O360   O     0.66184   0.23231   0.13054   0.00000  Uiso   1.00
O361   O     0.37711   0.26843   0.65271   0.00000  Uiso   1.00
O362   O     0.96801   0.45061   0.99971   0.00000  Uiso   1.00
N363   N     0.57855   0.20073   0.08158   0.00000  Uiso   1.00
N364   N     0.37567   0.22647   0.74107   0.00000  Uiso   1.00
N365   N     0.08413   0.35629   0.98832   0.00000  Uiso   1.00
N366   N     0.55761   0.31264   0.06293   0.00000  Uiso   1.00
N367   N     0.35472   0.33838   0.72242   0.00000  Uiso   1.00
N368   N     0.06318   0.46820   0.96968   0.00000  Uiso   1.00
C369   C     0.89398   0.05719   0.49845   0.00000  Uiso   1.00
C370   C     0.92559   0.06271   0.55544   0.00000  Uiso   1.00
C371   C     0.91735   0.03332   0.60390   0.00000  Uiso   1.00
C372   C     0.95050   0.04433   0.65178   0.00000  Uiso   1.00
C373   C     0.99355   0.04693   0.74037   0.00000  Uiso   1.00
C374   C     0.96214   0.02289   0.47038   0.00000  Uiso   1.00
C375   C     0.98462   0.96002   0.44732   0.00000  Uiso   1.00
C376   C     0.04854   0.93753   0.42360   0.00000  Uiso   1.00
C377   C     0.14829   0.87834   0.38010   0.00000  Uiso   1.00
C378   C     0.84460   0.13520   0.46873   0.00000  Uiso   1.00
C379   C     0.76826   0.16675   0.44427   0.00000  Uiso   1.00
C380   C     0.73322   0.23880   0.41914   0.00000  Uiso   1.00
C381   C     0.65048   0.35398   0.37307   0.00000  Uiso   1.00
C382   C     0.96751   0.12903   0.49730   0.00000  Uiso   1.00
C383   C     0.96553   0.10173   0.55481   0.00000  Uiso   1.00
C384   C     0.99871   0.11279   0.60263   0.00000  Uiso   1.00
C385   C     0.99051   0.08342   0.65116   0.00000  Uiso   1.00
C386   C     0.00208   0.06191   0.46976   0.00000  Uiso   1.00
C387   C     0.06598   0.03950   0.44606   0.00000  Uiso   1.00
C388   C     0.08855   0.97661   0.42297   0.00000  Uiso   1.00
C389   C     0.88454   0.17421   0.46811   0.00000  Uiso   1.00
C390   C     0.84962   0.24623   0.44300   0.00000  Uiso   1.00
C391   C     0.77324   0.27789   0.41851   0.00000  Uiso   1.00
H392   H     0.86288   0.02681   0.49893   0.00000  Uiso   1.00
H393   H     0.88644   0.00312   0.60437   0.00000  Uiso   1.00
H394   H     0.95369   0.92985   0.44781   0.00000  Uiso   1.00
H395   H     0.73737   0.13654   0.44476   0.00000  Uiso   1.00
H396   H     0.93019   0.99403   0.72099   0.00000  Uiso   1.00
H397   H     0.07199   0.83955   0.39086   0.00000  Uiso   1.00
H398   H     0.61582   0.27540   0.38443   0.00000  Uiso   1.00
H399   H     0.99861   0.15940   0.49681   0.00000  Uiso   1.00
H400   H     0.02961   0.14298   0.60214   0.00000  Uiso   1.00
H401   H     0.09687   0.06971   0.44558   0.00000  Uiso   1.00
H402   H     0.88055   0.27640   0.44253   0.00000  Uiso   1.00
H403   H     0.04640   0.10755   0.71918   0.00000  Uiso   1.00
H404   H     0.18820   0.95306   0.38905   0.00000  Uiso   1.00
H405   H     0.73203   0.38892   0.38262   0.00000  Uiso   1.00
O406   O     0.00627   0.03758   0.78941   0.00000  Uiso   1.00
O407   O     0.19228   0.83490   0.35629   0.00000  Uiso   1.00
O408   O     0.59380   0.40674   0.34785   0.00000  Uiso   1.00
N409   N     0.95327   0.02301   0.70611   0.00000  Uiso   1.00
N410   N     0.08585   0.87857   0.39747   0.00000  Uiso   1.00
N411   N     0.65938   0.28606   0.39144   0.00000  Uiso   1.00
N412   N     0.01581   0.08410   0.70514   0.00000  Uiso   1.00
N413   N     0.14838   0.93965   0.39649   0.00000  Uiso   1.00
N414   N     0.72191   0.34714   0.39046   0.00000  Uiso   1.00
C415   C     0.55965   0.53842   0.44993   0.00000  Uiso   1.00
C416   C     0.59435   0.58835   0.44420   0.00000  Uiso   1.00
C417   C     0.62024   0.60291   0.39877   0.00000  Uiso   1.00
C418   C     0.65009   0.65008   0.40157   0.00000  Uiso   1.00
C419   C     0.70343   0.72280   0.38560   0.00000  Uiso   1.00
C420   C     0.60788   0.48195   0.50054   0.00000  Uiso   1.00
C421   C     0.64512   0.40705   0.50249   0.00000  Uiso   1.00
C422   C     0.68634   0.36465   0.55272   0.00000  Uiso   1.00
C423   C     0.76064   0.27218   0.62423   0.00000  Uiso   1.00
C424   C     0.48150   0.58462   0.46380   0.00000  Uiso   1.00
C425   C     0.41249   0.59602   0.43486   0.00000  Uiso   1.00
C426   C     0.34732   0.64004   0.45417   0.00000  Uiso   1.00
C427   C     0.22540   0.70697   0.46863   0.00000  Uiso   1.00
C428   C     0.56662   0.59630   0.53568   0.00000  Uiso   1.00
C429   C     0.59814   0.61979   0.49078   0.00000  Uiso   1.00
C430   C     0.62795   0.66695   0.49365   0.00000  Uiso   1.00
C431   C     0.65388   0.68158   0.44823   0.00000  Uiso   1.00
C432   C     0.61166   0.51339   0.54712   0.00000  Uiso   1.00
C433   C     0.65283   0.47109   0.59736   0.00000  Uiso   1.00
C434   C     0.69014   0.39614   0.59938   0.00000  Uiso   1.00
C435   C     0.48529   0.61605   0.51038   0.00000  Uiso   1.00
C436   C     0.42021   0.66006   0.52973   0.00000  Uiso   1.00
C437   C     0.35111   0.67153   0.50083   0.00000  Uiso   1.00
H438   H     0.55670   0.51394   0.41367   0.00000  Uiso   1.00
H439   H     0.61730   0.57857   0.36274   0.00000  Uiso   1.00
H440   H     0.64217   0.38274   0.46644   0.00000  Uiso   1.00
H441   H     0.40958   0.57168   0.39882   0.00000  Uiso   1.00
H442   H     0.68619   0.66406   0.32682   0.00000  Uiso   1.00
H443   H     0.73861   0.25114   0.54548   0.00000  Uiso   1.00
H444   H     0.24814   0.64957   0.40290   0.00000  Uiso   1.00
H445   H     0.56957   0.62077   0.57194   0.00000  Uiso   1.00
H446   H     0.63088   0.69127   0.52969   0.00000  Uiso   1.00
H447   H     0.65575   0.49543   0.63339   0.00000  Uiso   1.00
H448   H     0.42316   0.68438   0.56578   0.00000  Uiso   1.00
H449   H     0.69721   0.75553   0.46233   0.00000  Uiso   1.00
H450   H     0.74963   0.34261   0.68099   0.00000  Uiso   1.00
H451   H     0.25917   0.74104   0.53841   0.00000  Uiso   1.00
O452   O     0.73182   0.75422   0.36393   0.00000  Uiso   1.00
O453   O     0.80058   0.21249   0.65081   0.00000  Uiso   1.00
O454   O     0.15711   0.73521   0.46374   0.00000  Uiso   1.00
N455   N     0.68035   0.67593   0.36450   0.00000  Uiso   1.00
N456   N     0.72937   0.28987   0.56894   0.00000  Uiso   1.00
N457   N     0.27083   0.66235   0.43564   0.00000  Uiso   1.00
N458   N     0.68628   0.72514   0.43742   0.00000  Uiso   1.00
N459   N     0.73530   0.33909   0.64185   0.00000  Uiso   1.00
N460   N     0.27676   0.71157   0.50856   0.00000  Uiso   1.00
C461   C     0.19432   0.18994   0.40715   0.00000  Uiso   1.00
C462   C     0.13653   0.27006   0.38743   0.00000  Uiso   1.00
C463   C     0.05943   0.29789   0.36682   0.00000  Uiso   1.00
C464   C     0.01612   0.37275   0.35096   0.00000  Uiso   1.00
C465   C     0.92142   0.49025   0.31962   0.00000  Uiso   1.00
C466   C     0.25719   0.17190   0.37418   0.00000  Uiso   1.00
C467   C     0.28154   0.11719   0.34244   0.00000  Uiso   1.00
C468   C     0.33981   0.10941   0.31543   0.00000  Uiso   1.00
C469   C     0.43246   0.07448   0.26355   0.00000  Uiso   1.00
C470   C     0.23051   0.18507   0.46565   0.00000  Uiso   1.00
C471   C     0.23244   0.14141   0.51081   0.00000  Uiso   1.00
C472   C     0.26827   0.14471   0.56082   0.00000  Uiso   1.00
C473   C     0.31950   0.13022   0.65095   0.00000  Uiso   1.00
C474   C     0.25452   0.27341   0.41563   0.00000  Uiso   1.00
C475   C     0.16923   0.31540   0.39203   0.00000  Uiso   1.00
C476   C     0.12603   0.39024   0.37621   0.00000  Uiso   1.00
C477   C     0.04888   0.41817   0.35558   0.00000  Uiso   1.00
C478   C     0.28989   0.21724   0.37878   0.00000  Uiso   1.00
C479   C     0.34814   0.20954   0.35182   0.00000  Uiso   1.00
C480   C     0.37256   0.15483   0.32005   0.00000  Uiso   1.00
C481   C     0.26320   0.23041   0.47026   0.00000  Uiso   1.00
C482   C     0.29904   0.23377   0.52020   0.00000  Uiso   1.00
C483   C     0.30103   0.19013   0.56544   0.00000  Uiso   1.00
H484   H     0.16887   0.15464   0.40356   0.00000  Uiso   1.00
H485   H     0.03415   0.26278   0.36326   0.00000  Uiso   1.00
H486   H     0.25623   0.08211   0.33888   0.00000  Uiso   1.00
H487   H     0.20714   0.10633   0.50723   0.00000  Uiso   1.00
H488   H     0.89921   0.40266   0.32059   0.00000  Uiso   1.00
H489   H     0.36749   0.02168   0.26921   0.00000  Uiso   1.00
H490   H     0.26397   0.07277   0.62421   0.00000  Uiso   1.00
H491   H     0.27998   0.30871   0.41922   0.00000  Uiso   1.00
H492   H     0.15135   0.42531   0.37978   0.00000  Uiso   1.00
H493   H     0.37343   0.24463   0.35540   0.00000  Uiso   1.00
H494   H     0.32434   0.26886   0.52375   0.00000  Uiso   1.00
H495   H     0.99434   0.53457   0.33400   0.00000  Uiso   1.00
H496   H     0.46262   0.15359   0.28262   0.00000  Uiso   1.00
H497   H     0.35910   0.20468   0.63761   0.00000  Uiso   1.00
O498   O     0.86016   0.54253   0.30105   0.00000  Uiso   1.00
O499   O     0.47453   0.04269   0.23365   0.00000  Uiso   1.00
O500   O     0.33871   0.10972   0.69940   0.00000  Uiso   1.00
N501   N     0.93925   0.41771   0.32917   0.00000  Uiso   1.00
N502   N     0.37705   0.06152   0.28112   0.00000  Uiso   1.00
N503   N     0.28029   0.10927   0.61302   0.00000  Uiso   1.00
N504   N     0.99043   0.48869   0.33638   0.00000  Uiso   1.00
N505   N     0.42824   0.13250   0.28834   0.00000  Uiso   1.00
N506   N     0.33148   0.18025   0.62023   0.00000  Uiso   1.00
C507   C     0.80384   0.58212   0.03155   0.00000  Uiso   1.00
C508   C     0.83933   0.59240   0.08536   0.00000  Uiso   1.00
C509   C     0.91537   0.55180   0.11086   0.00000  Uiso   1.00
C510   C     0.93659   0.56968   0.15987   0.00000  Uiso   1.00
C511   C     0.99974   0.57705   0.23999   0.00000  Uiso   1.00
C512   C     0.73858   0.56965   0.04345   0.00000  Uiso   1.00
C513   C     0.72991   0.50991   0.03369   0.00000  Uiso   1.00
C514   C     0.66631   0.50865   0.04741   0.00000  Uiso   1.00
C515   C     0.57302   0.48071   0.06241   0.00000  Uiso   1.00
C516   C     0.76676   0.65554   0.99442   0.00000  Uiso   1.00
C517   C     0.78177   0.66803   0.94344   0.00000  Uiso   1.00
C518   C     0.74188   0.73908   0.91588   0.00000  Uiso   1.00
C519   C     0.69235   0.84451   0.85477   0.00000  Uiso   1.00
C520   C     0.70630   0.68610   0.07324   0.00000  Uiso   1.00
C521   C     0.78635   0.64888   0.10800   0.00000  Uiso   1.00
C522   C     0.80745   0.66684   0.15698   0.00000  Uiso   1.00
C523   C     0.88351   0.62627   0.18255   0.00000  Uiso   1.00
C524   C     0.68560   0.62612   0.06609   0.00000  Uiso   1.00
C525   C     0.62199   0.62496   0.07981   0.00000  Uiso   1.00
C526   C     0.61323   0.56523   0.07009   0.00000  Uiso   1.00
C527   C     0.71378   0.71202   0.01706   0.00000  Uiso   1.00
C528   C     0.67385   0.78307   0.98957   0.00000  Uiso   1.00
C529   C     0.68880   0.79566   0.93856   0.00000  Uiso   1.00
H530   H     0.84509   0.53814   0.01393   0.00000  Uiso   1.00
H531   H     0.95636   0.50809   0.09333   0.00000  Uiso   1.00
H532   H     0.77092   0.46622   0.01617   0.00000  Uiso   1.00
H533   H     0.82277   0.62431   0.92594   0.00000  Uiso   1.00
H534   H     0.05635   0.49966   0.19136   0.00000  Uiso   1.00
H535   H     0.66533   0.41138   0.02864   0.00000  Uiso   1.00
H536   H     0.77467   0.74475   0.83837   0.00000  Uiso   1.00
H537   H     0.66505   0.73007   0.09087   0.00000  Uiso   1.00
H538   H     0.76644   0.71055   0.17449   0.00000  Uiso   1.00
H539   H     0.58100   0.66867   0.09733   0.00000  Uiso   1.00
H540   H     0.63286   0.82676   0.00710   0.00000  Uiso   1.00
H541   H     0.90220   0.66398   0.25724   0.00000  Uiso   1.00
H542   H     0.51118   0.57570   0.09452   0.00000  Uiso   1.00
H543   H     0.62053   0.90907   0.90425   0.00000  Uiso   1.00
O544   O     0.04922   0.56550   0.27793   0.00000  Uiso   1.00
O545   O     0.53621   0.44969   0.06444   0.00000  Uiso   1.00
O546   O     0.67967   0.88706   0.81481   0.00000  Uiso   1.00
N547   N     0.00616   0.54102   0.19538   0.00000  Uiso   1.00
N548   N     0.64058   0.45848   0.04326   0.00000  Uiso   1.00
N549   N     0.74280   0.77015   0.86536   0.00000  Uiso   1.00
N550   N     0.92321   0.62944   0.23083   0.00000  Uiso   1.00
N551   N     0.55764   0.54690   0.07871   0.00000  Uiso   1.00
N552   N     0.65985   0.85857   0.90081   0.00000  Uiso   1.00
