data_job_00457
_audit_creation_date              2018-12-19
_audit_creation_method            'Materials Studio'
_symmetry_space_group_name_H-M    'P1'
_symmetry_Int_Tables_number       1
_symmetry_cell_setting            triclinic
loop_
_symmetry_equiv_pos_as_xyz
  x,y,z
_cell_length_a                    10.2186
_cell_length_b                    19.4440
_cell_length_c                    15.4325
_cell_angle_alpha                 90.0000
_cell_angle_beta                  126.1631
_cell_angle_gamma                 90.0000
loop_
_atom_site_label
_atom_site_type_symbol
_atom_site_fract_x
_atom_site_fract_y
_atom_site_fract_z
_atom_site_U_iso_or_equiv
_atom_site_adp_type
_atom_site_occupancy
C1     C     0.03955   0.78307   0.35953   0.00000  Uiso   1.00
C2     C     0.98855   0.80987   0.42838   0.00000  Uiso   1.00
C3     C     0.83894   0.79937   0.40884   0.00000  Uiso   1.00
C4     C     0.81600   0.82814   0.48130   0.00000  Uiso   1.00
C5     C     0.71816   0.86402   0.57467   0.00000  Uiso   1.00
C6     C     0.09129   0.84601   0.32770   0.00000  Uiso   1.00
C7     C     0.02808   0.86590   0.22352   0.00000  Uiso   1.00
C8     C     0.09165   0.92509   0.21123   0.00000  Uiso   1.00
C9     C     0.15341   0.01706   0.14830   0.00000  Uiso   1.00
C10    C     0.19321   0.74112   0.43451   0.00000  Uiso   1.00
C11    C     0.21571   0.67282   0.42012   0.00000  Uiso   1.00
C12    C     0.36511   0.64370   0.49775   0.00000  Uiso   1.00
C13    C     0.58510   0.57281   0.60065   0.00000  Uiso   1.00
C14    C     0.26487   0.85281   0.52296   0.00000  Uiso   1.00
C15    C     0.11093   0.84775   0.51714   0.00000  Uiso   1.00
C16    C     0.08822   0.87653   0.58965   0.00000  Uiso   1.00
C17    C     0.93860   0.86608   0.57023   0.00000  Uiso   1.00
C18    C     0.21367   0.88389   0.41646   0.00000  Uiso   1.00
C19    C     0.27736   0.94306   0.40433   0.00000  Uiso   1.00
C20    C     0.21425   0.96304   0.30016   0.00000  Uiso   1.00
C21    C     0.31559   0.77900   0.52328   0.00000  Uiso   1.00
C22    C     0.46499   0.74998   0.60093   0.00000  Uiso   1.00
C23    C     0.48771   0.68165   0.58667   0.00000  Uiso   1.00
H24    H     0.94428   0.75358   0.29042   0.00000  Uiso   1.00
H25    H     0.74426   0.77006   0.34013   0.00000  Uiso   1.00
H26    H     0.93339   0.83657   0.15484   0.00000  Uiso   1.00
H27    H     0.12098   0.64352   0.35142   0.00000  Uiso   1.00
H28    H     0.57645   0.80506   0.43437   0.00000  Uiso   1.00
H29    H     0.97527   0.94529   0.04367   0.00000  Uiso   1.00
H30    H     0.37085   0.53821   0.45819   0.00000  Uiso   1.00
H31    H     0.36015   0.88230   0.59207   0.00000  Uiso   1.00
H32    H     0.18295   0.90585   0.65834   0.00000  Uiso   1.00
H33    H     0.37207   0.97236   0.47304   0.00000  Uiso   1.00
H34    H     0.55966   0.77931   0.66962   0.00000  Uiso   1.00
H35    H     0.93250   0.91527   0.69264   0.00000  Uiso   1.00
H36    H     0.33133   0.05551   0.30193   0.00000  Uiso   1.00
H37    H     0.72691   0.64843   0.71645   0.00000  Uiso   1.00
O38    O     0.63038   0.87335   0.60164   0.00000  Uiso   1.00
O39    O     0.15364   0.05732   0.08905   0.00000  Uiso   1.00
O40    O     0.67263   0.52324   0.63289   0.00000  Uiso   1.00
N41    N     0.68457   0.82775   0.48607   0.00000  Uiso   1.00
N42    N     0.05743   0.95887   0.12079   0.00000  Uiso   1.00
N43    N     0.42728   0.57829   0.50831   0.00000  Uiso   1.00
N44    N     0.87616   0.88706   0.62504   0.00000  Uiso   1.00
N45    N     0.24902   0.01818   0.25976   0.00000  Uiso   1.00
N46    N     0.61887   0.63759   0.64728   0.00000  Uiso   1.00
C47    C     0.96045   0.28307   0.14047   0.00000  Uiso   1.00
C48    C     0.01145   0.30987   0.07162   0.00000  Uiso   1.00
C49    C     0.16106   0.29937   0.09116   0.00000  Uiso   1.00
C50    C     0.18400   0.32814   0.01870   0.00000  Uiso   1.00
C51    C     0.28184   0.36402   0.92533   0.00000  Uiso   1.00
C52    C     0.90871   0.34601   0.17230   0.00000  Uiso   1.00
C53    C     0.97192   0.36590   0.27648   0.00000  Uiso   1.00
C54    C     0.90835   0.42509   0.28877   0.00000  Uiso   1.00
C55    C     0.84659   0.51706   0.35170   0.00000  Uiso   1.00
C56    C     0.80679   0.24112   0.06549   0.00000  Uiso   1.00
C57    C     0.78429   0.17282   0.07988   0.00000  Uiso   1.00
C58    C     0.63489   0.14370   0.00225   0.00000  Uiso   1.00
C59    C     0.41490   0.07281   0.89935   0.00000  Uiso   1.00
C60    C     0.73513   0.35281   0.97704   0.00000  Uiso   1.00
C61    C     0.88907   0.34775   0.98286   0.00000  Uiso   1.00
C62    C     0.91178   0.37653   0.91035   0.00000  Uiso   1.00
C63    C     0.06140   0.36608   0.92977   0.00000  Uiso   1.00
C64    C     0.78633   0.38389   0.08354   0.00000  Uiso   1.00
C65    C     0.72264   0.44306   0.09567   0.00000  Uiso   1.00
C66    C     0.78575   0.46304   0.19984   0.00000  Uiso   1.00
C67    C     0.68441   0.27900   0.97672   0.00000  Uiso   1.00
C68    C     0.53501   0.24998   0.89907   0.00000  Uiso   1.00
C69    C     0.51229   0.18165   0.91333   0.00000  Uiso   1.00
H70    H     0.05572   0.25358   0.20958   0.00000  Uiso   1.00
H71    H     0.25574   0.27006   0.15987   0.00000  Uiso   1.00
H72    H     0.06661   0.33657   0.34516   0.00000  Uiso   1.00
H73    H     0.87902   0.14352   0.14858   0.00000  Uiso   1.00
H74    H     0.42355   0.30506   0.06563   0.00000  Uiso   1.00
H75    H     0.02473   0.44529   0.45633   0.00000  Uiso   1.00
H76    H     0.62915   0.03821   0.04181   0.00000  Uiso   1.00
H77    H     0.63985   0.38230   0.90793   0.00000  Uiso   1.00
H78    H     0.81705   0.40585   0.84166   0.00000  Uiso   1.00
H79    H     0.62793   0.47236   0.02696   0.00000  Uiso   1.00
H80    H     0.44034   0.27931   0.83038   0.00000  Uiso   1.00
H81    H     0.06750   0.41527   0.80736   0.00000  Uiso   1.00
H82    H     0.66867   0.55551   0.19807   0.00000  Uiso   1.00
H83    H     0.27309   0.14843   0.78355   0.00000  Uiso   1.00
O84    O     0.36962   0.37335   0.89836   0.00000  Uiso   1.00
O85    O     0.84636   0.55732   0.41095   0.00000  Uiso   1.00
O86    O     0.32737   0.02324   0.86711   0.00000  Uiso   1.00
N87    N     0.31543   0.32775   0.01393   0.00000  Uiso   1.00
N88    N     0.94257   0.45887   0.37921   0.00000  Uiso   1.00
N89    N     0.57272   0.07829   0.99169   0.00000  Uiso   1.00
N90    N     0.12384   0.38706   0.87496   0.00000  Uiso   1.00
N91    N     0.75098   0.51818   0.24024   0.00000  Uiso   1.00
N92    N     0.38113   0.13759   0.85272   0.00000  Uiso   1.00
C93    C     0.96045   0.21693   0.64047   0.00000  Uiso   1.00
C94    C     0.01145   0.19013   0.57162   0.00000  Uiso   1.00
C95    C     0.16106   0.20063   0.59116   0.00000  Uiso   1.00
C96    C     0.18400   0.17186   0.51870   0.00000  Uiso   1.00
C97    C     0.28184   0.13598   0.42533   0.00000  Uiso   1.00
C98    C     0.90871   0.15399   0.67230   0.00000  Uiso   1.00
C99    C     0.97192   0.13410   0.77648   0.00000  Uiso   1.00
C100   C     0.90835   0.07491   0.78877   0.00000  Uiso   1.00
C101   C     0.84659   0.98294   0.85170   0.00000  Uiso   1.00
C102   C     0.80679   0.25888   0.56549   0.00000  Uiso   1.00
C103   C     0.78429   0.32718   0.57988   0.00000  Uiso   1.00
C104   C     0.63489   0.35630   0.50225   0.00000  Uiso   1.00
C105   C     0.41490   0.42719   0.39935   0.00000  Uiso   1.00
C106   C     0.73513   0.14719   0.47704   0.00000  Uiso   1.00
C107   C     0.88907   0.15225   0.48286   0.00000  Uiso   1.00
C108   C     0.91178   0.12347   0.41035   0.00000  Uiso   1.00
C109   C     0.06140   0.13392   0.42977   0.00000  Uiso   1.00
C110   C     0.78633   0.11611   0.58354   0.00000  Uiso   1.00
C111   C     0.72264   0.05694   0.59567   0.00000  Uiso   1.00
C112   C     0.78575   0.03696   0.69984   0.00000  Uiso   1.00
C113   C     0.68441   0.22100   0.47672   0.00000  Uiso   1.00
C114   C     0.53501   0.25002   0.39907   0.00000  Uiso   1.00
C115   C     0.51229   0.31835   0.41333   0.00000  Uiso   1.00
H116   H     0.05572   0.24642   0.70958   0.00000  Uiso   1.00
H117   H     0.25574   0.22994   0.65987   0.00000  Uiso   1.00
H118   H     0.06661   0.16343   0.84516   0.00000  Uiso   1.00
H119   H     0.87902   0.35648   0.64858   0.00000  Uiso   1.00
H120   H     0.42355   0.19494   0.56563   0.00000  Uiso   1.00
H121   H     0.02473   0.05471   0.95633   0.00000  Uiso   1.00
H122   H     0.62915   0.46179   0.54181   0.00000  Uiso   1.00
H123   H     0.63985   0.11770   0.40793   0.00000  Uiso   1.00
H124   H     0.81705   0.09415   0.34166   0.00000  Uiso   1.00
H125   H     0.62793   0.02764   0.52696   0.00000  Uiso   1.00
H126   H     0.44034   0.22069   0.33038   0.00000  Uiso   1.00
H127   H     0.06750   0.08473   0.30736   0.00000  Uiso   1.00
H128   H     0.66867   0.94449   0.69807   0.00000  Uiso   1.00
H129   H     0.27309   0.35157   0.28355   0.00000  Uiso   1.00
O130   O     0.36962   0.12665   0.39836   0.00000  Uiso   1.00
O131   O     0.84636   0.94268   0.91095   0.00000  Uiso   1.00
O132   O     0.32737   0.47676   0.36711   0.00000  Uiso   1.00
N133   N     0.31543   0.17225   0.51393   0.00000  Uiso   1.00
N134   N     0.94257   0.04113   0.87921   0.00000  Uiso   1.00
N135   N     0.57272   0.42171   0.49169   0.00000  Uiso   1.00
N136   N     0.12384   0.11294   0.37496   0.00000  Uiso   1.00
N137   N     0.75098   0.98182   0.74024   0.00000  Uiso   1.00
N138   N     0.38113   0.36241   0.35272   0.00000  Uiso   1.00
C139   C     0.03955   0.71693   0.85953   0.00000  Uiso   1.00
C140   C     0.98855   0.69013   0.92838   0.00000  Uiso   1.00
C141   C     0.83894   0.70063   0.90884   0.00000  Uiso   1.00
C142   C     0.81600   0.67186   0.98130   0.00000  Uiso   1.00
C143   C     0.71816   0.63598   0.07467   0.00000  Uiso   1.00
C144   C     0.09129   0.65399   0.82770   0.00000  Uiso   1.00
C145   C     0.02808   0.63410   0.72352   0.00000  Uiso   1.00
C146   C     0.09165   0.57491   0.71123   0.00000  Uiso   1.00
C147   C     0.15341   0.48294   0.64830   0.00000  Uiso   1.00
C148   C     0.19321   0.75888   0.93451   0.00000  Uiso   1.00
C149   C     0.21571   0.82718   0.92012   0.00000  Uiso   1.00
C150   C     0.36511   0.85630   0.99775   0.00000  Uiso   1.00
C151   C     0.58510   0.92719   0.10065   0.00000  Uiso   1.00
C152   C     0.26487   0.64719   0.02296   0.00000  Uiso   1.00
C153   C     0.11093   0.65225   0.01714   0.00000  Uiso   1.00
C154   C     0.08822   0.62347   0.08965   0.00000  Uiso   1.00
C155   C     0.93860   0.63392   0.07023   0.00000  Uiso   1.00
C156   C     0.21367   0.61611   0.91646   0.00000  Uiso   1.00
C157   C     0.27736   0.55694   0.90433   0.00000  Uiso   1.00
C158   C     0.21425   0.53696   0.80016   0.00000  Uiso   1.00
C159   C     0.31559   0.72100   0.02328   0.00000  Uiso   1.00
C160   C     0.46499   0.75002   0.10093   0.00000  Uiso   1.00
C161   C     0.48771   0.81835   0.08667   0.00000  Uiso   1.00
H162   H     0.94428   0.74642   0.79042   0.00000  Uiso   1.00
H163   H     0.74426   0.72994   0.84013   0.00000  Uiso   1.00
H164   H     0.93339   0.66343   0.65484   0.00000  Uiso   1.00
H165   H     0.12098   0.85648   0.85142   0.00000  Uiso   1.00
H166   H     0.57645   0.69494   0.93437   0.00000  Uiso   1.00
H167   H     0.97527   0.55471   0.54367   0.00000  Uiso   1.00
H168   H     0.37085   0.96179   0.95819   0.00000  Uiso   1.00
H169   H     0.36015   0.61770   0.09207   0.00000  Uiso   1.00
H170   H     0.18295   0.59415   0.15834   0.00000  Uiso   1.00
H171   H     0.37207   0.52764   0.97304   0.00000  Uiso   1.00
H172   H     0.55966   0.72069   0.16962   0.00000  Uiso   1.00
H173   H     0.93250   0.58473   0.19264   0.00000  Uiso   1.00
H174   H     0.33133   0.44449   0.80193   0.00000  Uiso   1.00
H175   H     0.72691   0.85157   0.21645   0.00000  Uiso   1.00
O176   O     0.63038   0.62665   0.10164   0.00000  Uiso   1.00
O177   O     0.15364   0.44268   0.58905   0.00000  Uiso   1.00
O178   O     0.67263   0.97676   0.13289   0.00000  Uiso   1.00
N179   N     0.68457   0.67225   0.98607   0.00000  Uiso   1.00
N180   N     0.05743   0.54113   0.62079   0.00000  Uiso   1.00
N181   N     0.42728   0.92171   0.00831   0.00000  Uiso   1.00
N182   N     0.87616   0.61294   0.12504   0.00000  Uiso   1.00
N183   N     0.24902   0.48182   0.75976   0.00000  Uiso   1.00
N184   N     0.61887   0.86241   0.14728   0.00000  Uiso   1.00
