data_job_06748
_audit_creation_date              2018-12-19
_audit_creation_method            'Materials Studio'
_symmetry_space_group_name_H-M    'P1'
_symmetry_Int_Tables_number       1
_symmetry_cell_setting            triclinic
loop_
_symmetry_equiv_pos_as_xyz
  x,y,z
_cell_length_a                    21.2018
_cell_length_b                    21.4677
_cell_length_c                    22.2702
_cell_angle_alpha                 81.4249
_cell_angle_beta                  62.9492
_cell_angle_gamma                 78.7770
loop_
_atom_site_label
_atom_site_type_symbol
_atom_site_fract_x
_atom_site_fract_y
_atom_site_fract_z
_atom_site_U_iso_or_equiv
_atom_site_adp_type
_atom_site_occupancy
C1     C     0.51356   0.32631   0.30882   0.00000  Uiso   1.00
C2     C     0.49697   0.32457   0.38319   0.00000  Uiso   1.00
C3     C     0.47515   0.27376   0.43055   0.00000  Uiso   1.00
C4     C     0.46265   0.28154   0.49601   0.00000  Uiso   1.00
C5     C     0.43549   0.27024   0.60886   0.00000  Uiso   1.00
C6     C     0.46528   0.38410   0.29636   0.00000  Uiso   1.00
C7     C     0.41681   0.38334   0.27070   0.00000  Uiso   1.00
C8     C     0.37764   0.44125   0.26306   0.00000  Uiso   1.00
C9     C     0.30131   0.52238   0.24104   0.00000  Uiso   1.00
C10    C     0.58980   0.34166   0.26886   0.00000  Uiso   1.00
C11    C     0.64604   0.30523   0.22007   0.00000  Uiso   1.00
C12    C     0.71171   0.32742   0.18926   0.00000  Uiso   1.00
C13    C     0.82872   0.34266   0.12456   0.00000  Uiso   1.00
C14    C     0.53018   0.43050   0.34086   0.00000  Uiso   1.00
C15    C     0.50600   0.38116   0.40059   0.00000  Uiso   1.00
C16    C     0.49353   0.38903   0.46600   0.00000  Uiso   1.00
C17    C     0.47169   0.33824   0.51345   0.00000  Uiso   1.00
C18    C     0.47430   0.44069   0.31376   0.00000  Uiso   1.00
C19    C     0.43520   0.49862   0.30615   0.00000  Uiso   1.00
C20    C     0.38668   0.49795   0.28049   0.00000  Uiso   1.00
C21    C     0.59883   0.39826   0.28627   0.00000  Uiso   1.00
C22    C     0.66442   0.42051   0.25552   0.00000  Uiso   1.00
C23    C     0.72075   0.38411   0.20670   0.00000  Uiso   1.00
H24    H     0.50653   0.28225   0.29527   0.00000  Uiso   1.00
H25    H     0.46816   0.22997   0.41707   0.00000  Uiso   1.00
H26    H     0.40984   0.33954   0.25723   0.00000  Uiso   1.00
H27    H     0.63903   0.26144   0.20662   0.00000  Uiso   1.00
H28    H     0.42958   0.19697   0.55978   0.00000  Uiso   1.00
H29    H     0.30663   0.42801   0.22274   0.00000  Uiso   1.00
H30    H     0.78992   0.26332   0.11600   0.00000  Uiso   1.00
H31    H     0.53720   0.47456   0.35441   0.00000  Uiso   1.00
H32    H     0.50052   0.43283   0.47945   0.00000  Uiso   1.00
H33    H     0.44220   0.54240   0.31962   0.00000  Uiso   1.00
H34    H     0.67139   0.46430   0.26900   0.00000  Uiso   1.00
H35    H     0.45584   0.36162   0.61042   0.00000  Uiso   1.00
H36    H     0.33289   0.59266   0.27337   0.00000  Uiso   1.00
H37    H     0.81618   0.42797   0.16664   0.00000  Uiso   1.00
O38    O     0.41801   0.24838   0.66630   0.00000  Uiso   1.00
O39    O     0.25670   0.55150   0.22410   0.00000  Uiso   1.00
O40    O     0.89077   0.33543   0.08407   0.00000  Uiso   1.00
N41    N     0.44081   0.24144   0.55454   0.00000  Uiso   1.00
N42    N     0.32584   0.45745   0.23943   0.00000  Uiso   1.00
N43    N     0.77768   0.30349   0.13963   0.00000  Uiso   1.00
N44    N     0.45494   0.33004   0.58178   0.00000  Uiso   1.00
N45    N     0.33998   0.54605   0.26668   0.00000  Uiso   1.00
N46    N     0.79181   0.39208   0.16687   0.00000  Uiso   1.00
C47    C     0.79826   0.91957   0.40655   0.00000  Uiso   1.00
C48    C     0.72717   0.95123   0.45863   0.00000  Uiso   1.00
C49    C     0.68169   0.00076   0.44490   0.00000  Uiso   1.00
C50    C     0.61916   0.02313   0.49953   0.00000  Uiso   1.00
C51    C     0.51128   0.07631   0.57037   0.00000  Uiso   1.00
C52    C     0.85438   0.92557   0.42949   0.00000  Uiso   1.00
C53    C     0.91586   0.95350   0.39125   0.00000  Uiso   1.00
C54    C     0.96043   0.95426   0.42135   0.00000  Uiso   1.00
C55    C     0.05008   0.96754   0.44693   0.00000  Uiso   1.00
C56    C     0.79258   0.84879   0.41474   0.00000  Uiso   1.00
C57    C     0.80210   0.81217   0.36411   0.00000  Uiso   1.00
C58    C     0.79465   0.74828   0.38179   0.00000  Uiso   1.00
C59    C     0.78833   0.64236   0.38448   0.00000  Uiso   1.00
C60    C     0.76811   0.87123   0.52798   0.00000  Uiso   1.00
C61    C     0.71079   0.92498   0.52459   0.00000  Uiso   1.00
C62    C     0.64832   0.94728   0.57925   0.00000  Uiso   1.00
C63    C     0.60275   0.99683   0.56561   0.00000  Uiso   1.00
C64    C     0.83801   0.89931   0.49544   0.00000  Uiso   1.00
C65    C     0.88250   0.90002   0.52561   0.00000  Uiso   1.00
C66    C     0.94402   0.92795   0.48743   0.00000  Uiso   1.00
C67    C     0.77619   0.82254   0.48070   0.00000  Uiso   1.00
C68    C     0.76873   0.75869   0.49846   0.00000  Uiso   1.00
C69    C     0.77824   0.72198   0.44787   0.00000  Uiso   1.00
H70    H     0.81102   0.94001   0.35520   0.00000  Uiso   1.00
H71    H     0.69439   0.02107   0.39385   0.00000  Uiso   1.00
H72    H     0.92853   0.97381   0.34021   0.00000  Uiso   1.00
H73    H     0.81478   0.83250   0.31307   0.00000  Uiso   1.00
H74    H     0.55786   0.09937   0.46580   0.00000  Uiso   1.00
H75    H     0.05157   0.99971   0.35269   0.00000  Uiso   1.00
H76    H     0.81172   0.70172   0.29546   0.00000  Uiso   1.00
H77    H     0.75536   0.85079   0.57933   0.00000  Uiso   1.00
H78    H     0.63566   0.92695   0.63029   0.00000  Uiso   1.00
H79    H     0.86981   0.87970   0.57665   0.00000  Uiso   1.00
H80    H     0.75606   0.73839   0.54951   0.00000  Uiso   1.00
H81    H     0.51020   0.02298   0.65770   0.00000  Uiso   1.00
H82    H     0.00392   0.92332   0.54458   0.00000  Uiso   1.00
H83    H     0.76406   0.62534   0.48736   0.00000  Uiso   1.00
O84    O     0.45631   0.11290   0.59123   0.00000  Uiso   1.00
O85    O     0.10405   0.98214   0.44282   0.00000  Uiso   1.00
O86    O     0.78936   0.59120   0.36774   0.00000  Uiso   1.00
N87    N     0.56306   0.07093   0.50397   0.00000  Uiso   1.00
N88    N     0.02465   0.97776   0.39822   0.00000  Uiso   1.00
N89    N     0.80043   0.69917   0.34471   0.00000  Uiso   1.00
N90    N     0.53742   0.02983   0.60723   0.00000  Uiso   1.00
N91    N     0.99900   0.93666   0.50148   0.00000  Uiso   1.00
N92    N     0.77478   0.65807   0.44797   0.00000  Uiso   1.00
C93    C     0.41754   0.87676   0.41938   0.00000  Uiso   1.00
C94    C     0.40562   0.89086   0.48918   0.00000  Uiso   1.00
C95    C     0.45892   0.89290   0.50838   0.00000  Uiso   1.00
C96    C     0.43701   0.90660   0.57455   0.00000  Uiso   1.00
C97    C     0.42955   0.92676   0.67607   0.00000  Uiso   1.00
C98    C     0.37871   0.82023   0.43054   0.00000  Uiso   1.00
C99    C     0.40937   0.76288   0.40043   0.00000  Uiso   1.00
C100   C     0.36480   0.71713   0.41724   0.00000  Uiso   1.00
C101   C     0.31554   0.62764   0.42768   0.00000  Uiso   1.00
C102   C     0.37669   0.93338   0.39554   0.00000  Uiso   1.00
C103   C     0.40566   0.97116   0.33599   0.00000  Uiso   1.00
C104   C     0.35939   0.02066   0.32332   0.00000  Uiso   1.00
C105   C     0.30700   0.10686   0.27941   0.00000  Uiso   1.00
C106   C     0.28386   0.89748   0.50275   0.00000  Uiso   1.00
C107   C     0.33301   0.90211   0.53447   0.00000  Uiso   1.00
C108   C     0.31102   0.91582   0.60063   0.00000  Uiso   1.00
C109   C     0.36427   0.91788   0.61992   0.00000  Uiso   1.00
C110   C     0.30610   0.83148   0.47583   0.00000  Uiso   1.00
C111   C     0.26147   0.78580   0.49268   0.00000  Uiso   1.00
C112   C     0.29206   0.72840   0.46261   0.00000  Uiso   1.00
C113   C     0.30408   0.94463   0.44083   0.00000  Uiso   1.00
C114   C     0.25776   0.99408   0.42824   0.00000  Uiso   1.00
C115   C     0.28665   0.03193   0.36869   0.00000  Uiso   1.00
H116   H     0.47407   0.86799   0.38412   0.00000  Uiso   1.00
H117   H     0.51511   0.88418   0.47332   0.00000  Uiso   1.00
H118   H     0.46556   0.75419   0.36539   0.00000  Uiso   1.00
H119   H     0.46185   0.96244   0.30096   0.00000  Uiso   1.00
H120   H     0.52858   0.90707   0.59220   0.00000  Uiso   1.00
H121   H     0.42411   0.63297   0.36460   0.00000  Uiso   1.00
H122   H     0.41629   0.07211   0.22873   0.00000  Uiso   1.00
H123   H     0.22733   0.90624   0.53801   0.00000  Uiso   1.00
H124   H     0.25482   0.92453   0.63566   0.00000  Uiso   1.00
H125   H     0.20528   0.79453   0.52773   0.00000  Uiso   1.00
H126   H     0.20157   0.00278   0.46330   0.00000  Uiso   1.00
H127   H     0.31732   0.93981   0.72396   0.00000  Uiso   1.00
H128   H     0.21285   0.66572   0.49636   0.00000  Uiso   1.00
H129   H     0.20503   0.10485   0.36050   0.00000  Uiso   1.00
O130   O     0.44549   0.93476   0.71955   0.00000  Uiso   1.00
O131   O     0.30843   0.57516   0.42093   0.00000  Uiso   1.00
O132   O     0.29817   0.15130   0.24269   0.00000  Uiso   1.00
N133   N     0.47508   0.91227   0.60980   0.00000  Uiso   1.00
N134   N     0.37742   0.65601   0.39702   0.00000  Uiso   1.00
N135   N     0.37010   0.06655   0.26999   0.00000  Uiso   1.00
N136   N     0.36141   0.92990   0.68070   0.00000  Uiso   1.00
N137   N     0.26374   0.67363   0.46792   0.00000  Uiso   1.00
N138   N     0.25642   0.08417   0.34089   0.00000  Uiso   1.00
C139   C     0.09265   0.70492   0.04950   0.00000  Uiso   1.00
C140   C     0.04840   0.77087   0.05623   0.00000  Uiso   1.00
C141   C     0.04314   0.81140   0.00349   0.00000  Uiso   1.00
C142   C     0.99989   0.86971   0.02010   0.00000  Uiso   1.00
C143   C     0.93674   0.96950   0.02036   0.00000  Uiso   1.00
C144   C     0.04056   0.65924   0.09561   0.00000  Uiso   1.00
C145   C     0.02872   0.60591   0.07597   0.00000  Uiso   1.00
C146   C     0.97887   0.57025   0.12574   0.00000  Uiso   1.00
C147   C     0.90358   0.49670   0.18715   0.00000  Uiso   1.00
C148   C     0.14275   0.70622   0.08117   0.00000  Uiso   1.00
C149   C     0.21683   0.69238   0.04939   0.00000  Uiso   1.00
C150   C     0.25302   0.69626   0.08701   0.00000  Uiso   1.00
C151   C     0.33640   0.69567   0.12599   0.00000  Uiso   1.00
C152   C     0.02519   0.73641   0.17280   0.00000  Uiso   1.00
C153   C     0.01176   0.78797   0.12320   0.00000  Uiso   1.00
C154   C     0.96851   0.84624   0.13990   0.00000  Uiso   1.00
C155   C     0.96319   0.88685   0.08719   0.00000  Uiso   1.00
C156   C     0.00392   0.67634   0.16258   0.00000  Uiso   1.00
C157   C     0.95409   0.64075   0.21239   0.00000  Uiso   1.00
C158   C     0.94217   0.58738   0.19283   0.00000  Uiso   1.00
C159   C     0.10611   0.72333   0.14814   0.00000  Uiso   1.00
C160   C     0.14220   0.72722   0.18581   0.00000  Uiso   1.00
C161   C     0.21632   0.71339   0.15410   0.00000  Uiso   1.00
H162   H     0.12117   0.69160   0.99737   0.00000  Uiso   1.00
H163   H     0.07150   0.79814   0.95166   0.00000  Uiso   1.00
H164   H     0.05708   0.59268   0.02414   0.00000  Uiso   1.00
H165   H     0.24516   0.67915   0.99757   0.00000  Uiso   1.00
H166   H     0.00025   0.92380   0.93054   0.00000  Uiso   1.00
H167   H     0.96987   0.49056   0.08336   0.00000  Uiso   1.00
H168   H     0.36648   0.67288   0.02733   0.00000  Uiso   1.00
H169   H     0.99667   0.74972   0.22494   0.00000  Uiso   1.00
H170   H     0.94017   0.85946   0.19173   0.00000  Uiso   1.00
H171   H     0.92575   0.65400   0.26421   0.00000  Uiso   1.00
H172   H     0.11383   0.74046   0.23763   0.00000  Uiso   1.00
H173   H     0.89366   0.97357   0.12538   0.00000  Uiso   1.00
H174   H     0.86328   0.54032   0.27821   0.00000  Uiso   1.00
H175   H     0.25988   0.72265   0.22217   0.00000  Uiso   1.00
O176   O     0.91201   0.01982   0.00201   0.00000  Uiso   1.00
O177   O     0.87216   0.45142   0.20251   0.00000  Uiso   1.00
O178   O     0.39250   0.69062   0.12899   0.00000  Uiso   1.00
N179   N     0.98293   0.92046   0.98095   0.00000  Uiso   1.00
N180   N     0.95452   0.51541   0.12383   0.00000  Uiso   1.00
N181   N     0.32531   0.68585   0.07145   0.00000  Uiso   1.00
N182   N     0.92557   0.94724   0.08579   0.00000  Uiso   1.00
N183   N     0.89716   0.54219   0.22868   0.00000  Uiso   1.00
N184   N     0.26795   0.71263   0.17629   0.00000  Uiso   1.00
C185   C     0.19883   0.19486   0.02514   0.00000  Uiso   1.00
C186   C     0.12409   0.17562   0.05898   0.00000  Uiso   1.00
C187   C     0.10857   0.11371   0.07252   0.00000  Uiso   1.00
C188   C     0.03678   0.10609   0.10382   0.00000  Uiso   1.00
C189   C     0.92898   0.06823   0.15380   0.00000  Uiso   1.00
C190   C     0.20157   0.23572   0.07412   0.00000  Uiso   1.00
C191   C     0.25120   0.22435   0.10038   0.00000  Uiso   1.00
C192   C     0.24464   0.26732   0.14442   0.00000  Uiso   1.00
C193   C     0.25716   0.32280   0.21785   0.00000  Uiso   1.00
C194   C     0.20237   0.23940   0.96392   0.00000  Uiso   1.00
C195   C     0.25268   0.23114   0.89751   0.00000  Uiso   1.00
C196   C     0.24680   0.27722   0.84876   0.00000  Uiso   1.00
C197   C     0.26056   0.33842   0.75109   0.00000  Uiso   1.00
C198   C     0.09892   0.29140   0.05665   0.00000  Uiso   1.00
C199   C     0.06983   0.22806   0.07610   0.00000  Uiso   1.00
C200   C     0.99803   0.22052   0.10738   0.00000  Uiso   1.00
C201   C     0.98241   0.15862   0.12096   0.00000  Uiso   1.00
C202   C     0.14731   0.28816   0.09123   0.00000  Uiso   1.00
C203   C     0.14067   0.33116   0.13524   0.00000  Uiso   1.00
C204   C     0.19027   0.31986   0.16156   0.00000  Uiso   1.00
C205   C     0.14810   0.29184   0.98103   0.00000  Uiso   1.00
C206   C     0.14214   0.33795   0.93237   0.00000  Uiso   1.00
C207   C     0.19243   0.32975   0.86591   0.00000  Uiso   1.00
H208   H     0.24108   0.15404   0.01182   0.00000  Uiso   1.00
H209   H     0.15058   0.07314   0.05928   0.00000  Uiso   1.00
H210   H     0.29320   0.18377   0.08713   0.00000  Uiso   1.00
H211   H     0.29467   0.19055   0.88429   0.00000  Uiso   1.00
H212   H     0.02632   0.00658   0.11946   0.00000  Uiso   1.00
H213   H     0.32704   0.23985   0.17816   0.00000  Uiso   1.00
H214   H     0.33015   0.25416   0.75044   0.00000  Uiso   1.00
H215   H     0.05667   0.33223   0.06997   0.00000  Uiso   1.00
H216   H     0.95605   0.26111   0.12062   0.00000  Uiso   1.00
H217   H     0.09867   0.37174   0.14846   0.00000  Uiso   1.00
H218   H     0.10014   0.37852   0.94563   0.00000  Uiso   1.00
H219   H     0.86843   0.15914   0.16925   0.00000  Uiso   1.00
H220   H     0.16916   0.39242   0.22794   0.00000  Uiso   1.00
H221   H     0.17226   0.40672   0.80023   0.00000  Uiso   1.00
O222   O     0.88451   0.03286   0.17665   0.00000  Uiso   1.00
O223   O     0.27906   0.33891   0.25364   0.00000  Uiso   1.00
O224   O     0.28313   0.35768   0.69249   0.00000  Uiso   1.00
N225   N     0.00297   0.05225   0.12422   0.00000  Uiso   1.00
N226   N     0.28412   0.27034   0.17910   0.00000  Uiso   1.00
N227   N     0.28704   0.28372   0.77923   0.00000  Uiso   1.00
N228   N     0.91801   0.13434   0.15101   0.00000  Uiso   1.00
N229   N     0.19916   0.35243   0.20589   0.00000  Uiso   1.00
N230   N     0.20208   0.36581   0.80602   0.00000  Uiso   1.00
C231   C     0.91367   0.16451   0.74012   0.00000  Uiso   1.00
C232   C     0.87857   0.16007   0.81718   0.00000  Uiso   1.00
C233   C     0.89883   0.18721   0.85733   0.00000  Uiso   1.00
C234   C     0.85994   0.17769   0.92683   0.00000  Uiso   1.00
C235   C     0.81410   0.17620   0.04219   0.00000  Uiso   1.00
C236   C     0.85408   0.19270   0.71939   0.00000  Uiso   1.00
C237   C     0.85376   0.24728   0.67731   0.00000  Uiso   1.00
C238   C     0.79425   0.26523   0.66448   0.00000  Uiso   1.00
C239   C     0.71041   0.31439   0.62798   0.00000  Uiso   1.00
C240   C     0.93633   0.09610   0.71944   0.00000  Uiso   1.00
C241   C     0.00517   0.06946   0.67738   0.00000  Uiso   1.00
C242   C     0.01491   0.00608   0.66458   0.00000  Uiso   1.00
C243   C     0.05878   0.90525   0.62815   0.00000  Uiso   1.00
C244   C     0.80856   0.09934   0.79214   0.00000  Uiso   1.00
C245   C     0.82147   0.12467   0.84544   0.00000  Uiso   1.00
C246   C     0.78254   0.11511   0.91489   0.00000  Uiso   1.00
C247   C     0.80275   0.14223   0.95514   0.00000  Uiso   1.00
C248   C     0.79698   0.15731   0.74765   0.00000  Uiso   1.00
C249   C     0.73747   0.17518   0.73487   0.00000  Uiso   1.00
C250   C     0.73706   0.22977   0.69279   0.00000  Uiso   1.00
C251   C     0.87924   0.06071   0.74770   0.00000  Uiso   1.00
C252   C     0.88887   0.99736   0.73495   0.00000  Uiso   1.00
C253   C     0.95771   0.97062   0.69289   0.00000  Uiso   1.00
H254   H     0.95812   0.19207   0.71812   0.00000  Uiso   1.00
H255   H     0.94302   0.21460   0.83544   0.00000  Uiso   1.00
H256   H     0.89795   0.27466   0.65545   0.00000  Uiso   1.00
H257   H     0.04934   0.09686   0.65552   0.00000  Uiso   1.00
H258   H     0.90108   0.22399   0.97799   0.00000  Uiso   1.00
H259   H     0.80607   0.35061   0.59843   0.00000  Uiso   1.00
H260   H     0.12530   0.97570   0.59859   0.00000  Uiso   1.00
H261   H     0.76411   0.07179   0.81414   0.00000  Uiso   1.00
H262   H     0.73836   0.08772   0.93675   0.00000  Uiso   1.00
H263   H     0.69330   0.14778   0.75675   0.00000  Uiso   1.00
H264   H     0.84468   0.96998   0.75682   0.00000  Uiso   1.00
H265   H     0.73497   0.12101   0.06021   0.00000  Uiso   1.00
H266   H     0.63996   0.24764   0.68065   0.00000  Uiso   1.00
H267   H     0.95919   0.87272   0.68081   0.00000  Uiso   1.00
O268   O     0.80457   0.18517   0.09801   0.00000  Uiso   1.00
O269   O     0.67993   0.35129   0.60004   0.00000  Uiso   1.00
O270   O     0.09875   0.85941   0.60026   0.00000  Uiso   1.00
N271   N     0.86553   0.19756   0.98051   0.00000  Uiso   1.00
N272   N     0.77670   0.31595   0.62566   0.00000  Uiso   1.00
N273   N     0.07514   0.96544   0.62579   0.00000  Uiso   1.00
N274   N     0.77615   0.14214   0.02475   0.00000  Uiso   1.00
N275   N     0.68731   0.26054   0.66990   0.00000  Uiso   1.00
N276   N     0.98576   0.91003   0.67003   0.00000  Uiso   1.00
C277   C     0.56960   0.72606   0.59347   0.00000  Uiso   1.00
C278   C     0.58322   0.74219   0.51992   0.00000  Uiso   1.00
C279   C     0.61417   0.79392   0.47933   0.00000  Uiso   1.00
C280   C     0.62200   0.80034   0.41343   0.00000  Uiso   1.00
C281   C     0.64658   0.83204   0.30293   0.00000  Uiso   1.00
C282   C     0.60764   0.65847   0.59653   0.00000  Uiso   1.00
C283   C     0.65911   0.63981   0.62035   0.00000  Uiso   1.00
C284   C     0.68748   0.57575   0.61894   0.00000  Uiso   1.00
C285   C     0.74994   0.47745   0.62742   0.00000  Uiso   1.00
C286   C     0.48975   0.72228   0.63321   0.00000  Uiso   1.00
C287   C     0.44210   0.75726   0.68790   0.00000  Uiso   1.00
C288   C     0.37122   0.74692   0.71738   0.00000  Uiso   1.00
C289   C     0.25063   0.74770   0.78281   0.00000  Uiso   1.00
C290   C     0.52846   0.64547   0.54861   0.00000  Uiso   1.00
C291   C     0.56088   0.69841   0.49556   0.00000  Uiso   1.00
C292   C     0.56865   0.70476   0.42970   0.00000  Uiso   1.00
C293   C     0.59961   0.75649   0.38902   0.00000  Uiso   1.00
C294   C     0.58529   0.61470   0.57216   0.00000  Uiso   1.00
C295   C     0.61359   0.55065   0.57072   0.00000  Uiso   1.00
C296   C     0.66510   0.53190   0.59454   0.00000  Uiso   1.00
C297   C     0.46740   0.67851   0.60885   0.00000  Uiso   1.00
C298   C     0.39658   0.66810   0.63826   0.00000  Uiso   1.00
C299   C     0.34883   0.70306   0.69297   0.00000  Uiso   1.00
H300   H     0.58700   0.76013   0.61244   0.00000  Uiso   1.00
H301   H     0.63147   0.82779   0.49821   0.00000  Uiso   1.00
H302   H     0.67639   0.67369   0.63921   0.00000  Uiso   1.00
H303   H     0.45941   0.79113   0.70674   0.00000  Uiso   1.00
H304   H     0.67094   0.88347   0.36081   0.00000  Uiso   1.00
H305   H     0.76564   0.55856   0.65814   0.00000  Uiso   1.00
H306   H     0.30810   0.80620   0.80054   0.00000  Uiso   1.00
H307   H     0.51106   0.61139   0.52964   0.00000  Uiso   1.00
H308   H     0.55135   0.67088   0.41086   0.00000  Uiso   1.00
H309   H     0.59628   0.51679   0.55187   0.00000  Uiso   1.00
H310   H     0.37930   0.63422   0.61939   0.00000  Uiso   1.00
H311   H     0.60592   0.75612   0.28991   0.00000  Uiso   1.00
H312   H     0.70062   0.43121   0.58725   0.00000  Uiso   1.00
H313   H     0.24308   0.67885   0.72964   0.00000  Uiso   1.00
O314   O     0.66633   0.86160   0.24871   0.00000  Uiso   1.00
O315   O     0.79057   0.43533   0.63882   0.00000  Uiso   1.00
O316   O     0.19029   0.76023   0.82563   0.00000  Uiso   1.00
N317   N     0.65009   0.84534   0.36043   0.00000  Uiso   1.00
N318   N     0.73864   0.54157   0.63841   0.00000  Uiso   1.00
N319   N     0.31088   0.77308   0.77155   0.00000  Uiso   1.00
N320   N     0.61510   0.77682   0.32228   0.00000  Uiso   1.00
N321   N     0.70366   0.47304   0.60026   0.00000  Uiso   1.00
N322   N     0.27590   0.70455   0.73340   0.00000  Uiso   1.00
C323   C     0.26024   0.19666   0.52056   0.00000  Uiso   1.00
C324   C     0.32974   0.16408   0.46725   0.00000  Uiso   1.00
C325   C     0.37383   0.11208   0.47937   0.00000  Uiso   1.00
C326   C     0.43502   0.08925   0.42381   0.00000  Uiso   1.00
C327   C     0.54041   0.03434   0.35096   0.00000  Uiso   1.00
C328   C     0.20259   0.19497   0.49808   0.00000  Uiso   1.00
C329   C     0.13976   0.16896   0.53614   0.00000  Uiso   1.00
C330   C     0.09391   0.17214   0.50654   0.00000  Uiso   1.00
C331   C     0.00186   0.16523   0.48159   0.00000  Uiso   1.00
C332   C     0.26915   0.26652   0.51395   0.00000  Uiso   1.00
C333   C     0.26227   0.30067   0.56536   0.00000  Uiso   1.00
C334   C     0.27244   0.36410   0.54912   0.00000  Uiso   1.00
C335   C     0.28375   0.46828   0.54881   0.00000  Uiso   1.00
C336   C     0.29053   0.24858   0.40034   0.00000  Uiso   1.00
C337   C     0.34619   0.19227   0.40195   0.00000  Uiso   1.00
C338   C     0.40733   0.16952   0.34636   0.00000  Uiso   1.00
C339   C     0.45150   0.11750   0.35839   0.00000  Uiso   1.00
C340   C     0.21903   0.22316   0.43279   0.00000  Uiso   1.00
C341   C     0.17326   0.22639   0.40313   0.00000  Uiso   1.00
C342   C     0.11038   0.20039   0.44112   0.00000  Uiso   1.00
C343   C     0.28560   0.29471   0.44866   0.00000  Uiso   1.00
C344   C     0.29578   0.35810   0.43234   0.00000  Uiso   1.00
C345   C     0.28892   0.39235   0.48371   0.00000  Uiso   1.00
H346   H     0.24743   0.17471   0.57140   0.00000  Uiso   1.00
H347   H     0.36108   0.09027   0.52991   0.00000  Uiso   1.00
H348   H     0.12704   0.14715   0.58667   0.00000  Uiso   1.00
H349   H     0.24954   0.27884   0.61588   0.00000  Uiso   1.00
H350   H     0.49431   0.00907   0.45511   0.00000  Uiso   1.00
H351   H     0.00082   0.12901   0.57481   0.00000  Uiso   1.00
H352   H     0.25913   0.40671   0.63641   0.00000  Uiso   1.00
H353   H     0.30333   0.27053   0.34950   0.00000  Uiso   1.00
H354   H     0.42005   0.19134   0.29583   0.00000  Uiso   1.00
H355   H     0.18600   0.24822   0.35260   0.00000  Uiso   1.00
H356   H     0.30850   0.37991   0.38181   0.00000  Uiso   1.00
H357   H     0.54217   0.09110   0.26512   0.00000  Uiso   1.00
H358   H     0.04867   0.21105   0.38482   0.00000  Uiso   1.00
H359   H     0.30699   0.48874   0.44642   0.00000  Uiso   1.00
O360   O     0.59400   0.99626   0.32882   0.00000  Uiso   1.00
O361   O     0.94655   0.15363   0.48586   0.00000  Uiso   1.00
O362   O     0.28545   0.51796   0.56668   0.00000  Uiso   1.00
N363   N     0.48957   0.03925   0.41776   0.00000  Uiso   1.00
N364   N     0.02818   0.15138   0.52967   0.00000  Uiso   1.00
N365   N     0.26966   0.41101   0.58727   0.00000  Uiso   1.00
N366   N     0.51532   0.08340   0.31553   0.00000  Uiso   1.00
N367   N     0.05394   0.19552   0.42744   0.00000  Uiso   1.00
N368   N     0.29542   0.45515   0.48504   0.00000  Uiso   1.00
C369   C     0.68897   0.21999   0.46950   0.00000  Uiso   1.00
C370   C     0.70172   0.18769   0.40763   0.00000  Uiso   1.00
C371   C     0.65359   0.19277   0.38029   0.00000  Uiso   1.00
C372   C     0.67536   0.15955   0.32357   0.00000  Uiso   1.00
C373   C     0.68491   0.11505   0.23179   0.00000  Uiso   1.00
C374   C     0.75007   0.25885   0.44636   0.00000  Uiso   1.00
C375   C     0.74259   0.32377   0.45159   0.00000  Uiso   1.00
C376   C     0.80508   0.35044   0.42747   0.00000  Uiso   1.00
C377   C     0.88969   0.41641   0.39586   0.00000  Uiso   1.00
C378   C     0.70026   0.16680   0.51879   0.00000  Uiso   1.00
C379   C     0.65091   0.15432   0.58494   0.00000  Uiso   1.00
C380   C     0.67146   0.10350   0.62182   0.00000  Uiso   1.00
C381   C     0.67874   0.02654   0.70268   0.00000  Uiso   1.00
C382   C     0.81322   0.15195   0.41738   0.00000  Uiso   1.00
C383   C     0.76921   0.15074   0.37932   0.00000  Uiso   1.00
C384   C     0.79106   0.11749   0.32263   0.00000  Uiso   1.00
C385   C     0.74297   0.12252   0.29521   0.00000  Uiso   1.00
C386   C     0.81756   0.22190   0.41805   0.00000  Uiso   1.00
C387   C     0.88007   0.24849   0.39393   0.00000  Uiso   1.00
C388   C     0.87269   0.31342   0.39911   0.00000  Uiso   1.00
C389   C     0.76775   0.12984   0.49049   0.00000  Uiso   1.00
C390   C     0.78839   0.07904   0.52727   0.00000  Uiso   1.00
C391   C     0.73908   0.06648   0.59346   0.00000  Uiso   1.00
H392   H     0.63642   0.24877   0.49154   0.00000  Uiso   1.00
H393   H     0.60136   0.22138   0.40221   0.00000  Uiso   1.00
H394   H     0.69036   0.35235   0.47350   0.00000  Uiso   1.00
H395   H     0.59869   0.18293   0.60683   0.00000  Uiso   1.00
H396   H     0.59227   0.17475   0.29067   0.00000  Uiso   1.00
H397   H     0.77992   0.45090   0.44102   0.00000  Uiso   1.00
H398   H     0.58661   0.09364   0.72217   0.00000  Uiso   1.00
H399   H     0.86577   0.12318   0.39534   0.00000  Uiso   1.00
H400   H     0.84330   0.08890   0.30073   0.00000  Uiso   1.00
H401   H     0.93229   0.21987   0.37203   0.00000  Uiso   1.00
H402   H     0.84062   0.05045   0.50535   0.00000  Uiso   1.00
H403   H     0.78863   0.06722   0.20831   0.00000  Uiso   1.00
H404   H     0.97628   0.34337   0.35866   0.00000  Uiso   1.00
H405   H     0.78298   0.98611   0.63980   0.00000  Uiso   1.00
O406   O     0.67154   0.10072   0.18897   0.00000  Uiso   1.00
O407   O     0.91772   0.46301   0.38624   0.00000  Uiso   1.00
O408   O     0.66411   0.99430   0.75509   0.00000  Uiso   1.00
N409   N     0.64156   0.15413   0.28428   0.00000  Uiso   1.00
N410   N     0.81700   0.41232   0.42483   0.00000  Uiso   1.00
N411   N     0.63629   0.07832   0.68769   0.00000  Uiso   1.00
N412   N     0.74722   0.09627   0.23996   0.00000  Uiso   1.00
N413   N     0.92266   0.35446   0.38052   0.00000  Uiso   1.00
N414   N     0.74195   0.02046   0.64337   0.00000  Uiso   1.00
C415   C     0.97373   0.37691   0.87873   0.00000  Uiso   1.00
C416   C     0.01744   0.31077   0.86546   0.00000  Uiso   1.00
C417   C     0.02745   0.26655   0.91372   0.00000  Uiso   1.00
C418   C     0.06926   0.20875   0.89141   0.00000  Uiso   1.00
C419   C     0.13249   0.10806   0.88117   0.00000  Uiso   1.00
C420   C     0.02440   0.42355   0.83229   0.00000  Uiso   1.00
C421   C     0.04025   0.47415   0.85265   0.00000  Uiso   1.00
C422   C     0.08792   0.51128   0.80242   0.00000  Uiso   1.00
C423   C     0.16191   0.58570   0.74067   0.00000  Uiso   1.00
C424   C     0.91806   0.37994   0.85248   0.00000  Uiso   1.00
C425   C     0.84451   0.39390   0.88981   0.00000  Uiso   1.00
C426   C     0.80265   0.39433   0.85657   0.00000  Uiso   1.00
C427   C     0.71154   0.40105   0.82618   0.00000  Uiso   1.00
C428   C     0.03019   0.35289   0.75331   0.00000  Uiso   1.00
C429   C     0.04810   0.29773   0.79734   0.00000  Uiso   1.00
C430   C     0.08991   0.23998   0.77496   0.00000  Uiso   1.00
C431   C     0.09998   0.19568   0.82317   0.00000  Uiso   1.00
C432   C     0.05506   0.41051   0.76417   0.00000  Uiso   1.00
C433   C     0.10272   0.44758   0.71390   0.00000  Uiso   1.00
C434   C     0.11864   0.49822   0.73417   0.00000  Uiso   1.00
C435   C     0.94873   0.36690   0.78436   0.00000  Uiso   1.00
C436   C     0.90697   0.36732   0.75106   0.00000  Uiso   1.00
C437   C     0.83337   0.38127   0.78833   0.00000  Uiso   1.00
H438   H     0.94986   0.38707   0.93176   0.00000  Uiso   1.00
H439   H     0.00371   0.27666   0.96643   0.00000  Uiso   1.00
H440   H     0.01651   0.48423   0.90537   0.00000  Uiso   1.00
H441   H     0.82080   0.40399   0.94253   0.00000  Uiso   1.00
H442   H     0.07696   0.14852   0.97482   0.00000  Uiso   1.00
H443   H     0.10393   0.58620   0.84607   0.00000  Uiso   1.00
H444   H     0.69123   0.41700   0.92442   0.00000  Uiso   1.00
H445   H     0.05407   0.34274   0.70028   0.00000  Uiso   1.00
H446   H     0.11363   0.22990   0.72224   0.00000  Uiso   1.00
H447   H     0.12643   0.43747   0.66119   0.00000  Uiso   1.00
H448   H     0.93072   0.35723   0.69834   0.00000  Uiso   1.00
H449   H     0.16618   0.11057   0.77663   0.00000  Uiso   1.00
H450   H     0.19314   0.54826   0.64788   0.00000  Uiso   1.00
H451   H     0.78045   0.37904   0.72624   0.00000  Uiso   1.00
O452   O     0.15890   0.05612   0.89434   0.00000  Uiso   1.00
O453   O     0.19426   0.63035   0.72544   0.00000  Uiso   1.00
O454   O     0.65281   0.40835   0.82823   0.00000  Uiso   1.00
N455   N     0.08977   0.15507   0.92516   0.00000  Uiso   1.00
N456   N     0.11499   0.56427   0.80479   0.00000  Uiso   1.00
N457   N     0.72915   0.40609   0.87804   0.00000  Uiso   1.00
N458   N     0.13778   0.13465   0.81852   0.00000  Uiso   1.00
N459   N     0.16300   0.54385   0.69815   0.00000  Uiso   1.00
N460   N     0.77716   0.38567   0.77140   0.00000  Uiso   1.00
C461   C     0.85196   0.90330   0.90620   0.00000  Uiso   1.00
C462   C     0.92898   0.91661   0.86603   0.00000  Uiso   1.00
C463   C     0.95124   0.97592   0.85277   0.00000  Uiso   1.00
C464   C     0.02405   0.97811   0.81509   0.00000  Uiso   1.00
C465   C     0.13623   0.00717   0.75626   0.00000  Uiso   1.00
C466   C     0.83667   0.86959   0.85963   0.00000  Uiso   1.00
C467   C     0.78131   0.88935   0.84101   0.00000  Uiso   1.00
C468   C     0.77640   0.85195   0.79795   0.00000  Uiso   1.00
C469   C     0.74523   0.80799   0.72924   0.00000  Uiso   1.00
C470   C     0.85170   0.85410   0.96324   0.00000  Uiso   1.00
C471   C     0.80897   0.86083   0.03173   0.00000  Uiso   1.00
C472   C     0.81672   0.81037   0.07590   0.00000  Uiso   1.00
C473   C     0.80890   0.74235   0.16805   0.00000  Uiso   1.00
C474   C     0.94167   0.80173   0.86286   0.00000  Uiso   1.00
C475   C     0.97771   0.86144   0.84248   0.00000  Uiso   1.00
C476   C     0.05051   0.86354   0.80482   0.00000  Uiso   1.00
C477   C     0.07287   0.92284   0.79151   0.00000  Uiso   1.00
C478   C     0.88539   0.81442   0.83609   0.00000  Uiso   1.00
C479   C     0.88057   0.77698   0.79306   0.00000  Uiso   1.00
C480   C     0.82522   0.79668   0.77437   0.00000  Uiso   1.00
C481   C     0.90044   0.79893   0.93970   0.00000  Uiso   1.00
C482   C     0.90824   0.74845   0.98378   0.00000  Uiso   1.00
C483   C     0.86554   0.75510   0.05232   0.00000  Uiso   1.00
H484   H     0.81402   0.94625   0.92453   0.00000  Uiso   1.00
H485   H     0.91351   0.01860   0.87099   0.00000  Uiso   1.00
H486   H     0.74360   0.93205   0.85924   0.00000  Uiso   1.00
H487   H     0.77127   0.90353   0.04993   0.00000  Uiso   1.00
H488   H     0.04531   0.07449   0.80123   0.00000  Uiso   1.00
H489   H     0.68703   0.89197   0.77647   0.00000  Uiso   1.00
H490   H     0.74537   0.83183   0.17858   0.00000  Uiso   1.00
H491   H     0.97961   0.75878   0.84453   0.00000  Uiso   1.00
H492   H     0.08820   0.82084   0.78661   0.00000  Uiso   1.00
H493   H     0.91829   0.73429   0.77485   0.00000  Uiso   1.00
H494   H     0.94596   0.70576   0.96554   0.00000  Uiso   1.00
H495   H     0.18710   0.91398   0.73274   0.00000  Uiso   1.00
H496   H     0.82881   0.73146   0.70798   0.00000  Uiso   1.00
H497   H     0.88715   0.67132   0.11009   0.00000  Uiso   1.00
O498   O     0.18465   0.03845   0.73030   0.00000  Uiso   1.00
O499   O     0.71458   0.79899   0.69783   0.00000  Uiso   1.00
O500   O     0.79113   0.72008   0.22539   0.00000  Uiso   1.00
N501   N     0.06378   0.02819   0.79307   0.00000  Uiso   1.00
N502   N     0.72881   0.85756   0.76991   0.00000  Uiso   1.00
N503   N     0.78334   0.80132   0.14585   0.00000  Uiso   1.00
N504   N     0.14007   0.94182   0.75622   0.00000  Uiso   1.00
N505   N     0.80511   0.77119   0.73306   0.00000  Uiso   1.00
N506   N     0.85963   0.71495   0.10900   0.00000  Uiso   1.00
C507   C     0.09583   0.92758   0.21443   0.00000  Uiso   1.00
C508   C     0.15226   0.91150   0.14357   0.00000  Uiso   1.00
C509   C     0.13884   0.89815   0.09171   0.00000  Uiso   1.00
C510   C     0.19776   0.88457   0.03061   0.00000  Uiso   1.00
C511   C     0.27477   0.85959   0.92194   0.00000  Uiso   1.00
C512   C     0.11535   0.87917   0.26299   0.00000  Uiso   1.00
C513   C     0.07088   0.83866   0.31155   0.00000  Uiso   1.00
C514   C     0.09872   0.79787   0.35099   0.00000  Uiso   1.00
C515   C     0.11840   0.72274   0.42776   0.00000  Uiso   1.00
C516   C     0.10795   0.99179   0.22555   0.00000  Uiso   1.00
C517   C     0.05726   0.04597   0.24266   0.00000  Uiso   1.00
C518   C     0.07887   0.09999   0.25059   0.00000  Uiso   1.00
C519   C     0.08707   0.19972   0.26924   0.00000  Uiso   1.00
C520   C     0.22434   0.92718   0.19813   0.00000  Uiso   1.00
C521   C     0.22206   0.91127   0.13472   0.00000  Uiso   1.00
C522   C     0.28102   0.89771   0.07368   0.00000  Uiso   1.00
C523   C     0.26769   0.88435   0.02174   0.00000  Uiso   1.00
C524   C     0.18515   0.87895   0.25414   0.00000  Uiso   1.00
C525   C     0.21306   0.83821   0.29352   0.00000  Uiso   1.00
C526   C     0.16865   0.79765   0.34212   0.00000  Uiso   1.00
C527   C     0.17775   0.99157   0.21670   0.00000  Uiso   1.00
C528   C     0.19945   0.04552   0.22462   0.00000  Uiso   1.00
C529   C     0.14880   0.09977   0.24172   0.00000  Uiso   1.00
H530   H     0.04149   0.92775   0.22132   0.00000  Uiso   1.00
H531   H     0.08481   0.89832   0.09859   0.00000  Uiso   1.00
H532   H     0.01686   0.83884   0.31840   0.00000  Uiso   1.00
H533   H     0.00325   0.04612   0.24951   0.00000  Uiso   1.00
H534   H     0.16363   0.86558   0.95861   0.00000  Uiso   1.00
H535   H     0.02035   0.74018   0.42211   0.00000  Uiso   1.00
H536   H     0.99164   0.17726   0.27685   0.00000  Uiso   1.00
H537   H     0.27869   0.92701   0.19123   0.00000  Uiso   1.00
H538   H     0.33503   0.89754   0.06684   0.00000  Uiso   1.00
H539   H     0.26708   0.83806   0.28665   0.00000  Uiso   1.00
H540   H     0.25347   0.04533   0.21776   0.00000  Uiso   1.00
H541   H     0.36672   0.86494   0.93285   0.00000  Uiso   1.00
H542   H     0.22343   0.73954   0.39635   0.00000  Uiso   1.00
H543   H     0.19472   0.17662   0.25108   0.00000  Uiso   1.00
O544   O     0.29796   0.84587   0.86445   0.00000  Uiso   1.00
O545   O     0.10997   0.68136   0.47255   0.00000  Uiso   1.00
O546   O     0.07231   0.25480   0.28196   0.00000  Uiso   1.00
N547   N     0.20370   0.86949   0.96961   0.00000  Uiso   1.00
N548   N     0.06973   0.75223   0.40295   0.00000  Uiso   1.00
N549   N     0.04289   0.16087   0.26716   0.00000  Uiso   1.00
N550   N     0.31298   0.86914   0.95575   0.00000  Uiso   1.00
N551   N     0.17901   0.75189   0.38909   0.00000  Uiso   1.00
N552   N     0.15217   0.16052   0.25329   0.00000  Uiso   1.00
