data_job_06339
_audit_creation_date              2018-12-19
_audit_creation_method            'Materials Studio'
_symmetry_space_group_name_H-M    'P1'
_symmetry_Int_Tables_number       1
_symmetry_cell_setting            triclinic
loop_
_symmetry_equiv_pos_as_xyz
  x,y,z
_cell_length_a                    17.3712
_cell_length_b                    16.3913
_cell_length_c                    16.0414
_cell_angle_alpha                 92.1069
_cell_angle_beta                  91.1663
_cell_angle_gamma                 91.6632
loop_
_atom_site_label
_atom_site_type_symbol
_atom_site_fract_x
_atom_site_fract_y
_atom_site_fract_z
_atom_site_U_iso_or_equiv
_atom_site_adp_type
_atom_site_occupancy
C1     C     0.96487   0.48755   0.79122   0.00000  Uiso   1.00
C2     C     0.03200   0.43905   0.75792   0.00000  Uiso   1.00
C3     C     0.04400   0.35696   0.77009   0.00000  Uiso   1.00
C4     C     0.10886   0.32387   0.73454   0.00000  Uiso   1.00
C5     C     0.20536   0.24135   0.68987   0.00000  Uiso   1.00
C6     C     0.00078   0.55975   0.84229   0.00000  Uiso   1.00
C7     C     0.98651   0.57915   0.92538   0.00000  Uiso   1.00
C8     C     0.02508   0.64768   0.96084   0.00000  Uiso   1.00
C9     C     0.07306   0.75259   0.04713   0.00000  Uiso   1.00
C10    C     0.92615   0.52363   0.71538   0.00000  Uiso   1.00
C11    C     0.84913   0.51268   0.69177   0.00000  Uiso   1.00
C12    C     0.82485   0.55082   0.62039   0.00000  Uiso   1.00
C13    C     0.75696   0.59965   0.50963   0.00000  Uiso   1.00
C14    C     0.05871   0.57476   0.70645   0.00000  Uiso   1.00
C15    C     0.08297   0.48641   0.71188   0.00000  Uiso   1.00
C16    C     0.14783   0.45344   0.67629   0.00000  Uiso   1.00
C17    C     0.15992   0.37131   0.68840   0.00000  Uiso   1.00
C18    C     0.05175   0.60711   0.79624   0.00000  Uiso   1.00
C19    C     0.09033   0.67563   0.83159   0.00000  Uiso   1.00
C20    C     0.07614   0.69513   0.91471   0.00000  Uiso   1.00
C21    C     0.97712   0.57099   0.66933   0.00000  Uiso   1.00
C22    C     0.95296   0.60916   0.59798   0.00000  Uiso   1.00
C23    C     0.87592   0.59827   0.57426   0.00000  Uiso   1.00
H24    H     0.92519   0.45068   0.82708   0.00000  Uiso   1.00
H25    H     0.00455   0.32033   0.80574   0.00000  Uiso   1.00
H26    H     0.94706   0.54249   0.96100   0.00000  Uiso   1.00
H27    H     0.80970   0.47603   0.72742   0.00000  Uiso   1.00
H28    H     0.11502   0.19670   0.76179   0.00000  Uiso   1.00
H29    H     0.99379   0.66516   0.08916   0.00000  Uiso   1.00
H30    H     0.70414   0.52501   0.59662   0.00000  Uiso   1.00
H31    H     0.09840   0.61164   0.67060   0.00000  Uiso   1.00
H32    H     0.18726   0.49011   0.64067   0.00000  Uiso   1.00
H33    H     0.12977   0.71227   0.79593   0.00000  Uiso   1.00
H34    H     0.99241   0.64581   0.56236   0.00000  Uiso   1.00
H35    H     0.26332   0.33450   0.62782   0.00000  Uiso   1.00
H36    H     0.14208   0.80296   0.95519   0.00000  Uiso   1.00
H37    H     0.85244   0.66281   0.46265   0.00000  Uiso   1.00
O38    O     0.24452   0.18276   0.67796   0.00000  Uiso   1.00
O39    O     0.08545   0.79736   0.10745   0.00000  Uiso   1.00
O40    O     0.70544   0.61349   0.46125   0.00000  Uiso   1.00
N41    N     0.13772   0.24580   0.73435   0.00000  Uiso   1.00
N42    N     0.02438   0.68378   0.04043   0.00000  Uiso   1.00
N43    N     0.75358   0.55277   0.57996   0.00000  Uiso   1.00
N44    N     0.21752   0.31995   0.66226   0.00000  Uiso   1.00
N45    N     0.10418   0.75793   0.96834   0.00000  Uiso   1.00
N46    N     0.83338   0.62692   0.50787   0.00000  Uiso   1.00
C47    C     0.78859   0.95772   0.48482   0.00000  Uiso   1.00
C48    C     0.75904   0.02925   0.43647   0.00000  Uiso   1.00
C49    C     0.77041   0.04190   0.35249   0.00000  Uiso   1.00
C50    C     0.73876   0.11103   0.31991   0.00000  Uiso   1.00
C51    C     0.69922   0.21383   0.23728   0.00000  Uiso   1.00
C52    C     0.83642   0.99528   0.55802   0.00000  Uiso   1.00
C53    C     0.91284   0.97934   0.57624   0.00000  Uiso   1.00
C54    C     0.94632   0.01987   0.64599   0.00000  Uiso   1.00
C55    C     0.02690   0.06988   0.75211   0.00000  Uiso   1.00
C56    C     0.71794   0.91737   0.52267   0.00000  Uiso   1.00
C57    C     0.69475   0.83592   0.51119   0.00000  Uiso   1.00
C58    C     0.62848   0.81085   0.55119   0.00000  Uiso   1.00
C59    C     0.52510   0.73990   0.60242   0.00000  Uiso   1.00
C60    C     0.71215   0.05801   0.57630   0.00000  Uiso   1.00
C61    C     0.71752   0.08373   0.48616   0.00000  Uiso   1.00
C62    C     0.68584   0.15286   0.45370   0.00000  Uiso   1.00
C63    C     0.69716   0.16560   0.36968   0.00000  Uiso   1.00
C64    C     0.79490   0.04975   0.60771   0.00000  Uiso   1.00
C65    C     0.82827   0.09030   0.67745   0.00000  Uiso   1.00
C66    C     0.90473   0.07444   0.69577   0.00000  Uiso   1.00
C67    C     0.67641   0.97184   0.57236   0.00000  Uiso   1.00
C68    C     0.61017   0.94689   0.61239   0.00000  Uiso   1.00
C69    C     0.58689   0.86542   0.60097   0.00000  Uiso   1.00
H70    H     0.82092   0.91531   0.44614   0.00000  Uiso   1.00
H71    H     0.80255   0.99973   0.31406   0.00000  Uiso   1.00
H72    H     0.94496   0.93718   0.53778   0.00000  Uiso   1.00
H73    H     0.72689   0.79379   0.47273   0.00000  Uiso   1.00
H74    H     0.76391   0.11736   0.18953   0.00000  Uiso   1.00
H75    H     0.06417   0.98545   0.66129   0.00000  Uiso   1.00
H76    H     0.60434   0.68308   0.52412   0.00000  Uiso   1.00
H77    H     0.67983   0.10042   0.61499   0.00000  Uiso   1.00
H78    H     0.65371   0.19500   0.49216   0.00000  Uiso   1.00
H79    H     0.79612   0.13245   0.71589   0.00000  Uiso   1.00
H80    H     0.57806   0.98906   0.65084   0.00000  Uiso   1.00
H81    H     0.64311   0.27585   0.33409   0.00000  Uiso   1.00
H82    H     0.94337   0.14394   0.80585   0.00000  Uiso   1.00
H83    H     0.48354   0.84157   0.66868   0.00000  Uiso   1.00
O84    O     0.68890   0.25549   0.17798   0.00000  Uiso   1.00
O85    O     0.08282   0.08242   0.79690   0.00000  Uiso   1.00
O86    O     0.47954   0.68572   0.61694   0.00000  Uiso   1.00
N87    N     0.73904   0.14167   0.24041   0.00000  Uiso   1.00
N88    N     0.01978   0.01835   0.68146   0.00000  Uiso   1.00
N89    N     0.58988   0.73566   0.55324   0.00000  Uiso   1.00
N90    N     0.67404   0.22695   0.31819   0.00000  Uiso   1.00
N91    N     0.95477   0.10364   0.75925   0.00000  Uiso   1.00
N92    N     0.52488   0.82094   0.63103   0.00000  Uiso   1.00
C93    C     0.48987   0.78923   0.95615   0.00000  Uiso   1.00
C94    C     0.44478   0.75833   0.02982   0.00000  Uiso   1.00
C95    C     0.36751   0.77119   0.04434   0.00000  Uiso   1.00
C96    C     0.33693   0.73790   0.11526   0.00000  Uiso   1.00
C97    C     0.26006   0.69673   0.22141   0.00000  Uiso   1.00
C98    C     0.55831   0.83923   0.99367   0.00000  Uiso   1.00
C99    C     0.57649   0.92011   0.97777   0.00000  Uiso   1.00
C100   C     0.64149   0.95492   0.01826   0.00000  Uiso   1.00
C101   C     0.74091   0.03934   0.06823   0.00000  Uiso   1.00
C102   C     0.52347   0.71396   0.91359   0.00000  Uiso   1.00
C103   C     0.51238   0.68951   0.83035   0.00000  Uiso   1.00
C104   C     0.54807   0.61886   0.80341   0.00000  Uiso   1.00
C105   C     0.59340   0.50877   0.72904   0.00000  Uiso   1.00
C106   C     0.57297   0.70725   0.05630   0.00000  Uiso   1.00
C107   C     0.48992   0.71380   0.08422   0.00000  Uiso   1.00
C108   C     0.45945   0.68048   0.15514   0.00000  Uiso   1.00
C109   C     0.38215   0.69329   0.16975   0.00000  Uiso   1.00
C110   C     0.60344   0.79470   0.04806   0.00000  Uiso   1.00
C111   C     0.66843   0.82941   0.08858   0.00000  Uiso   1.00
C112   C     0.68671   0.91032   0.07275   0.00000  Uiso   1.00
C113   C     0.56861   0.66942   0.96798   0.00000  Uiso   1.00
C114   C     0.60432   0.59881   0.94116   0.00000  Uiso   1.00
C115   C     0.59329   0.57426   0.85790   0.00000  Uiso   1.00
H116   H     0.45473   0.82390   0.91380   0.00000  Uiso   1.00
H117   H     0.33260   0.80566   0.00223   0.00000  Uiso   1.00
H118   H     0.54155   0.95455   0.93567   0.00000  Uiso   1.00
H119   H     0.47745   0.72399   0.78828   0.00000  Uiso   1.00
H120   H     0.21710   0.76582   0.12427   0.00000  Uiso   1.00
H121   H     0.65771   0.07976   0.98391   0.00000  Uiso   1.00
H122   H     0.52254   0.59358   0.67310   0.00000  Uiso   1.00
H123   H     0.60812   0.67258   0.09865   0.00000  Uiso   1.00
H124   H     0.49440   0.64603   0.19722   0.00000  Uiso   1.00
H125   H     0.70335   0.79493   0.13066   0.00000  Uiso   1.00
H126   H     0.63925   0.56436   0.98327   0.00000  Uiso   1.00
H127   H     0.34843   0.63626   0.28254   0.00000  Uiso   1.00
H128   H     0.78904   0.95020   0.14217   0.00000  Uiso   1.00
H129   H     0.65387   0.46402   0.83137   0.00000  Uiso   1.00
O130   O     0.20520   0.68633   0.26493   0.00000  Uiso   1.00
O131   O     0.78327   0.09820   0.08076   0.00000  Uiso   1.00
O132   O     0.60592   0.46034   0.67300   0.00000  Uiso   1.00
N133   N     0.26361   0.73896   0.14798   0.00000  Uiso   1.00
N134   N     0.67555   0.03248   0.01676   0.00000  Uiso   1.00
N135   N     0.54919   0.57795   0.72618   0.00000  Uiso   1.00
N136   N     0.33428   0.66924   0.23314   0.00000  Uiso   1.00
N137   N     0.74621   0.96276   0.10192   0.00000  Uiso   1.00
N138   N     0.61986   0.50823   0.81134   0.00000  Uiso   1.00
C139   C     0.03513   0.51244   0.20878   0.00000  Uiso   1.00
C140   C     0.96800   0.56095   0.24208   0.00000  Uiso   1.00
C141   C     0.95600   0.64304   0.22991   0.00000  Uiso   1.00
C142   C     0.89114   0.67613   0.26546   0.00000  Uiso   1.00
C143   C     0.79464   0.75865   0.31013   0.00000  Uiso   1.00
C144   C     0.99922   0.44025   0.15771   0.00000  Uiso   1.00
C145   C     0.01349   0.42085   0.07462   0.00000  Uiso   1.00
C146   C     0.97492   0.35232   0.03916   0.00000  Uiso   1.00
C147   C     0.92694   0.24741   0.95287   0.00000  Uiso   1.00
C148   C     0.07385   0.47637   0.28462   0.00000  Uiso   1.00
C149   C     0.15087   0.48732   0.30823   0.00000  Uiso   1.00
C150   C     0.17515   0.44918   0.37961   0.00000  Uiso   1.00
C151   C     0.24304   0.40035   0.49037   0.00000  Uiso   1.00
C152   C     0.94129   0.42524   0.29355   0.00000  Uiso   1.00
C153   C     0.91703   0.51359   0.28812   0.00000  Uiso   1.00
C154   C     0.85217   0.54656   0.32371   0.00000  Uiso   1.00
C155   C     0.84008   0.62869   0.31160   0.00000  Uiso   1.00
C156   C     0.94825   0.39289   0.20376   0.00000  Uiso   1.00
C157   C     0.90966   0.32437   0.16841   0.00000  Uiso   1.00
C158   C     0.92386   0.30487   0.08529   0.00000  Uiso   1.00
C159   C     0.02288   0.42901   0.33067   0.00000  Uiso   1.00
C160   C     0.04704   0.39084   0.40202   0.00000  Uiso   1.00
C161   C     0.12408   0.40173   0.42574   0.00000  Uiso   1.00
H162   H     0.07481   0.54932   0.17292   0.00000  Uiso   1.00
H163   H     0.99545   0.67967   0.19426   0.00000  Uiso   1.00
H164   H     0.05294   0.45751   0.03900   0.00000  Uiso   1.00
H165   H     0.19030   0.52397   0.27258   0.00000  Uiso   1.00
H166   H     0.88498   0.80330   0.23821   0.00000  Uiso   1.00
H167   H     0.00621   0.33484   0.91084   0.00000  Uiso   1.00
H168   H     0.29586   0.47499   0.40338   0.00000  Uiso   1.00
H169   H     0.90160   0.38836   0.32940   0.00000  Uiso   1.00
H170   H     0.81274   0.50989   0.35933   0.00000  Uiso   1.00
H171   H     0.87023   0.28773   0.20407   0.00000  Uiso   1.00
H172   H     0.00759   0.35419   0.43764   0.00000  Uiso   1.00
H173   H     0.73668   0.66550   0.37218   0.00000  Uiso   1.00
H174   H     0.85792   0.19704   0.04481   0.00000  Uiso   1.00
H175   H     0.14756   0.33719   0.53735   0.00000  Uiso   1.00
O176   O     0.75548   0.81724   0.32204   0.00000  Uiso   1.00
O177   O     0.91455   0.20264   0.89255   0.00000  Uiso   1.00
O178   O     0.29456   0.38651   0.53875   0.00000  Uiso   1.00
N179   N     0.86228   0.75420   0.26565   0.00000  Uiso   1.00
N180   N     0.97562   0.31622   0.95957   0.00000  Uiso   1.00
N181   N     0.24642   0.44723   0.42004   0.00000  Uiso   1.00
N182   N     0.78248   0.68005   0.33774   0.00000  Uiso   1.00
N183   N     0.89582   0.24207   0.03166   0.00000  Uiso   1.00
N184   N     0.16662   0.37308   0.49213   0.00000  Uiso   1.00
C185   C     0.21141   0.04228   0.51518   0.00000  Uiso   1.00
C186   C     0.24096   0.97075   0.56353   0.00000  Uiso   1.00
C187   C     0.22959   0.95810   0.64751   0.00000  Uiso   1.00
C188   C     0.26124   0.88897   0.68009   0.00000  Uiso   1.00
C189   C     0.30078   0.78617   0.76272   0.00000  Uiso   1.00
C190   C     0.16358   0.00472   0.44198   0.00000  Uiso   1.00
C191   C     0.08716   0.02066   0.42376   0.00000  Uiso   1.00
C192   C     0.05368   0.98013   0.35401   0.00000  Uiso   1.00
C193   C     0.97310   0.93012   0.24789   0.00000  Uiso   1.00
C194   C     0.28206   0.08263   0.47733   0.00000  Uiso   1.00
C195   C     0.30525   0.16408   0.48881   0.00000  Uiso   1.00
C196   C     0.37152   0.18915   0.44881   0.00000  Uiso   1.00
C197   C     0.47490   0.26010   0.39758   0.00000  Uiso   1.00
C198   C     0.28785   0.94199   0.42370   0.00000  Uiso   1.00
C199   C     0.28248   0.91627   0.51384   0.00000  Uiso   1.00
C200   C     0.31416   0.84714   0.54630   0.00000  Uiso   1.00
C201   C     0.30284   0.83440   0.63032   0.00000  Uiso   1.00
C202   C     0.20510   0.95025   0.39229   0.00000  Uiso   1.00
C203   C     0.17173   0.90970   0.32255   0.00000  Uiso   1.00
C204   C     0.09527   0.92556   0.30423   0.00000  Uiso   1.00
C205   C     0.32359   0.02816   0.42764   0.00000  Uiso   1.00
C206   C     0.38983   0.05311   0.38761   0.00000  Uiso   1.00
C207   C     0.41311   0.13458   0.39903   0.00000  Uiso   1.00
H208   H     0.17908   0.08469   0.55386   0.00000  Uiso   1.00
H209   H     0.19745   0.00027   0.68594   0.00000  Uiso   1.00
H210   H     0.05504   0.06282   0.46222   0.00000  Uiso   1.00
H211   H     0.27311   0.20621   0.52727   0.00000  Uiso   1.00
H212   H     0.23609   0.88264   0.81046   0.00000  Uiso   1.00
H213   H     0.93583   0.01455   0.33871   0.00000  Uiso   1.00
H214   H     0.39566   0.31692   0.47588   0.00000  Uiso   1.00
H215   H     0.32017   0.89958   0.38501   0.00000  Uiso   1.00
H216   H     0.34629   0.80500   0.50784   0.00000  Uiso   1.00
H217   H     0.20388   0.86755   0.28411   0.00000  Uiso   1.00
H218   H     0.42194   0.01094   0.34916   0.00000  Uiso   1.00
H219   H     0.35689   0.72415   0.66591   0.00000  Uiso   1.00
H220   H     0.05663   0.85606   0.19415   0.00000  Uiso   1.00
H221   H     0.51646   0.15843   0.33132   0.00000  Uiso   1.00
O222   O     0.31110   0.74450   0.82202   0.00000  Uiso   1.00
O223   O     0.91718   0.91758   0.20310   0.00000  Uiso   1.00
O224   O     0.52046   0.31428   0.38306   0.00000  Uiso   1.00
N225   N     0.26096   0.85833   0.75959   0.00000  Uiso   1.00
N226   N     0.98022   0.98165   0.31854   0.00000  Uiso   1.00
N227   N     0.41012   0.26434   0.44676   0.00000  Uiso   1.00
N228   N     0.32596   0.77304   0.68180   0.00000  Uiso   1.00
N229   N     0.04523   0.89636   0.24075   0.00000  Uiso   1.00
N230   N     0.47512   0.17906   0.36897   0.00000  Uiso   1.00
C231   C     0.51013   0.21077   0.04385   0.00000  Uiso   1.00
C232   C     0.55522   0.24167   0.97018   0.00000  Uiso   1.00
C233   C     0.63249   0.22881   0.95566   0.00000  Uiso   1.00
C234   C     0.66307   0.26210   0.88474   0.00000  Uiso   1.00
C235   C     0.73994   0.30327   0.77859   0.00000  Uiso   1.00
C236   C     0.44169   0.16077   0.00633   0.00000  Uiso   1.00
C237   C     0.42351   0.07989   0.02223   0.00000  Uiso   1.00
C238   C     0.35851   0.04508   0.98174   0.00000  Uiso   1.00
C239   C     0.25909   0.96066   0.93177   0.00000  Uiso   1.00
C240   C     0.47653   0.28604   0.08641   0.00000  Uiso   1.00
C241   C     0.48762   0.31049   0.16965   0.00000  Uiso   1.00
C242   C     0.45193   0.38114   0.19659   0.00000  Uiso   1.00
C243   C     0.40660   0.49123   0.27096   0.00000  Uiso   1.00
C244   C     0.42703   0.29275   0.94370   0.00000  Uiso   1.00
C245   C     0.51008   0.28620   0.91578   0.00000  Uiso   1.00
C246   C     0.54055   0.31952   0.84486   0.00000  Uiso   1.00
C247   C     0.61785   0.30671   0.83025   0.00000  Uiso   1.00
C248   C     0.39656   0.20530   0.95194   0.00000  Uiso   1.00
C249   C     0.33157   0.17059   0.91142   0.00000  Uiso   1.00
C250   C     0.31329   0.08968   0.92725   0.00000  Uiso   1.00
C251   C     0.43139   0.33058   0.03202   0.00000  Uiso   1.00
C252   C     0.39568   0.40119   0.05884   0.00000  Uiso   1.00
C253   C     0.40671   0.42574   0.14210   0.00000  Uiso   1.00
H254   H     0.54527   0.17610   0.08620   0.00000  Uiso   1.00
H255   H     0.66740   0.19434   0.99777   0.00000  Uiso   1.00
H256   H     0.45845   0.04545   0.06433   0.00000  Uiso   1.00
H257   H     0.52255   0.27601   0.21172   0.00000  Uiso   1.00
H258   H     0.78290   0.23418   0.87573   0.00000  Uiso   1.00
H259   H     0.34229   0.92024   0.01609   0.00000  Uiso   1.00
H260   H     0.47746   0.40642   0.32690   0.00000  Uiso   1.00
H261   H     0.39188   0.32742   0.90135   0.00000  Uiso   1.00
H262   H     0.50560   0.35397   0.80278   0.00000  Uiso   1.00
H263   H     0.29665   0.20507   0.86934   0.00000  Uiso   1.00
H264   H     0.36075   0.43564   0.01673   0.00000  Uiso   1.00
H265   H     0.65157   0.36374   0.71746   0.00000  Uiso   1.00
H266   H     0.21096   0.04980   0.85783   0.00000  Uiso   1.00
H267   H     0.34613   0.53598   0.16863   0.00000  Uiso   1.00
O268   O     0.79480   0.31367   0.73507   0.00000  Uiso   1.00
O269   O     0.21673   0.90180   0.91923   0.00000  Uiso   1.00
O270   O     0.39408   0.53966   0.32700   0.00000  Uiso   1.00
N271   N     0.73639   0.26104   0.85201   0.00000  Uiso   1.00
N272   N     0.32445   0.96752   0.98324   0.00000  Uiso   1.00
N273   N     0.45081   0.42205   0.27382   0.00000  Uiso   1.00
N274   N     0.66572   0.33076   0.76685   0.00000  Uiso   1.00
N275   N     0.25379   0.03724   0.89808   0.00000  Uiso   1.00
N276   N     0.38014   0.49177   0.18866   0.00000  Uiso   1.00
