data_job_05404
_audit_creation_date              2018-12-19
_audit_creation_method            'Materials Studio'
_symmetry_space_group_name_H-M    'P1'
_symmetry_Int_Tables_number       1
_symmetry_cell_setting            triclinic
loop_
_symmetry_equiv_pos_as_xyz
  x,y,z
_cell_length_a                    30.4707
_cell_length_b                    11.4638
_cell_length_c                    7.1974
_cell_angle_alpha                 90.0000
_cell_angle_beta                  90.0000
_cell_angle_gamma                 90.0000
loop_
_atom_site_label
_atom_site_type_symbol
_atom_site_fract_x
_atom_site_fract_y
_atom_site_fract_z
_atom_site_U_iso_or_equiv
_atom_site_adp_type
_atom_site_occupancy
C1     C     0.88026   0.97242   0.12310   0.00000  Uiso   1.00
C2     C     0.90673   0.04253   0.26403   0.00000  Uiso   1.00
C3     C     0.93368   0.13677   0.22366   0.00000  Uiso   1.00
C4     C     0.95509   0.18916   0.37208   0.00000  Uiso   1.00
C5     C     0.99703   0.30414   0.56318   0.00000  Uiso   1.00
C6     C     0.89457   0.84582   0.14669   0.00000  Uiso   1.00
C7     C     0.91129   0.77467   0.00765   0.00000  Uiso   1.00
C8     C     0.92247   0.66147   0.05730   0.00000  Uiso   1.00
C9     C     0.94550   0.47104   0.06620   0.00000  Uiso   1.00
C10    C     0.83269   0.97782   0.18841   0.00000  Uiso   1.00
C11    C     0.79738   0.01763   0.08444   0.00000  Uiso   1.00
C12    C     0.75645   0.01553   0.16920   0.00000  Uiso   1.00
C13    C     0.68341   0.03004   0.24288   0.00000  Uiso   1.00
C14    C     0.87037   0.89787   0.45848   0.00000  Uiso   1.00
C15    C     0.90136   0.00203   0.44619   0.00000  Uiso   1.00
C16    C     0.92274   0.05429   0.59471   0.00000  Uiso   1.00
C17    C     0.94971   0.14860   0.55457   0.00000  Uiso   1.00
C18    C     0.88920   0.80533   0.32884   0.00000  Uiso   1.00
C19    C     0.90035   0.69220   0.37871   0.00000  Uiso   1.00
C20    C     0.91709   0.62090   0.23979   0.00000  Uiso   1.00
C21    C     0.82732   0.93733   0.37058   0.00000  Uiso   1.00
C22    C     0.78644   0.93516   0.45550   0.00000  Uiso   1.00
C23    C     0.75107   0.97496   0.35169   0.00000  Uiso   1.00
H24    H     0.88444   0.00394   0.98128   0.00000  Uiso   1.00
H25    H     0.93783   0.16807   0.08266   0.00000  Uiso   1.00
H26    H     0.91544   0.80603   0.86670   0.00000  Uiso   1.00
H27    H     0.80155   0.04896   0.94348   0.00000  Uiso   1.00
H28    H     0.99467   0.33217   0.27540   0.00000  Uiso   1.00
H29    H     0.94745   0.56877   0.82000   0.00000  Uiso   1.00
H30    H     0.70728   0.08102   0.98191   0.00000  Uiso   1.00
H31    H     0.86618   0.86634   0.60030   0.00000  Uiso   1.00
H32    H     0.91857   0.02294   0.73567   0.00000  Uiso   1.00
H33    H     0.89619   0.66089   0.51969   0.00000  Uiso   1.00
H34    H     0.78230   0.90382   0.59647   0.00000  Uiso   1.00
H35    H     0.97904   0.21437   0.80539   0.00000  Uiso   1.00
H36    H     0.93182   0.45097   0.34998   0.00000  Uiso   1.00
H37    H     0.69166   0.96322   0.51190   0.00000  Uiso   1.00
O38    O     0.02166   0.37874   0.61826   0.00000  Uiso   1.00
O39    O     0.95970   0.37719   0.02078   0.00000  Uiso   1.00
O40    O     0.64461   0.04925   0.23321   0.00000  Uiso   1.00
N41    N     0.98379   0.28297   0.38156   0.00000  Uiso   1.00
N42    N     0.93965   0.56924   0.95579   0.00000  Uiso   1.00
N43    N     0.71512   0.04812   0.10715   0.00000  Uiso   1.00
N44    N     0.97538   0.21958   0.66675   0.00000  Uiso   1.00
N45    N     0.93124   0.50586   0.24098   0.00000  Uiso   1.00
N46    N     0.70671   0.98474   0.39233   0.00000  Uiso   1.00
C47    C     0.11974   0.02758   0.12310   0.00000  Uiso   1.00
C48    C     0.09327   0.95747   0.26403   0.00000  Uiso   1.00
C49    C     0.06632   0.86323   0.22366   0.00000  Uiso   1.00
C50    C     0.04491   0.81084   0.37208   0.00000  Uiso   1.00
C51    C     0.00297   0.69586   0.56318   0.00000  Uiso   1.00
C52    C     0.10543   0.15418   0.14669   0.00000  Uiso   1.00
C53    C     0.08871   0.22533   0.00765   0.00000  Uiso   1.00
C54    C     0.07753   0.33853   0.05730   0.00000  Uiso   1.00
C55    C     0.05450   0.52896   0.06620   0.00000  Uiso   1.00
C56    C     0.16731   0.02218   0.18841   0.00000  Uiso   1.00
C57    C     0.20262   0.98237   0.08444   0.00000  Uiso   1.00
C58    C     0.24355   0.98447   0.16920   0.00000  Uiso   1.00
C59    C     0.31659   0.96996   0.24288   0.00000  Uiso   1.00
C60    C     0.12963   0.10213   0.45848   0.00000  Uiso   1.00
C61    C     0.09864   0.99797   0.44619   0.00000  Uiso   1.00
C62    C     0.07726   0.94571   0.59471   0.00000  Uiso   1.00
C63    C     0.05029   0.85140   0.55457   0.00000  Uiso   1.00
C64    C     0.11080   0.19467   0.32884   0.00000  Uiso   1.00
C65    C     0.09965   0.30780   0.37871   0.00000  Uiso   1.00
C66    C     0.08291   0.37910   0.23979   0.00000  Uiso   1.00
C67    C     0.17268   0.06267   0.37058   0.00000  Uiso   1.00
C68    C     0.21356   0.06484   0.45550   0.00000  Uiso   1.00
C69    C     0.24893   0.02504   0.35169   0.00000  Uiso   1.00
H70    H     0.11556   0.99606   0.98128   0.00000  Uiso   1.00
H71    H     0.06217   0.83193   0.08266   0.00000  Uiso   1.00
H72    H     0.08456   0.19397   0.86670   0.00000  Uiso   1.00
H73    H     0.19845   0.95104   0.94348   0.00000  Uiso   1.00
H74    H     0.00533   0.66783   0.27540   0.00000  Uiso   1.00
H75    H     0.05255   0.43123   0.82000   0.00000  Uiso   1.00
H76    H     0.29272   0.91898   0.98191   0.00000  Uiso   1.00
H77    H     0.13382   0.13366   0.60030   0.00000  Uiso   1.00
H78    H     0.08143   0.97706   0.73567   0.00000  Uiso   1.00
H79    H     0.10381   0.33911   0.51969   0.00000  Uiso   1.00
H80    H     0.21770   0.09618   0.59647   0.00000  Uiso   1.00
H81    H     0.02096   0.78563   0.80539   0.00000  Uiso   1.00
H82    H     0.06818   0.54903   0.34998   0.00000  Uiso   1.00
H83    H     0.30834   0.03678   0.51190   0.00000  Uiso   1.00
O84    O     0.97834   0.62126   0.61826   0.00000  Uiso   1.00
O85    O     0.04030   0.62281   0.02078   0.00000  Uiso   1.00
O86    O     0.35539   0.95075   0.23321   0.00000  Uiso   1.00
N87    N     0.01621   0.71703   0.38156   0.00000  Uiso   1.00
N88    N     0.06035   0.43076   0.95579   0.00000  Uiso   1.00
N89    N     0.28488   0.95188   0.10715   0.00000  Uiso   1.00
N90    N     0.02462   0.78042   0.66675   0.00000  Uiso   1.00
N91    N     0.06876   0.49414   0.24098   0.00000  Uiso   1.00
N92    N     0.29329   0.01526   0.39233   0.00000  Uiso   1.00
C93    C     0.38026   0.52758   0.62310   0.00000  Uiso   1.00
C94    C     0.40673   0.45747   0.76403   0.00000  Uiso   1.00
C95    C     0.43368   0.36323   0.72366   0.00000  Uiso   1.00
C96    C     0.45509   0.31084   0.87208   0.00000  Uiso   1.00
C97    C     0.49703   0.19586   0.06318   0.00000  Uiso   1.00
C98    C     0.39457   0.65418   0.64669   0.00000  Uiso   1.00
C99    C     0.41129   0.72533   0.50765   0.00000  Uiso   1.00
C100   C     0.42247   0.83853   0.55730   0.00000  Uiso   1.00
C101   C     0.44550   0.02896   0.56620   0.00000  Uiso   1.00
C102   C     0.33269   0.52218   0.68841   0.00000  Uiso   1.00
C103   C     0.29738   0.48237   0.58444   0.00000  Uiso   1.00
C104   C     0.25645   0.48447   0.66920   0.00000  Uiso   1.00
C105   C     0.18341   0.46996   0.74288   0.00000  Uiso   1.00
C106   C     0.37037   0.60213   0.95848   0.00000  Uiso   1.00
C107   C     0.40136   0.49797   0.94619   0.00000  Uiso   1.00
C108   C     0.42274   0.44571   0.09471   0.00000  Uiso   1.00
C109   C     0.44971   0.35140   0.05457   0.00000  Uiso   1.00
C110   C     0.38920   0.69467   0.82884   0.00000  Uiso   1.00
C111   C     0.40035   0.80780   0.87871   0.00000  Uiso   1.00
C112   C     0.41709   0.87910   0.73979   0.00000  Uiso   1.00
C113   C     0.32732   0.56267   0.87058   0.00000  Uiso   1.00
C114   C     0.28644   0.56484   0.95550   0.00000  Uiso   1.00
C115   C     0.25107   0.52504   0.85169   0.00000  Uiso   1.00
H116   H     0.38444   0.49606   0.48128   0.00000  Uiso   1.00
H117   H     0.43783   0.33193   0.58266   0.00000  Uiso   1.00
H118   H     0.41544   0.69397   0.36670   0.00000  Uiso   1.00
H119   H     0.30155   0.45104   0.44348   0.00000  Uiso   1.00
H120   H     0.49467   0.16783   0.77540   0.00000  Uiso   1.00
H121   H     0.44745   0.93123   0.32000   0.00000  Uiso   1.00
H122   H     0.20728   0.41898   0.48191   0.00000  Uiso   1.00
H123   H     0.36618   0.63366   0.10030   0.00000  Uiso   1.00
H124   H     0.41857   0.47706   0.23567   0.00000  Uiso   1.00
H125   H     0.39619   0.83911   0.01969   0.00000  Uiso   1.00
H126   H     0.28230   0.59618   0.09647   0.00000  Uiso   1.00
H127   H     0.47904   0.28563   0.30539   0.00000  Uiso   1.00
H128   H     0.43182   0.04903   0.84998   0.00000  Uiso   1.00
H129   H     0.19166   0.53678   0.01190   0.00000  Uiso   1.00
O130   O     0.52166   0.12126   0.11826   0.00000  Uiso   1.00
O131   O     0.45970   0.12281   0.52078   0.00000  Uiso   1.00
O132   O     0.14461   0.45075   0.73321   0.00000  Uiso   1.00
N133   N     0.48379   0.21703   0.88156   0.00000  Uiso   1.00
N134   N     0.43965   0.93076   0.45579   0.00000  Uiso   1.00
N135   N     0.21512   0.45188   0.60715   0.00000  Uiso   1.00
N136   N     0.47538   0.28042   0.16675   0.00000  Uiso   1.00
N137   N     0.43124   0.99414   0.74098   0.00000  Uiso   1.00
N138   N     0.20671   0.51526   0.89233   0.00000  Uiso   1.00
C139   C     0.61974   0.47242   0.62310   0.00000  Uiso   1.00
C140   C     0.59327   0.54253   0.76403   0.00000  Uiso   1.00
C141   C     0.56632   0.63677   0.72366   0.00000  Uiso   1.00
C142   C     0.54491   0.68916   0.87208   0.00000  Uiso   1.00
C143   C     0.50297   0.80414   0.06318   0.00000  Uiso   1.00
C144   C     0.60543   0.34582   0.64669   0.00000  Uiso   1.00
C145   C     0.58871   0.27467   0.50765   0.00000  Uiso   1.00
C146   C     0.57753   0.16147   0.55730   0.00000  Uiso   1.00
C147   C     0.55450   0.97104   0.56620   0.00000  Uiso   1.00
C148   C     0.66731   0.47782   0.68841   0.00000  Uiso   1.00
C149   C     0.70262   0.51763   0.58444   0.00000  Uiso   1.00
C150   C     0.74355   0.51553   0.66920   0.00000  Uiso   1.00
C151   C     0.81659   0.53004   0.74288   0.00000  Uiso   1.00
C152   C     0.62963   0.39787   0.95848   0.00000  Uiso   1.00
C153   C     0.59864   0.50203   0.94619   0.00000  Uiso   1.00
C154   C     0.57726   0.55429   0.09471   0.00000  Uiso   1.00
C155   C     0.55029   0.64860   0.05457   0.00000  Uiso   1.00
C156   C     0.61080   0.30533   0.82884   0.00000  Uiso   1.00
C157   C     0.59965   0.19220   0.87871   0.00000  Uiso   1.00
C158   C     0.58291   0.12090   0.73979   0.00000  Uiso   1.00
C159   C     0.67268   0.43733   0.87058   0.00000  Uiso   1.00
C160   C     0.71356   0.43516   0.95550   0.00000  Uiso   1.00
C161   C     0.74893   0.47496   0.85169   0.00000  Uiso   1.00
H162   H     0.61556   0.50394   0.48128   0.00000  Uiso   1.00
H163   H     0.56217   0.66807   0.58266   0.00000  Uiso   1.00
H164   H     0.58456   0.30603   0.36670   0.00000  Uiso   1.00
H165   H     0.69845   0.54896   0.44348   0.00000  Uiso   1.00
H166   H     0.50533   0.83217   0.77540   0.00000  Uiso   1.00
H167   H     0.55255   0.06877   0.32000   0.00000  Uiso   1.00
H168   H     0.79272   0.58102   0.48191   0.00000  Uiso   1.00
H169   H     0.63382   0.36634   0.10030   0.00000  Uiso   1.00
H170   H     0.58143   0.52294   0.23567   0.00000  Uiso   1.00
H171   H     0.60381   0.16089   0.01969   0.00000  Uiso   1.00
H172   H     0.71770   0.40382   0.09647   0.00000  Uiso   1.00
H173   H     0.52096   0.71437   0.30539   0.00000  Uiso   1.00
H174   H     0.56818   0.95097   0.84998   0.00000  Uiso   1.00
H175   H     0.80834   0.46322   0.01190   0.00000  Uiso   1.00
O176   O     0.47834   0.87874   0.11826   0.00000  Uiso   1.00
O177   O     0.54030   0.87719   0.52078   0.00000  Uiso   1.00
O178   O     0.85539   0.54925   0.73321   0.00000  Uiso   1.00
N179   N     0.51621   0.78297   0.88156   0.00000  Uiso   1.00
N180   N     0.56035   0.06924   0.45579   0.00000  Uiso   1.00
N181   N     0.78488   0.54812   0.60715   0.00000  Uiso   1.00
N182   N     0.52462   0.71958   0.16675   0.00000  Uiso   1.00
N183   N     0.56876   0.00586   0.74098   0.00000  Uiso   1.00
N184   N     0.79329   0.48474   0.89233   0.00000  Uiso   1.00
