data_job_00941
_audit_creation_date              2018-12-19
_audit_creation_method            'Materials Studio'
_symmetry_space_group_name_H-M    'P1'
_symmetry_Int_Tables_number       1
_symmetry_cell_setting            triclinic
loop_
_symmetry_equiv_pos_as_xyz
  x,y,z
_cell_length_a                    11.5469
_cell_length_b                    12.4447
_cell_length_c                    19.3511
_cell_angle_alpha                 90.0000
_cell_angle_beta                  118.5700
_cell_angle_gamma                 90.0000
loop_
_atom_site_label
_atom_site_type_symbol
_atom_site_fract_x
_atom_site_fract_y
_atom_site_fract_z
_atom_site_U_iso_or_equiv
_atom_site_adp_type
_atom_site_occupancy
C1     C     0.88061   0.20166   0.40717   0.00000  Uiso   1.00
C2     C     0.83242   0.12535   0.33717   0.00000  Uiso   1.00
C3     C     0.89812   0.03435   0.33285   0.00000  Uiso   1.00
C4     C     0.83766   0.97515   0.26368   0.00000  Uiso   1.00
C5     C     0.78141   0.85201   0.16449   0.00000  Uiso   1.00
C6     C     0.88445   0.31298   0.37540   0.00000  Uiso   1.00
C7     C     0.99388   0.37974   0.40323   0.00000  Uiso   1.00
C8     C     0.97720   0.47850   0.36625   0.00000  Uiso   1.00
C9     C     0.00169   0.64669   0.32645   0.00000  Uiso   1.00
C10    C     0.77130   0.20550   0.43004   0.00000  Uiso   1.00
C11    C     0.78561   0.18192   0.50382   0.00000  Uiso   1.00
C12    C     0.67367   0.19021   0.51285   0.00000  Uiso   1.00
C13    C     0.52249   0.19152   0.55788   0.00000  Uiso   1.00
C14    C     0.65639   0.25836   0.29203   0.00000  Uiso   1.00
C15    C     0.71064   0.15615   0.27463   0.00000  Uiso   1.00
C16    C     0.65006   0.09708   0.20546   0.00000  Uiso   1.00
C17    C     0.71566   0.00600   0.20104   0.00000  Uiso   1.00
C18    C     0.76267   0.34378   0.31286   0.00000  Uiso   1.00
C19    C     0.74582   0.44247   0.27584   0.00000  Uiso   1.00
C20    C     0.85520   0.50935   0.30360   0.00000  Uiso   1.00
C21    C     0.64951   0.23630   0.36750   0.00000  Uiso   1.00
C22    C     0.53754   0.24464   0.37643   0.00000  Uiso   1.00
C23    C     0.55167   0.22106   0.45020   0.00000  Uiso   1.00
H24    H     0.97542   0.17769   0.45586   0.00000  Uiso   1.00
H25    H     0.99238   0.01054   0.38125   0.00000  Uiso   1.00
H26    H     0.08811   0.35589   0.45163   0.00000  Uiso   1.00
H27    H     0.87987   0.15809   0.55220   0.00000  Uiso   1.00
H28    H     0.95749   0.83884   0.27095   0.00000  Uiso   1.00
H29    H     0.15934   0.56703   0.41936   0.00000  Uiso   1.00
H30    H     0.72022   0.14993   0.63143   0.00000  Uiso   1.00
H31    H     0.56157   0.28234   0.24334   0.00000  Uiso   1.00
H32    H     0.55581   0.12093   0.15707   0.00000  Uiso   1.00
H33    H     0.65156   0.46628   0.22745   0.00000  Uiso   1.00
H34    H     0.44331   0.26847   0.32802   0.00000  Uiso   1.00
H35    H     0.60317   0.92843   0.08900   0.00000  Uiso   1.00
H36    H     0.80502   0.65663   0.23741   0.00000  Uiso   1.00
H37    H     0.36590   0.23953   0.44947   0.00000  Uiso   1.00
O38    O     0.78403   0.77559   0.12705   0.00000  Uiso   1.00
O39    O     0.04885   0.73095   0.32176   0.00000  Uiso   1.00
O40    O     0.47273   0.18372   0.59999   0.00000  Uiso   1.00
N41    N     0.87488   0.88206   0.23997   0.00000  Uiso   1.00
N42    N     0.06360   0.56287   0.37872   0.00000  Uiso   1.00
N43    N     0.65307   0.17295   0.57699   0.00000  Uiso   1.00
N44    N     0.68422   0.93027   0.14206   0.00000  Uiso   1.00
N45    N     0.87294   0.61108   0.28081   0.00000  Uiso   1.00
N46    N     0.46241   0.22116   0.47908   0.00000  Uiso   1.00
C47    C     0.11939   0.70166   0.09283   0.00000  Uiso   1.00
C48    C     0.16758   0.62535   0.16283   0.00000  Uiso   1.00
C49    C     0.10188   0.53435   0.16715   0.00000  Uiso   1.00
C50    C     0.16234   0.47515   0.23632   0.00000  Uiso   1.00
C51    C     0.21859   0.35201   0.33551   0.00000  Uiso   1.00
C52    C     0.11555   0.81298   0.12460   0.00000  Uiso   1.00
C53    C     0.00612   0.87974   0.09677   0.00000  Uiso   1.00
C54    C     0.02280   0.97850   0.13375   0.00000  Uiso   1.00
C55    C     0.99831   0.14669   0.17355   0.00000  Uiso   1.00
C56    C     0.22870   0.70550   0.06996   0.00000  Uiso   1.00
C57    C     0.21439   0.68192   0.99618   0.00000  Uiso   1.00
C58    C     0.32633   0.69021   0.98715   0.00000  Uiso   1.00
C59    C     0.47751   0.69152   0.94212   0.00000  Uiso   1.00
C60    C     0.34361   0.75836   0.20797   0.00000  Uiso   1.00
C61    C     0.28936   0.65615   0.22537   0.00000  Uiso   1.00
C62    C     0.34994   0.59708   0.29454   0.00000  Uiso   1.00
C63    C     0.28434   0.50600   0.29896   0.00000  Uiso   1.00
C64    C     0.23733   0.84378   0.18714   0.00000  Uiso   1.00
C65    C     0.25418   0.94247   0.22416   0.00000  Uiso   1.00
C66    C     0.14480   0.00935   0.19640   0.00000  Uiso   1.00
C67    C     0.35049   0.73630   0.13250   0.00000  Uiso   1.00
C68    C     0.46246   0.74464   0.12357   0.00000  Uiso   1.00
C69    C     0.44833   0.72106   0.04980   0.00000  Uiso   1.00
H70    H     0.02458   0.67769   0.04414   0.00000  Uiso   1.00
H71    H     0.00762   0.51054   0.11875   0.00000  Uiso   1.00
H72    H     0.91189   0.85589   0.04837   0.00000  Uiso   1.00
H73    H     0.12013   0.65809   0.94780   0.00000  Uiso   1.00
H74    H     0.04251   0.33884   0.22905   0.00000  Uiso   1.00
H75    H     0.84066   0.06703   0.08064   0.00000  Uiso   1.00
H76    H     0.27978   0.64993   0.86857   0.00000  Uiso   1.00
H77    H     0.43843   0.78234   0.25666   0.00000  Uiso   1.00
H78    H     0.44419   0.62093   0.34293   0.00000  Uiso   1.00
H79    H     0.34844   0.96628   0.27255   0.00000  Uiso   1.00
H80    H     0.55669   0.76847   0.17198   0.00000  Uiso   1.00
H81    H     0.39683   0.42843   0.41100   0.00000  Uiso   1.00
H82    H     0.19498   0.15663   0.26259   0.00000  Uiso   1.00
H83    H     0.63410   0.73953   0.05053   0.00000  Uiso   1.00
O84    O     0.21597   0.27559   0.37295   0.00000  Uiso   1.00
O85    O     0.95115   0.23095   0.17824   0.00000  Uiso   1.00
O86    O     0.52727   0.68372   0.90001   0.00000  Uiso   1.00
N87    N     0.12512   0.38206   0.26003   0.00000  Uiso   1.00
N88    N     0.93640   0.06287   0.12128   0.00000  Uiso   1.00
N89    N     0.34693   0.67295   0.92301   0.00000  Uiso   1.00
N90    N     0.31578   0.43027   0.35794   0.00000  Uiso   1.00
N91    N     0.12706   0.11108   0.21919   0.00000  Uiso   1.00
N92    N     0.53759   0.72116   0.02092   0.00000  Uiso   1.00
C93    C     0.11939   0.79834   0.59283   0.00000  Uiso   1.00
C94    C     0.16758   0.87465   0.66283   0.00000  Uiso   1.00
C95    C     0.10188   0.96565   0.66715   0.00000  Uiso   1.00
C96    C     0.16234   0.02485   0.73632   0.00000  Uiso   1.00
C97    C     0.21859   0.14799   0.83551   0.00000  Uiso   1.00
C98    C     0.11555   0.68702   0.62460   0.00000  Uiso   1.00
C99    C     0.00612   0.62026   0.59677   0.00000  Uiso   1.00
C100   C     0.02280   0.52150   0.63375   0.00000  Uiso   1.00
C101   C     0.99831   0.35331   0.67355   0.00000  Uiso   1.00
C102   C     0.22870   0.79450   0.56996   0.00000  Uiso   1.00
C103   C     0.21439   0.81808   0.49618   0.00000  Uiso   1.00
C104   C     0.32633   0.80979   0.48715   0.00000  Uiso   1.00
C105   C     0.47751   0.80848   0.44212   0.00000  Uiso   1.00
C106   C     0.34361   0.74164   0.70797   0.00000  Uiso   1.00
C107   C     0.28936   0.84385   0.72537   0.00000  Uiso   1.00
C108   C     0.34994   0.90292   0.79454   0.00000  Uiso   1.00
C109   C     0.28434   0.99400   0.79896   0.00000  Uiso   1.00
C110   C     0.23733   0.65622   0.68714   0.00000  Uiso   1.00
C111   C     0.25418   0.55753   0.72416   0.00000  Uiso   1.00
C112   C     0.14480   0.49065   0.69640   0.00000  Uiso   1.00
C113   C     0.35049   0.76370   0.63250   0.00000  Uiso   1.00
C114   C     0.46246   0.75536   0.62357   0.00000  Uiso   1.00
C115   C     0.44833   0.77894   0.54980   0.00000  Uiso   1.00
H116   H     0.02458   0.82231   0.54414   0.00000  Uiso   1.00
H117   H     0.00762   0.98946   0.61875   0.00000  Uiso   1.00
H118   H     0.91189   0.64411   0.54837   0.00000  Uiso   1.00
H119   H     0.12013   0.84191   0.44780   0.00000  Uiso   1.00
H120   H     0.04251   0.16116   0.72905   0.00000  Uiso   1.00
H121   H     0.84066   0.43297   0.58064   0.00000  Uiso   1.00
H122   H     0.27978   0.85007   0.36857   0.00000  Uiso   1.00
H123   H     0.43843   0.71766   0.75666   0.00000  Uiso   1.00
H124   H     0.44419   0.87907   0.84293   0.00000  Uiso   1.00
H125   H     0.34844   0.53372   0.77255   0.00000  Uiso   1.00
H126   H     0.55669   0.73153   0.67198   0.00000  Uiso   1.00
H127   H     0.39683   0.07157   0.91100   0.00000  Uiso   1.00
H128   H     0.19498   0.34337   0.76259   0.00000  Uiso   1.00
H129   H     0.63410   0.76047   0.55053   0.00000  Uiso   1.00
O130   O     0.21597   0.22441   0.87295   0.00000  Uiso   1.00
O131   O     0.95115   0.26905   0.67824   0.00000  Uiso   1.00
O132   O     0.52727   0.81628   0.40001   0.00000  Uiso   1.00
N133   N     0.12512   0.11794   0.76003   0.00000  Uiso   1.00
N134   N     0.93640   0.43713   0.62128   0.00000  Uiso   1.00
N135   N     0.34693   0.82705   0.42301   0.00000  Uiso   1.00
N136   N     0.31578   0.06973   0.85794   0.00000  Uiso   1.00
N137   N     0.12706   0.38892   0.71919   0.00000  Uiso   1.00
N138   N     0.53759   0.77884   0.52092   0.00000  Uiso   1.00
C139   C     0.88061   0.29834   0.90717   0.00000  Uiso   1.00
C140   C     0.83242   0.37465   0.83717   0.00000  Uiso   1.00
C141   C     0.89812   0.46565   0.83285   0.00000  Uiso   1.00
C142   C     0.83766   0.52485   0.76368   0.00000  Uiso   1.00
C143   C     0.78141   0.64799   0.66449   0.00000  Uiso   1.00
C144   C     0.88445   0.18702   0.87540   0.00000  Uiso   1.00
C145   C     0.99388   0.12026   0.90323   0.00000  Uiso   1.00
C146   C     0.97720   0.02150   0.86625   0.00000  Uiso   1.00
C147   C     0.00169   0.85331   0.82645   0.00000  Uiso   1.00
C148   C     0.77130   0.29450   0.93004   0.00000  Uiso   1.00
C149   C     0.78561   0.31808   0.00382   0.00000  Uiso   1.00
C150   C     0.67367   0.30979   0.01285   0.00000  Uiso   1.00
C151   C     0.52249   0.30848   0.05788   0.00000  Uiso   1.00
C152   C     0.65639   0.24164   0.79203   0.00000  Uiso   1.00
C153   C     0.71064   0.34385   0.77463   0.00000  Uiso   1.00
C154   C     0.65006   0.40292   0.70546   0.00000  Uiso   1.00
C155   C     0.71566   0.49400   0.70104   0.00000  Uiso   1.00
C156   C     0.76267   0.15622   0.81286   0.00000  Uiso   1.00
C157   C     0.74582   0.05753   0.77584   0.00000  Uiso   1.00
C158   C     0.85520   0.99065   0.80360   0.00000  Uiso   1.00
C159   C     0.64951   0.26370   0.86750   0.00000  Uiso   1.00
C160   C     0.53754   0.25536   0.87643   0.00000  Uiso   1.00
C161   C     0.55167   0.27894   0.95020   0.00000  Uiso   1.00
H162   H     0.97542   0.32231   0.95586   0.00000  Uiso   1.00
H163   H     0.99238   0.48946   0.88125   0.00000  Uiso   1.00
H164   H     0.08811   0.14411   0.95163   0.00000  Uiso   1.00
H165   H     0.87987   0.34191   0.05220   0.00000  Uiso   1.00
H166   H     0.95749   0.66116   0.77095   0.00000  Uiso   1.00
H167   H     0.15934   0.93297   0.91936   0.00000  Uiso   1.00
H168   H     0.72022   0.35007   0.13143   0.00000  Uiso   1.00
H169   H     0.56157   0.21766   0.74334   0.00000  Uiso   1.00
H170   H     0.55581   0.37907   0.65707   0.00000  Uiso   1.00
H171   H     0.65156   0.03372   0.72745   0.00000  Uiso   1.00
H172   H     0.44331   0.23153   0.82802   0.00000  Uiso   1.00
H173   H     0.60317   0.57157   0.58900   0.00000  Uiso   1.00
H174   H     0.80502   0.84337   0.73741   0.00000  Uiso   1.00
H175   H     0.36590   0.26047   0.94947   0.00000  Uiso   1.00
O176   O     0.78403   0.72441   0.62705   0.00000  Uiso   1.00
O177   O     0.04885   0.76905   0.82176   0.00000  Uiso   1.00
O178   O     0.47273   0.31628   0.09999   0.00000  Uiso   1.00
N179   N     0.87488   0.61794   0.73997   0.00000  Uiso   1.00
N180   N     0.06360   0.93713   0.87872   0.00000  Uiso   1.00
N181   N     0.65307   0.32705   0.07699   0.00000  Uiso   1.00
N182   N     0.68422   0.56973   0.64206   0.00000  Uiso   1.00
N183   N     0.87294   0.88892   0.78081   0.00000  Uiso   1.00
N184   N     0.46241   0.27884   0.97908   0.00000  Uiso   1.00
