data_job_06639
_audit_creation_date              2018-12-19
_audit_creation_method            'Materials Studio'
_symmetry_space_group_name_H-M    'P1'
_symmetry_Int_Tables_number       1
_symmetry_cell_setting            triclinic
loop_
_symmetry_equiv_pos_as_xyz
  x,y,z
_cell_length_a                    19.0488
_cell_length_b                    20.7365
_cell_length_c                    21.8779
_cell_angle_alpha                 107.4024
_cell_angle_beta                  102.2950
_cell_angle_gamma                 66.1807
loop_
_atom_site_label
_atom_site_type_symbol
_atom_site_fract_x
_atom_site_fract_y
_atom_site_fract_z
_atom_site_U_iso_or_equiv
_atom_site_adp_type
_atom_site_occupancy
C1     C     0.88844   0.42419   0.54349   0.00000  Uiso   1.00
C2     C     0.90259   0.36322   0.48239   0.00000  Uiso   1.00
C3     C     0.86057   0.36703   0.42254   0.00000  Uiso   1.00
C4     C     0.88258   0.30537   0.37269   0.00000  Uiso   1.00
C5     C     0.89512   0.22030   0.27634   0.00000  Uiso   1.00
C6     C     0.87627   0.39324   0.59375   0.00000  Uiso   1.00
C7     C     0.81212   0.42229   0.62753   0.00000  Uiso   1.00
C8     C     0.81199   0.38590   0.67143   0.00000  Uiso   1.00
C9     C     0.78369   0.34745   0.74800   0.00000  Uiso   1.00
C10    C     0.96446   0.43644   0.56661   0.00000  Uiso   1.00
C11    C     0.97446   0.50181   0.57760   0.00000  Uiso   1.00
C12    C     0.04856   0.50180   0.59866   0.00000  Uiso   1.00
C13    C     0.15719   0.53043   0.63309   0.00000  Uiso   1.00
C14    C     0.00226   0.30793   0.56139   0.00000  Uiso   1.00
C15    C     0.96441   0.30007   0.49211   0.00000  Uiso   1.00
C16    C     0.98650   0.23840   0.44234   0.00000  Uiso   1.00
C17    C     0.94452   0.24211   0.38242   0.00000  Uiso   1.00
C18    C     0.93809   0.33009   0.60347   0.00000  Uiso   1.00
C19    C     0.93805   0.29365   0.64733   0.00000  Uiso   1.00
C20    C     0.87392   0.32264   0.68117   0.00000  Uiso   1.00
C21    C     0.02628   0.37329   0.57633   0.00000  Uiso   1.00
C22    C     0.10039   0.37318   0.59739   0.00000  Uiso   1.00
C23    C     0.11050   0.43854   0.60840   0.00000  Uiso   1.00
H24    H     0.84031   0.47336   0.53593   0.00000  Uiso   1.00
H25    H     0.81272   0.41591   0.41504   0.00000  Uiso   1.00
H26    H     0.76429   0.47116   0.62000   0.00000  Uiso   1.00
H27    H     0.92660   0.55067   0.57007   0.00000  Uiso   1.00
H28    H     0.80939   0.32436   0.28530   0.00000  Uiso   1.00
H29    H     0.70728   0.44087   0.71749   0.00000  Uiso   1.00
H30    H     0.04954   0.60854   0.61220   0.00000  Uiso   1.00
H31    H     0.05040   0.25876   0.56896   0.00000  Uiso   1.00
H32    H     0.03434   0.18953   0.44987   0.00000  Uiso   1.00
H33    H     0.98591   0.24479   0.65484   0.00000  Uiso   1.00
H34    H     0.14821   0.32430   0.60490   0.00000  Uiso   1.00
H35    H     0.98926   0.14062   0.31357   0.00000  Uiso   1.00
H36    H     0.88715   0.25714   0.74577   0.00000  Uiso   1.00
H37    H     0.22941   0.42480   0.64048   0.00000  Uiso   1.00
O38    O     0.88496   0.19082   0.22051   0.00000  Uiso   1.00
O39    O     0.75100   0.34369   0.78754   0.00000  Uiso   1.00
O40    O     0.20003   0.56366   0.64939   0.00000  Uiso   1.00
N41    N     0.85393   0.29062   0.30829   0.00000  Uiso   1.00
N42    N     0.75846   0.39955   0.71236   0.00000  Uiso   1.00
N43    N     0.07844   0.55631   0.61394   0.00000  Uiso   1.00
N44    N     0.95072   0.19176   0.32351   0.00000  Uiso   1.00
N45    N     0.85525   0.30068   0.72758   0.00000  Uiso   1.00
N46    N     0.17523   0.45744   0.62915   0.00000  Uiso   1.00
C47    C     0.40317   0.83391   0.57036   0.00000  Uiso   1.00
C48    C     0.41930   0.82028   0.50135   0.00000  Uiso   1.00
C49    C     0.39883   0.77206   0.44832   0.00000  Uiso   1.00
C50    C     0.41880   0.76746   0.38930   0.00000  Uiso   1.00
C51    C     0.43793   0.73984   0.28302   0.00000  Uiso   1.00
C52    C     0.48129   0.81944   0.61083   0.00000  Uiso   1.00
C53    C     0.51293   0.77052   0.64986   0.00000  Uiso   1.00
C54    C     0.58508   0.76522   0.68300   0.00000  Uiso   1.00
C55    C     0.70043   0.73635   0.74673   0.00000  Uiso   1.00
C56    C     0.35818   0.91518   0.59167   0.00000  Uiso   1.00
C57    C     0.28633   0.94677   0.61461   0.00000  Uiso   1.00
C58    C     0.25484   0.02208   0.63163   0.00000  Uiso   1.00
C59    C     0.17905   0.14186   0.66561   0.00000  Uiso   1.00
C60    C     0.47503   0.91148   0.55982   0.00000  Uiso   1.00
C61    C     0.45833   0.86240   0.49563   0.00000  Uiso   1.00
C62    C     0.47833   0.85787   0.43667   0.00000  Uiso   1.00
C63    C     0.45789   0.80966   0.38356   0.00000  Uiso   1.00
C64    C     0.52032   0.86156   0.60511   0.00000  Uiso   1.00
C65    C     0.59243   0.85634   0.63821   0.00000  Uiso   1.00
C66    C     0.62418   0.80743   0.67727   0.00000  Uiso   1.00
C67    C     0.39721   0.95731   0.58595   0.00000  Uiso   1.00
C68    C     0.36583   0.03258   0.60295   0.00000  Uiso   1.00
C69    C     0.29394   0.06428   0.62590   0.00000  Uiso   1.00
H70    H     0.37279   0.80112   0.57481   0.00000  Uiso   1.00
H71    H     0.36863   0.73946   0.45277   0.00000  Uiso   1.00
H72    H     0.48271   0.73794   0.65428   0.00000  Uiso   1.00
H73    H     0.25614   0.91415   0.61903   0.00000  Uiso   1.00
H74    H     0.38126   0.68967   0.31495   0.00000  Uiso   1.00
H75    H     0.62179   0.68646   0.73986   0.00000  Uiso   1.00
H76    H     0.14402   0.05806   0.66552   0.00000  Uiso   1.00
H77    H     0.50542   0.94428   0.55537   0.00000  Uiso   1.00
H78    H     0.50853   0.89048   0.43226   0.00000  Uiso   1.00
H79    H     0.62262   0.88895   0.63377   0.00000  Uiso   1.00
H80    H     0.39605   0.06517   0.59851   0.00000  Uiso   1.00
H81    H     0.49481   0.81224   0.29830   0.00000  Uiso   1.00
H82    H     0.73534   0.80903   0.72321   0.00000  Uiso   1.00
H83    H     0.25758   0.18062   0.64887   0.00000  Uiso   1.00
O84    O     0.43771   0.71297   0.22599   0.00000  Uiso   1.00
O85    O     0.75327   0.70877   0.78346   0.00000  Uiso   1.00
O86    O     0.12646   0.19629   0.68593   0.00000  Uiso   1.00
N87    N     0.40754   0.72591   0.32792   0.00000  Uiso   1.00
N88    N     0.63243   0.72290   0.72518   0.00000  Uiso   1.00
N89    N     0.18577   0.07031   0.65569   0.00000  Uiso   1.00
N90    N     0.46864   0.79187   0.31896   0.00000  Uiso   1.00
N91    N     0.69353   0.78886   0.71622   0.00000  Uiso   1.00
N92    N     0.24687   0.13626   0.64674   0.00000  Uiso   1.00
C93    C     0.55825   0.32916   0.53033   0.00000  Uiso   1.00
C94    C     0.49646   0.34165   0.47342   0.00000  Uiso   1.00
C95    C     0.50984   0.32898   0.41019   0.00000  Uiso   1.00
C96    C     0.44557   0.34385   0.36516   0.00000  Uiso   1.00
C97    C     0.36103   0.35923   0.27411   0.00000  Uiso   1.00
C98    C     0.53931   0.40162   0.58013   0.00000  Uiso   1.00
C99    C     0.58873   0.43937   0.60664   0.00000  Uiso   1.00
C100   C     0.56053   0.50472   0.65145   0.00000  Uiso   1.00
C101   C     0.54253   0.61319   0.72612   0.00000  Uiso   1.00
C102   C     0.54445   0.27776   0.55969   0.00000  Uiso   1.00
C103   C     0.59820   0.21136   0.56902   0.00000  Uiso   1.00
C104   C     0.57433   0.17244   0.59663   0.00000  Uiso   1.00
C105   C     0.56431   0.08859   0.63954   0.00000  Uiso   1.00
C106   C     0.42031   0.37811   0.56278   0.00000  Uiso   1.00
C107   C     0.42154   0.36824   0.49105   0.00000  Uiso   1.00
C108   C     0.35723   0.38313   0.44610   0.00000  Uiso   1.00
C109   C     0.37052   0.37048   0.38282   0.00000  Uiso   1.00
C110   C     0.46439   0.42821   0.59776   0.00000  Uiso   1.00
C111   C     0.43612   0.49352   0.64255   0.00000  Uiso   1.00
C112   C     0.48547   0.53136   0.66911   0.00000  Uiso   1.00
C113   C     0.46953   0.30434   0.57731   0.00000  Uiso   1.00
C114   C     0.44558   0.26552   0.60492   0.00000  Uiso   1.00
C115   C     0.49928   0.19907   0.61429   0.00000  Uiso   1.00
H116   H     0.61658   0.30847   0.51661   0.00000  Uiso   1.00
H117   H     0.56783   0.30841   0.39657   0.00000  Uiso   1.00
H118   H     0.64671   0.41878   0.59300   0.00000  Uiso   1.00
H119   H     0.65617   0.19081   0.55537   0.00000  Uiso   1.00
H120   H     0.48075   0.32009   0.27127   0.00000  Uiso   1.00
H121   H     0.64706   0.55280   0.68545   0.00000  Uiso   1.00
H122   H     0.66702   0.07208   0.60612   0.00000  Uiso   1.00
H123   H     0.36198   0.39881   0.57651   0.00000  Uiso   1.00
H124   H     0.29926   0.40370   0.45975   0.00000  Uiso   1.00
H125   H     0.37813   0.51408   0.65618   0.00000  Uiso   1.00
H126   H     0.38760   0.28611   0.61855   0.00000  Uiso   1.00
H127   H     0.26276   0.39744   0.32254   0.00000  Uiso   1.00
H128   H     0.42908   0.63015   0.73673   0.00000  Uiso   1.00
H129   H     0.44904   0.14943   0.65739   0.00000  Uiso   1.00
O130   O     0.33509   0.36038   0.21902   0.00000  Uiso   1.00
O131   O     0.55330   0.66567   0.76243   0.00000  Uiso   1.00
O132   O     0.57948   0.03499   0.65833   0.00000  Uiso   1.00
N133   N     0.43805   0.33761   0.29936   0.00000  Uiso   1.00
N134   N     0.59354   0.55518   0.68659   0.00000  Uiso   1.00
N135   N     0.61221   0.10576   0.61243   0.00000  Uiso   1.00
N136   N     0.32076   0.37923   0.32695   0.00000  Uiso   1.00
N137   N     0.47625   0.59680   0.71418   0.00000  Uiso   1.00
N138   N     0.49491   0.14738   0.64002   0.00000  Uiso   1.00
C139   C     0.90147   0.98926   0.96455   0.00000  Uiso   1.00
C140   C     0.91371   0.91515   0.91814   0.00000  Uiso   1.00
C141   C     0.92232   0.89808   0.85314   0.00000  Uiso   1.00
C142   C     0.93296   0.82720   0.81894   0.00000  Uiso   1.00
C143   C     0.95171   0.71999   0.74235   0.00000  Uiso   1.00
C144   C     0.96615   0.97674   0.01944   0.00000  Uiso   1.00
C145   C     0.01885   0.01147   0.03961   0.00000  Uiso   1.00
C146   C     0.07362   0.99245   0.09069   0.00000  Uiso   1.00
C147   C     0.17375   0.98092   0.17140   0.00000  Uiso   1.00
C148   C     0.82701   0.01043   0.99367   0.00000  Uiso   1.00
C149   C     0.76271   0.07350   0.99219   0.00000  Uiso   1.00
C150   C     0.70033   0.08284   0.02159   0.00000  Uiso   1.00
C151   C     0.58442   0.12361   0.06228   0.00000  Uiso   1.00
C152   C     0.90504   0.89373   0.01940   0.00000  Uiso   1.00
C153   C     0.91565   0.86326   0.94794   0.00000  Uiso   1.00
C154   C     0.92627   0.79238   0.91382   0.00000  Uiso   1.00
C155   C     0.93490   0.77521   0.84878   0.00000  Uiso   1.00
C156   C     0.96810   0.92485   0.04923   0.00000  Uiso   1.00
C157   C     0.02280   0.90578   0.10030   0.00000  Uiso   1.00
C158   C     0.07557   0.94046   0.12054   0.00000  Uiso   1.00
C159   C     0.82894   0.95854   0.02346   0.00000  Uiso   1.00
C160   C     0.76666   0.96779   0.05287   0.00000  Uiso   1.00
C161   C     0.70228   0.03086   0.05144   0.00000  Uiso   1.00
H162   H     0.89997   0.02966   0.94136   0.00000  Uiso   1.00
H163   H     0.92083   0.93825   0.83010   0.00000  Uiso   1.00
H164   H     0.01733   0.05163   0.01655   0.00000  Uiso   1.00
H165   H     0.76123   0.11364   0.96913   0.00000  Uiso   1.00
H166   H     0.94484   0.81401   0.71990   0.00000  Uiso   1.00
H167   H     0.14830   0.05310   0.11305   0.00000  Uiso   1.00
H168   H     0.60827   0.18386   0.01306   0.00000  Uiso   1.00
H169   H     0.90655   0.85333   0.04260   0.00000  Uiso   1.00
H170   H     0.92777   0.75224   0.93689   0.00000  Uiso   1.00
H171   H     0.02428   0.86562   0.12334   0.00000  Uiso   1.00
H172   H     0.76818   0.92763   0.07592   0.00000  Uiso   1.00
H173   H     0.95048   0.66303   0.80657   0.00000  Uiso   1.00
H174   H     0.15395   0.90213   0.19972   0.00000  Uiso   1.00
H175   H     0.61391   0.03288   0.09973   0.00000  Uiso   1.00
O176   O     0.96152   0.67520   0.69187   0.00000  Uiso   1.00
O177   O     0.22845   0.98889   0.20768   0.00000  Uiso   1.00
O178   O     0.51994   0.16043   0.07649   0.00000  Uiso   1.00
N179   N     0.94324   0.79236   0.75480   0.00000  Uiso   1.00
N180   N     0.13347   0.01588   0.12236   0.00000  Uiso   1.00
N181   N     0.62859   0.13814   0.02890   0.00000  Uiso   1.00
N182   N     0.94627   0.71112   0.80144   0.00000  Uiso   1.00
N183   N     0.13651   0.93464   0.16900   0.00000  Uiso   1.00
N184   N     0.63163   0.05690   0.07554   0.00000  Uiso   1.00
C185   C     0.11628   0.34614   0.10189   0.00000  Uiso   1.00
C186   C     0.07201   0.32198   0.03824   0.00000  Uiso   1.00
C187   C     0.10193   0.28882   0.97931   0.00000  Uiso   1.00
C188   C     0.05207   0.27088   0.92673   0.00000  Uiso   1.00
C189   C     0.99504   0.23111   0.82696   0.00000  Uiso   1.00
C190   C     0.10853   0.30820   0.14863   0.00000  Uiso   1.00
C191   C     0.16917   0.26345   0.18252   0.00000  Uiso   1.00
C192   C     0.15006   0.23392   0.22288   0.00000  Uiso   1.00
C193   C     0.14974   0.17279   0.29453   0.00000  Uiso   1.00
C194   C     0.07116   0.42681   0.12664   0.00000  Uiso   1.00
C195   C     0.10038   0.48179   0.14206   0.00000  Uiso   1.00
C196   C     0.04980   0.55212   0.16392   0.00000  Uiso   1.00
C197   C     0.99146   0.67514   0.20142   0.00000  Uiso   1.00
C198   C     0.97452   0.37326   0.11331   0.00000  Uiso   1.00
C199   C     0.99501   0.33671   0.04444   0.00000  Uiso   1.00
C200   C     0.94508   0.31882   0.99194   0.00000  Uiso   1.00
C201   C     0.97493   0.28564   0.93294   0.00000  Uiso   1.00
C202   C     0.03154   0.32293   0.15483   0.00000  Uiso   1.00
C203   C     0.01233   0.29346   0.19515   0.00000  Uiso   1.00
C204   C     0.07292   0.24868   0.22910   0.00000  Uiso   1.00
C205   C     0.99416   0.44154   0.13284   0.00000  Uiso   1.00
C206   C     0.94353   0.51179   0.15468   0.00000  Uiso   1.00
C207   C     0.97266   0.56687   0.17013   0.00000  Uiso   1.00
H208   H     0.17623   0.33467   0.09707   0.00000  Uiso   1.00
H209   H     0.16153   0.27742   0.97453   0.00000  Uiso   1.00
H210   H     0.22875   0.25207   0.17772   0.00000  Uiso   1.00
H211   H     0.15997   0.47037   0.13725   0.00000  Uiso   1.00
H212   H     0.11127   0.22043   0.84142   0.00000  Uiso   1.00
H213   H     0.25303   0.16699   0.26986   0.00000  Uiso   1.00
H214   H     0.10798   0.62732   0.18454   0.00000  Uiso   1.00
H215   H     0.91457   0.38472   0.11814   0.00000  Uiso   1.00
H216   H     0.88550   0.33023   0.99675   0.00000  Uiso   1.00
H217   H     0.95273   0.30487   0.19994   0.00000  Uiso   1.00
H218   H     0.88395   0.52317   0.15948   0.00000  Uiso   1.00
H219   H     0.88724   0.26329   0.85945   0.00000  Uiso   1.00
H220   H     0.02900   0.20985   0.28790   0.00000  Uiso   1.00
H221   H     0.88395   0.67017   0.20258   0.00000  Uiso   1.00
O222   O     0.98486   0.20509   0.77021   0.00000  Uiso   1.00
O223   O     0.17084   0.13499   0.33233   0.00000  Uiso   1.00
O224   O     0.98054   0.73892   0.22038   0.00000  Uiso   1.00
N225   N     0.06253   0.23801   0.86232   0.00000  Uiso   1.00
N226   N     0.19507   0.18804   0.26288   0.00000  Uiso   1.00
N227   N     0.05946   0.61840   0.18313   0.00000  Uiso   1.00
N228   N     0.94198   0.26107   0.87202   0.00000  Uiso   1.00
N229   N     0.07452   0.21110   0.27259   0.00000  Uiso   1.00
N230   N     0.93891   0.64146   0.19283   0.00000  Uiso   1.00
C231   C     0.40907   0.78985   0.00730   0.00000  Uiso   1.00
C232   C     0.40226   0.79757   0.93891   0.00000  Uiso   1.00
C233   C     0.34459   0.78864   0.89016   0.00000  Uiso   1.00
C234   C     0.34859   0.79805   0.83094   0.00000  Uiso   1.00
C235   C     0.32894   0.80739   0.72628   0.00000  Uiso   1.00
C236   C     0.41137   0.86146   0.05185   0.00000  Uiso   1.00
C237   C     0.36136   0.90623   0.09806   0.00000  Uiso   1.00
C238   C     0.37303   0.96941   0.13393   0.00000  Uiso   1.00
C239   C     0.36755   0.07790   0.20464   0.00000  Uiso   1.00
C240   C     0.48872   0.73286   0.01849   0.00000  Uiso   1.00
C241   C     0.50375   0.66951   0.03667   0.00000  Uiso   1.00
C242   C     0.58056   0.62443   0.04447   0.00000  Uiso   1.00
C243   C     0.69518   0.53325   0.06338   0.00000  Uiso   1.00
C244   C     0.51873   0.82244   0.98883   0.00000  Uiso   1.00
C245   C     0.46183   0.81528   0.92888   0.00000  Uiso   1.00
C246   C     0.46592   0.82470   0.86972   0.00000  Uiso   1.00
C247   C     0.40827   0.81578   0.82089   0.00000  Uiso   1.00
C248   C     0.47093   0.87916   0.04182   0.00000  Uiso   1.00
C249   C     0.48269   0.94229   0.07762   0.00000  Uiso   1.00
C250   C     0.43271   0.98715   0.12387   0.00000  Uiso   1.00
C251   C     0.54829   0.75056   0.00845   0.00000  Uiso   1.00
C252   C     0.62508   0.70557   0.01623   0.00000  Uiso   1.00
C253   C     0.64023   0.64216   0.03441   0.00000  Uiso   1.00
H254   H     0.36269   0.77607   0.01512   0.00000  Uiso   1.00
H255   H     0.29850   0.77495   0.89795   0.00000  Uiso   1.00
H256   H     0.31527   0.89251   0.10582   0.00000  Uiso   1.00
H257   H     0.45764   0.65583   0.04444   0.00000  Uiso   1.00
H258   H     0.25358   0.78154   0.76362   0.00000  Uiso   1.00
H259   H     0.28896   0.02942   0.20195   0.00000  Uiso   1.00
H260   H     0.58918   0.53032   0.07251   0.00000  Uiso   1.00
H261   H     0.56511   0.83622   0.98101   0.00000  Uiso   1.00
H262   H     0.51203   0.83840   0.86196   0.00000  Uiso   1.00
H263   H     0.52879   0.95597   0.06984   0.00000  Uiso   1.00
H264   H     0.67116   0.71928   0.00845   0.00000  Uiso   1.00
H265   H     0.42689   0.83304   0.73442   0.00000  Uiso   1.00
H266   H     0.46226   0.08092   0.17275   0.00000  Uiso   1.00
H267   H     0.76248   0.58183   0.04331   0.00000  Uiso   1.00
O268   O     0.30165   0.80766   0.67133   0.00000  Uiso   1.00
O269   O     0.34807   0.13286   0.24641   0.00000  Uiso   1.00
O270   O     0.74195   0.47806   0.07658   0.00000  Uiso   1.00
N271   N     0.30166   0.79334   0.77308   0.00000  Uiso   1.00
N272   N     0.33473   0.02510   0.18289   0.00000  Uiso   1.00
N273   N     0.61541   0.55850   0.06189   0.00000  Uiso   1.00
N274   N     0.39492   0.82106   0.75737   0.00000  Uiso   1.00
N275   N     0.42798   0.05282   0.16717   0.00000  Uiso   1.00
N276   N     0.70867   0.58621   0.04617   0.00000  Uiso   1.00
C277   C     0.25146   0.59612   0.48898   0.00000  Uiso   1.00
C278   C     0.21145   0.67845   0.50269   0.00000  Uiso   1.00
C279   C     0.20009   0.72523   0.56322   0.00000  Uiso   1.00
C280   C     0.16224   0.79875   0.56557   0.00000  Uiso   1.00
C281   C     0.10404   0.92267   0.59541   0.00000  Uiso   1.00
C282   C     0.31705   0.57721   0.44942   0.00000  Uiso   1.00
C283   C     0.39446   0.53886   0.46517   0.00000  Uiso   1.00
C284   C     0.44551   0.52715   0.42268   0.00000  Uiso   1.00
C285   C     0.55124   0.49385   0.36980   0.00000  Uiso   1.00
C286   C     0.19367   0.56517   0.44393   0.00000  Uiso   1.00
C287   C     0.16737   0.51669   0.45504   0.00000  Uiso   1.00
C288   C     0.11456   0.49482   0.40791   0.00000  Uiso   1.00
C289   C     0.02873   0.44283   0.34649   0.00000  Uiso   1.00
C290   C     0.20445   0.64349   0.38551   0.00000  Uiso   1.00
C291   C     0.18592   0.70418   0.44648   0.00000  Uiso   1.00
C292   C     0.14808   0.77765   0.44874   0.00000  Uiso   1.00
C293   C     0.13666   0.82453   0.50927   0.00000  Uiso   1.00
C294   C     0.29152   0.60294   0.39322   0.00000  Uiso   1.00
C295   C     0.34246   0.59127   0.35070   0.00000  Uiso   1.00
C296   C     0.41993   0.55292   0.36638   0.00000  Uiso   1.00
C297   C     0.16814   0.59090   0.38772   0.00000  Uiso   1.00
C298   C     0.11536   0.56910   0.34056   0.00000  Uiso   1.00
C299   C     0.08898   0.52060   0.35161   0.00000  Uiso   1.00
H300   H     0.27134   0.57609   0.53273   0.00000  Uiso   1.00
H301   H     0.21986   0.70530   0.60670   0.00000  Uiso   1.00
H302   H     0.41420   0.51895   0.50867   0.00000  Uiso   1.00
H303   H     0.18714   0.49679   0.49854   0.00000  Uiso   1.00
H304   H     0.15155   0.85991   0.66393   0.00000  Uiso   1.00
H305   H     0.56133   0.46696   0.45720   0.00000  Uiso   1.00
H306   H     0.08253   0.42021   0.43584   0.00000  Uiso   1.00
H307   H     0.18458   0.66353   0.34175   0.00000  Uiso   1.00
H308   H     0.12833   0.79754   0.40524   0.00000  Uiso   1.00
H309   H     0.32268   0.61119   0.30721   0.00000  Uiso   1.00
H310   H     0.09562   0.58903   0.29708   0.00000  Uiso   1.00
H311   H     0.07726   0.93477   0.50042   0.00000  Uiso   1.00
H312   H     0.48705   0.54182   0.29369   0.00000  Uiso   1.00
H313   H     0.00825   0.49508   0.27233   0.00000  Uiso   1.00
O314   O     0.07900   0.98392   0.62739   0.00000  Uiso   1.00
O315   O     0.61661   0.46837   0.35616   0.00000  Uiso   1.00
O316   O     0.98844   0.40705   0.32814   0.00000  Uiso   1.00
N317   N     0.14177   0.85913   0.61673   0.00000  Uiso   1.00
N318   N     0.52490   0.49176   0.42346   0.00000  Uiso   1.00
N319   N     0.07728   0.44804   0.40348   0.00000  Uiso   1.00
N320   N     0.10180   0.89942   0.52875   0.00000  Uiso   1.00
N321   N     0.48492   0.53204   0.33547   0.00000  Uiso   1.00
N322   N     0.03730   0.48833   0.31550   0.00000  Uiso   1.00
C323   C     0.91917   0.08196   0.42427   0.00000  Uiso   1.00
C324   C     0.91477   0.06960   0.48842   0.00000  Uiso   1.00
C325   C     0.93201   0.10955   0.54895   0.00000  Uiso   1.00
C326   C     0.92437   0.08971   0.60173   0.00000  Uiso   1.00
C327   C     0.92115   0.07932   0.70249   0.00000  Uiso   1.00
C328   C     0.83927   0.09350   0.38728   0.00000  Uiso   1.00
C329   C     0.79305   0.15354   0.36276   0.00000  Uiso   1.00
C330   C     0.72186   0.15382   0.33038   0.00000  Uiso   1.00
C331   C     0.60146   0.18051   0.27408   0.00000  Uiso   1.00
C332   C     0.97314   0.00997   0.38758   0.00000  Uiso   1.00
C333   C     0.03946   0.99977   0.36328   0.00000  Uiso   1.00
C334   C     0.08097   0.92972   0.33115   0.00000  Uiso   1.00
C335   C     0.16843   0.82671   0.27530   0.00000  Uiso   1.00
C336   C     0.87494   0.97569   0.41037   0.00000  Uiso   1.00
C337   C     0.89074   0.01188   0.48087   0.00000  Uiso   1.00
C338   C     0.88308   0.99198   0.53357   0.00000  Uiso   1.00
C339   C     0.90030   0.03189   0.59416   0.00000  Uiso   1.00
C340   C     0.81525   0.03578   0.37973   0.00000  Uiso   1.00
C341   C     0.74412   0.03597   0.34738   0.00000  Uiso   1.00
C342   C     0.69779   0.09599   0.32281   0.00000  Uiso   1.00
C343   C     0.94912   0.95224   0.38002   0.00000  Uiso   1.00
C344   C     0.99053   0.88220   0.34791   0.00000  Uiso   1.00
C345   C     0.05691   0.87189   0.32358   0.00000  Uiso   1.00
H346   H     0.93787   0.12690   0.43014   0.00000  Uiso   1.00
H347   H     0.95059   0.15422   0.55477   0.00000  Uiso   1.00
H348   H     0.81166   0.19820   0.36860   0.00000  Uiso   1.00
H349   H     0.05803   0.04445   0.36914   0.00000  Uiso   1.00
H350   H     0.95408   0.15907   0.68962   0.00000  Uiso   1.00
H351   H     0.66114   0.25179   0.29705   0.00000  Uiso   1.00
H352   H     0.18067   0.92758   0.29817   0.00000  Uiso   1.00
H353   H     0.85624   0.93076   0.40448   0.00000  Uiso   1.00
H354   H     0.86449   0.94731   0.52771   0.00000  Uiso   1.00
H355   H     0.72555   0.99129   0.34154   0.00000  Uiso   1.00
H356   H     0.97193   0.83754   0.34207   0.00000  Uiso   1.00
H357   H     0.88419   0.99113   0.66765   0.00000  Uiso   1.00
H358   H     0.59125   0.08385   0.27508   0.00000  Uiso   1.00
H359   H     0.11078   0.75965   0.27621   0.00000  Uiso   1.00
O360   O     0.92601   0.08954   0.76016   0.00000  Uiso   1.00
O361   O     0.54169   0.21118   0.24511   0.00000  Uiso   1.00
O362   O     0.22331   0.78583   0.24659   0.00000  Uiso   1.00
N363   N     0.93651   0.11726   0.66754   0.00000  Uiso   1.00
N364   N     0.66262   0.20396   0.30052   0.00000  Uiso   1.00
N365   N     0.14834   0.90085   0.30155   0.00000  Uiso   1.00
N366   N     0.89891   0.02690   0.65572   0.00000  Uiso   1.00
N367   N     0.62502   0.11359   0.28870   0.00000  Uiso   1.00
N368   N     0.11073   0.81049   0.28973   0.00000  Uiso   1.00
C369   C     0.70660   0.77601   0.38743   0.00000  Uiso   1.00
C370   C     0.77292   0.78574   0.43764   0.00000  Uiso   1.00
C371   C     0.76770   0.81682   0.50297   0.00000  Uiso   1.00
C372   C     0.83496   0.82070   0.54091   0.00000  Uiso   1.00
C373   C     0.92731   0.83977   0.62291   0.00000  Uiso   1.00
C374   C     0.73239   0.69519   0.35501   0.00000  Uiso   1.00
C375   C     0.69308   0.65016   0.35086   0.00000  Uiso   1.00
C376   C     0.72622   0.57782   0.31924   0.00000  Uiso   1.00
C377   C     0.75561   0.45633   0.27291   0.00000  Uiso   1.00
C378   C     0.70273   0.81394   0.33621   0.00000  Uiso   1.00
C379   C     0.63848   0.86873   0.31623   0.00000  Uiso   1.00
C380   C     0.64665   0.89636   0.26875   0.00000  Uiso   1.00
C381   C     0.62999   0.95923   0.19322   0.00000  Uiso   1.00
C382   C     0.83535   0.72762   0.33864   0.00000  Uiso   1.00
C383   C     0.84285   0.75945   0.41114   0.00000  Uiso   1.00
C384   C     0.91014   0.76329   0.44899   0.00000  Uiso   1.00
C385   C     0.90502   0.79437   0.51436   0.00000  Uiso   1.00
C386   C     0.80231   0.66891   0.32851   0.00000  Uiso   1.00
C387   C     0.83552   0.59662   0.29688   0.00000  Uiso   1.00
C388   C     0.79628   0.55149   0.29268   0.00000  Uiso   1.00
C389   C     0.77266   0.78766   0.30970   0.00000  Uiso   1.00
C390   C     0.78092   0.81520   0.26224   0.00000  Uiso   1.00
C391   C     0.71670   0.87003   0.24220   0.00000  Uiso   1.00
H392   H     0.65216   0.79647   0.40807   0.00000  Uiso   1.00
H393   H     0.71357   0.83715   0.52347   0.00000  Uiso   1.00
H394   H     0.63896   0.67052   0.37137   0.00000  Uiso   1.00
H395   H     0.58437   0.88906   0.33675   0.00000  Uiso   1.00
H396   H     0.81250   0.87064   0.63972   0.00000  Uiso   1.00
H397   H     0.65517   0.51928   0.31901   0.00000  Uiso   1.00
H398   H     0.54006   0.98012   0.24599   0.00000  Uiso   1.00
H399   H     0.88979   0.70716   0.31800   0.00000  Uiso   1.00
H400   H     0.96425   0.74294   0.42846   0.00000  Uiso   1.00
H401   H     0.88963   0.57630   0.27637   0.00000  Uiso   1.00
H402   H     0.83505   0.79484   0.24174   0.00000  Uiso   1.00
H403   H     0.01596   0.79417   0.56262   0.00000  Uiso   1.00
H404   H     0.85862   0.44281   0.24190   0.00000  Uiso   1.00
H405   H     0.74352   0.90365   0.16888   0.00000  Uiso   1.00
O406   O     0.95893   0.85753   0.67546   0.00000  Uiso   1.00
O407   O     0.75250   0.39657   0.25469   0.00000  Uiso   1.00
O408   O     0.60148   0.00118   0.15889   0.00000  Uiso   1.00
N409   N     0.85017   0.84774   0.60642   0.00000  Uiso   1.00
N410   N     0.70307   0.51924   0.30658   0.00000  Uiso   1.00
N411   N     0.59545   0.95008   0.23830   0.00000  Uiso   1.00
N412   N     0.95965   0.80660   0.56492   0.00000  Uiso   1.00
N413   N     0.81255   0.47810   0.26509   0.00000  Uiso   1.00
N414   N     0.70493   0.90893   0.19680   0.00000  Uiso   1.00
C415   C     0.37924   0.09231   0.96400   0.00000  Uiso   1.00
C416   C     0.34748   0.17492   0.97714   0.00000  Uiso   1.00
C417   C     0.35145   0.22233   0.03678   0.00000  Uiso   1.00
C418   C     0.31895   0.29601   0.03873   0.00000  Uiso   1.00
C419   C     0.27495   0.42043   0.06762   0.00000  Uiso   1.00
C420   C     0.31136   0.06870   0.93174   0.00000  Uiso   1.00
C421   C     0.28498   0.02680   0.95323   0.00000  Uiso   1.00
C422   C     0.22208   0.01105   0.91696   0.00000  Uiso   1.00
C423   C     0.12206   0.97052   0.87535   0.00000  Uiso   1.00
C424   C     0.43447   0.06521   0.91280   0.00000  Uiso   1.00
C425   C     0.51160   0.02035   0.91834   0.00000  Uiso   1.00
C426   C     0.55234   0.00165   0.86612   0.00000  Uiso   1.00
C427   C     0.64346   0.95570   0.79509   0.00000  Uiso   1.00
C428   C     0.31446   0.13885   0.86139   0.00000  Uiso   1.00
C429   C     0.31229   0.20019   0.92140   0.00000  Uiso   1.00
C430   C     0.27978   0.27382   0.92326   0.00000  Uiso   1.00
C431   C     0.28370   0.32133   0.98290   0.00000  Uiso   1.00
C432   C     0.27618   0.09398   0.87601   0.00000  Uiso   1.00
C433   C     0.21331   0.07828   0.83970   0.00000  Uiso   1.00
C434   C     0.18683   0.03637   0.86113   0.00000  Uiso   1.00
C435   C     0.39929   0.09049   0.85707   0.00000  Uiso   1.00
C436   C     0.43992   0.07184   0.80482   0.00000  Uiso   1.00
C437   C     0.51709   0.02697   0.81029   0.00000  Uiso   1.00
H438   H     0.40663   0.07263   0.00739   0.00000  Uiso   1.00
H439   H     0.37868   0.20275   0.07991   0.00000  Uiso   1.00
H440   H     0.31223   0.00724   0.99635   0.00000  Uiso   1.00
H441   H     0.53880   0.00080   0.96148   0.00000  Uiso   1.00
H442   H     0.33215   0.35816   0.13573   0.00000  Uiso   1.00
H443   H     0.19205   0.94589   0.95955   0.00000  Uiso   1.00
H444   H     0.66983   0.93231   0.88601   0.00000  Uiso   1.00
H445   H     0.28706   0.15853   0.81800   0.00000  Uiso   1.00
H446   H     0.25255   0.29337   0.88012   0.00000  Uiso   1.00
H447   H     0.18610   0.09785   0.79657   0.00000  Uiso   1.00
H448   H     0.41267   0.09142   0.76170   0.00000  Uiso   1.00
H449   H     0.22977   0.43170   0.97358   0.00000  Uiso   1.00
H450   H     0.08967   0.01943   0.79740   0.00000  Uiso   1.00
H451   H     0.56746   0.00586   0.72386   0.00000  Uiso   1.00
O452   O     0.26039   0.48208   0.09894   0.00000  Uiso   1.00
O453   O     0.07660   0.94119   0.86780   0.00000  Uiso   1.00
O454   O     0.70344   0.92338   0.77131   0.00000  Uiso   1.00
N455   N     0.31280   0.35696   0.08904   0.00000  Uiso   1.00
N456   N     0.18181   0.97153   0.92433   0.00000  Uiso   1.00
N457   N     0.62849   0.95882   0.85556   0.00000  Uiso   1.00
N458   N     0.25772   0.39654   0.00179   0.00000  Uiso   1.00
N459   N     0.12672   0.01110   0.83708   0.00000  Uiso   1.00
N460   N     0.57341   0.99839   0.76831   0.00000  Uiso   1.00
C461   C     0.14770   0.69374   0.00133   0.00000  Uiso   1.00
C462   C     0.22813   0.64390   0.02201   0.00000  Uiso   1.00
C463   C     0.27635   0.66237   0.07570   0.00000  Uiso   1.00
C464   C     0.34770   0.60910   0.08629   0.00000  Uiso   1.00
C465   C     0.46921   0.54225   0.12472   0.00000  Uiso   1.00
C466   C     0.14944   0.69555   0.93251   0.00000  Uiso   1.00
C467   C     0.13150   0.75746   0.91096   0.00000  Uiso   1.00
C468   C     0.13660   0.74766   0.84621   0.00000  Uiso   1.00
C469   C     0.13589   0.76101   0.74568   0.00000  Uiso   1.00
C470   C     0.09361   0.65442   0.99693   0.00000  Uiso   1.00
C471   C     0.02871   0.68175   0.02953   0.00000  Uiso   1.00
C472   C     0.98679   0.63733   0.01901   0.00000  Uiso   1.00
C473   C     0.89940   0.58682   0.01850   0.00000  Uiso   1.00
C474   C     0.18866   0.56628   0.92467   0.00000  Uiso   1.00
C475   C     0.25037   0.57467   0.98037   0.00000  Uiso   1.00
C476   C     0.32166   0.52135   0.99089   0.00000  Uiso   1.00
C477   C     0.36999   0.53974   0.04458   0.00000  Uiso   1.00
C478   C     0.17169   0.62632   0.89087   0.00000  Uiso   1.00
C479   C     0.17681   0.61643   0.82614   0.00000  Uiso   1.00
C480   C     0.15888   0.67831   0.80450   0.00000  Uiso   1.00
C481   C     0.11585   0.58519   0.95530   0.00000  Uiso   1.00
C482   C     0.07402   0.54072   0.94472   0.00000  Uiso   1.00
C483   C     0.00907   0.56797   0.97729   0.00000  Uiso   1.00
H484   H     0.13038   0.74764   0.03374   0.00000  Uiso   1.00
H485   H     0.25912   0.71596   0.10790   0.00000  Uiso   1.00
H486   H     0.11428   0.81103   0.94319   0.00000  Uiso   1.00
H487   H     0.01151   0.73533   0.06174   0.00000  Uiso   1.00
H488   H     0.41167   0.65031   0.17175   0.00000  Uiso   1.00
H489   H     0.10624   0.85077   0.82443   0.00000  Uiso   1.00
H490   H     0.88953   0.69114   0.07443   0.00000  Uiso   1.00
H491   H     0.20598   0.51237   0.89225   0.00000  Uiso   1.00
H492   H     0.33886   0.46778   0.95866   0.00000  Uiso   1.00
H493   H     0.19402   0.56285   0.79394   0.00000  Uiso   1.00
H494   H     0.09125   0.48715   0.91249   0.00000  Uiso   1.00
H495   H     0.47639   0.44888   0.05062   0.00000  Uiso   1.00
H496   H     0.17096   0.64934   0.70329   0.00000  Uiso   1.00
H497   H     0.95425   0.48971   0.95329   0.00000  Uiso   1.00
O498   O     0.53009   0.52451   0.15741   0.00000  Uiso   1.00
O499   O     0.12937   0.78751   0.70173   0.00000  Uiso   1.00
O500   O     0.84505   0.57808   0.02973   0.00000  Uiso   1.00
N501   N     0.40866   0.60902   0.13414   0.00000  Uiso   1.00
N502   N     0.12311   0.79644   0.80942   0.00000  Uiso   1.00
N503   N     0.92049   0.64721   0.04313   0.00000  Uiso   1.00
N504   N     0.44348   0.50063   0.06896   0.00000  Uiso   1.00
N505   N     0.15794   0.68805   0.74423   0.00000  Uiso   1.00
N506   N     0.95532   0.53882   0.97795   0.00000  Uiso   1.00
C507   C     0.64332   0.34270   0.94299   0.00000  Uiso   1.00
C508   C     0.61625   0.33604   0.00081   0.00000  Uiso   1.00
C509   C     0.64877   0.34973   0.06415   0.00000  Uiso   1.00
C510   C     0.61563   0.34049   0.11008   0.00000  Uiso   1.00
C511   C     0.58326   0.33348   0.20243   0.00000  Uiso   1.00
C512   C     0.66048   0.26885   0.89531   0.00000  Uiso   1.00
C513   C     0.73018   0.22606   0.86993   0.00000  Uiso   1.00
C514   C     0.73426   0.16027   0.82703   0.00000  Uiso   1.00
C515   C     0.77054   0.04897   0.75555   0.00000  Uiso   1.00
C516   C     0.57327   0.39527   0.91154   0.00000  Uiso   1.00
C517   C     0.56965   0.45877   0.89979   0.00000  Uiso   1.00
C518   C     0.50031   0.49941   0.87054   0.00000  Uiso   1.00
C519   C     0.40118   0.58440   0.82426   0.00000  Uiso   1.00
C520   C     0.52663   0.30194   0.91190   0.00000  Uiso   1.00
C521   C     0.55287   0.31390   0.98393   0.00000  Uiso   1.00
C522   C     0.51966   0.30464   0.02977   0.00000  Uiso   1.00
C523   C     0.55213   0.31832   0.09317   0.00000  Uiso   1.00
C524   C     0.59710   0.24671   0.87842   0.00000  Uiso   1.00
C525   C     0.60107   0.18097   0.83555   0.00000  Uiso   1.00
C526   C     0.67077   0.13809   0.81012   0.00000  Uiso   1.00
C527   C     0.50988   0.37314   0.89465   0.00000  Uiso   1.00
C528   C     0.44054   0.41368   0.86541   0.00000  Uiso   1.00
C529   C     0.43681   0.47723   0.85362   0.00000  Uiso   1.00
H530   H     0.69267   0.35993   0.95613   0.00000  Uiso   1.00
H531   H     0.69783   0.36686   0.07720   0.00000  Uiso   1.00
H532   H     0.77922   0.24321   0.88300   0.00000  Uiso   1.00
H533   H     0.61871   0.47588   0.91286   0.00000  Uiso   1.00
H534   H     0.67561   0.36475   0.20398   0.00000  Uiso   1.00
H535   H     0.84723   0.10404   0.79449   0.00000  Uiso   1.00
H536   H     0.50875   0.59468   0.85745   0.00000  Uiso   1.00
H537   H     0.47728   0.28471   0.89876   0.00000  Uiso   1.00
H538   H     0.47062   0.28751   0.01669   0.00000  Uiso   1.00
H539   H     0.55201   0.16386   0.82249   0.00000  Uiso   1.00
H540   H     0.39150   0.39653   0.85235   0.00000  Uiso   1.00
H541   H     0.49120   0.30034   0.15487   0.00000  Uiso   1.00
H542   H     0.66282   0.03964   0.74538   0.00000  Uiso   1.00
H543   H     0.32434   0.53028   0.80834   0.00000  Uiso   1.00
O544   O     0.58293   0.33572   0.25804   0.00000  Uiso   1.00
O545   O     0.80807   0.99370   0.72079   0.00000  Uiso   1.00
O546   O     0.36401   0.63740   0.80340   0.00000  Uiso   1.00
N547   N     0.63312   0.34922   0.17624   0.00000  Uiso   1.00
N548   N     0.79357   0.10547   0.79340   0.00000  Uiso   1.00
N549   N     0.47713   0.56417   0.85225   0.00000  Uiso   1.00
N550   N     0.53389   0.31456   0.14981   0.00000  Uiso   1.00
N551   N     0.69434   0.07082   0.76697   0.00000  Uiso   1.00
N552   N     0.37790   0.52951   0.82582   0.00000  Uiso   1.00
