data_job_05325
_audit_creation_date              2018-12-19
_audit_creation_method            'Materials Studio'
_symmetry_space_group_name_H-M    'P1'
_symmetry_Int_Tables_number       1
_symmetry_cell_setting            triclinic
loop_
_symmetry_equiv_pos_as_xyz
  x,y,z
_cell_length_a                    12.4186
_cell_length_b                    22.4222
_cell_length_c                    28.0643
_cell_angle_alpha                 90.0000
_cell_angle_beta                  106.7185
_cell_angle_gamma                 90.0000
loop_
_atom_site_label
_atom_site_type_symbol
_atom_site_fract_x
_atom_site_fract_y
_atom_site_fract_z
_atom_site_U_iso_or_equiv
_atom_site_adp_type
_atom_site_occupancy
C1     C     0.23205   0.65013   0.39720   0.00000  Uiso   1.00
C2     C     0.13620   0.69074   0.36920   0.00000  Uiso   1.00
C3     C     0.05599   0.71609   0.38865   0.00000  Uiso   1.00
C4     C     0.97521   0.75191   0.35701   0.00000  Uiso   1.00
C5     C     0.82642   0.81341   0.32102   0.00000  Uiso   1.00
C6     C     0.21946   0.59279   0.36686   0.00000  Uiso   1.00
C7     C     0.20928   0.53579   0.38436   0.00000  Uiso   1.00
C8     C     0.19860   0.48917   0.35075   0.00000  Uiso   1.00
C9     C     0.17916   0.39860   0.31115   0.00000  Uiso   1.00
C10    C     0.33991   0.67956   0.39334   0.00000  Uiso   1.00
C11    C     0.43102   0.69550   0.43308   0.00000  Uiso   1.00
C12    C     0.52177   0.72192   0.42177   0.00000  Uiso   1.00
C13    C     0.68934   0.76607   0.42326   0.00000  Uiso   1.00
C14    C     0.23122   0.66868   0.30643   0.00000  Uiso   1.00
C15    C     0.13575   0.70081   0.31989   0.00000  Uiso   1.00
C16    C     0.05507   0.73661   0.28822   0.00000  Uiso   1.00
C17    C     0.97476   0.76201   0.30762   0.00000  Uiso   1.00
C18    C     0.21901   0.60287   0.31756   0.00000  Uiso   1.00
C19    C     0.20836   0.55632   0.28393   0.00000  Uiso   1.00
C20    C     0.19815   0.49926   0.30136   0.00000  Uiso   1.00
C21    C     0.33946   0.68964   0.34403   0.00000  Uiso   1.00
C22    C     0.43010   0.71603   0.33265   0.00000  Uiso   1.00
C23    C     0.52132   0.73201   0.37237   0.00000  Uiso   1.00
H24    H     0.23240   0.64228   0.43559   0.00000  Uiso   1.00
H25    H     0.05636   0.70827   0.42680   0.00000  Uiso   1.00
H26    H     0.20964   0.52801   0.42251   0.00000  Uiso   1.00
H27    H     0.43134   0.68769   0.47123   0.00000  Uiso   1.00
H28    H     0.86097   0.78587   0.39532   0.00000  Uiso   1.00
H29    H     0.18420   0.40576   0.38627   0.00000  Uiso   1.00
H30    H     0.65170   0.74250   0.48901   0.00000  Uiso   1.00
H31    H     0.23087   0.67652   0.26804   0.00000  Uiso   1.00
H32    H     0.05475   0.74440   0.25007   0.00000  Uiso   1.00
H33    H     0.20802   0.56413   0.24578   0.00000  Uiso   1.00
H34    H     0.42972   0.72382   0.29449   0.00000  Uiso   1.00
H35    H     0.85965   0.81519   0.25187   0.00000  Uiso   1.00
H36    H     0.18289   0.43508   0.24283   0.00000  Uiso   1.00
H37    H     0.65039   0.77182   0.34556   0.00000  Uiso   1.00
O38    O     0.74446   0.84455   0.31479   0.00000  Uiso   1.00
O39    O     0.16854   0.34587   0.30293   0.00000  Uiso   1.00
O40    O     0.78189   0.78765   0.43771   0.00000  Uiso   1.00
N41    N     0.88485   0.78346   0.36403   0.00000  Uiso   1.00
N42    N     0.18702   0.42809   0.35557   0.00000  Uiso   1.00
N43    N     0.62411   0.74289   0.45162   0.00000  Uiso   1.00
N44    N     0.88414   0.79924   0.28684   0.00000  Uiso   1.00
N45    N     0.18632   0.44387   0.27838   0.00000  Uiso   1.00
N46    N     0.62341   0.75867   0.37443   0.00000  Uiso   1.00
C47    C     0.72919   0.09681   0.90152   0.00000  Uiso   1.00
C48    C     0.63344   0.13863   0.87557   0.00000  Uiso   1.00
C49    C     0.55272   0.16128   0.89607   0.00000  Uiso   1.00
C50    C     0.47214   0.19883   0.86629   0.00000  Uiso   1.00
C51    C     0.32339   0.26156   0.83337   0.00000  Uiso   1.00
C52    C     0.71720   0.04210   0.86811   0.00000  Uiso   1.00
C53    C     0.70693   0.98360   0.88235   0.00000  Uiso   1.00
C54    C     0.69687   0.93989   0.84629   0.00000  Uiso   1.00
C55    C     0.67826   0.85276   0.80180   0.00000  Uiso   1.00
C56    C     0.83721   0.12777   0.89963   0.00000  Uiso   1.00
C57    C     0.92786   0.14129   0.94038   0.00000  Uiso   1.00
C58    C     0.01885   0.16970   0.93086   0.00000  Uiso   1.00
C59    C     0.18657   0.21558   0.93531   0.00000  Uiso   1.00
C60    C     0.72961   0.12320   0.81215   0.00000  Uiso   1.00
C61    C     0.63367   0.15296   0.82703   0.00000  Uiso   1.00
C62    C     0.55319   0.19049   0.79720   0.00000  Uiso   1.00
C63    C     0.47237   0.21319   0.81766   0.00000  Uiso   1.00
C64    C     0.71743   0.05644   0.81957   0.00000  Uiso   1.00
C65    C     0.70740   0.01280   0.78348   0.00000  Uiso   1.00
C66    C     0.69710   0.95425   0.79766   0.00000  Uiso   1.00
C67    C     0.83744   0.14211   0.85109   0.00000  Uiso   1.00
C68    C     0.92832   0.17050   0.84151   0.00000  Uiso   1.00
C69    C     0.01908   0.18406   0.88223   0.00000  Uiso   1.00
H70    H     0.72901   0.08564   0.93931   0.00000  Uiso   1.00
H71    H     0.55257   0.15017   0.93364   0.00000  Uiso   1.00
H72    H     0.70676   0.97252   0.91992   0.00000  Uiso   1.00
H73    H     0.92765   0.13019   0.97793   0.00000  Uiso   1.00
H74    H     0.35703   0.22802   0.90594   0.00000  Uiso   1.00
H75    H     0.68219   0.85342   0.87702   0.00000  Uiso   1.00
H76    H     0.14798   0.18590   0.99936   0.00000  Uiso   1.00
H77    H     0.72979   0.13436   0.77436   0.00000  Uiso   1.00
H78    H     0.55339   0.20157   0.75964   0.00000  Uiso   1.00
H79    H     0.70758   0.02392   0.74592   0.00000  Uiso   1.00
H80    H     0.92847   0.18159   0.80394   0.00000  Uiso   1.00
H81    H     0.35769   0.26974   0.76472   0.00000  Uiso   1.00
H82    H     0.68286   0.89514   0.73580   0.00000  Uiso   1.00
H83    H     0.14864   0.22762   0.85814   0.00000  Uiso   1.00
O84    O     0.24128   0.29220   0.82862   0.00000  Uiso   1.00
O85    O     0.66791   0.80074   0.79067   0.00000  Uiso   1.00
O86    O     0.27900   0.23694   0.95118   0.00000  Uiso   1.00
N87    N     0.38140   0.22863   0.87473   0.00000  Uiso   1.00
N88    N     0.68540   0.87840   0.84768   0.00000  Uiso   1.00
N89    N     0.12088   0.18922   0.96206   0.00000  Uiso   1.00
N90    N     0.38176   0.25107   0.79874   0.00000  Uiso   1.00
N91    N     0.68576   0.90085   0.77169   0.00000  Uiso   1.00
N92    N     0.12124   0.21167   0.88607   0.00000  Uiso   1.00
C93    C     0.76795   0.15013   0.10280   0.00000  Uiso   1.00
C94    C     0.86380   0.19074   0.13080   0.00000  Uiso   1.00
C95    C     0.94401   0.21609   0.11135   0.00000  Uiso   1.00
C96    C     0.02479   0.25191   0.14299   0.00000  Uiso   1.00
C97    C     0.17358   0.31341   0.17898   0.00000  Uiso   1.00
C98    C     0.78054   0.09279   0.13314   0.00000  Uiso   1.00
C99    C     0.79072   0.03579   0.11564   0.00000  Uiso   1.00
C100   C     0.80140   0.98917   0.14925   0.00000  Uiso   1.00
C101   C     0.82084   0.89860   0.18885   0.00000  Uiso   1.00
C102   C     0.66009   0.17956   0.10666   0.00000  Uiso   1.00
C103   C     0.56898   0.19550   0.06692   0.00000  Uiso   1.00
C104   C     0.47823   0.22192   0.07823   0.00000  Uiso   1.00
C105   C     0.31066   0.26607   0.07674   0.00000  Uiso   1.00
C106   C     0.76878   0.16868   0.19357   0.00000  Uiso   1.00
C107   C     0.86425   0.20081   0.18011   0.00000  Uiso   1.00
C108   C     0.94493   0.23661   0.21178   0.00000  Uiso   1.00
C109   C     0.02524   0.26201   0.19238   0.00000  Uiso   1.00
C110   C     0.78099   0.10287   0.18244   0.00000  Uiso   1.00
C111   C     0.79164   0.05632   0.21607   0.00000  Uiso   1.00
C112   C     0.80185   0.99926   0.19864   0.00000  Uiso   1.00
C113   C     0.66054   0.18964   0.15597   0.00000  Uiso   1.00
C114   C     0.56990   0.21603   0.16735   0.00000  Uiso   1.00
C115   C     0.47868   0.23201   0.12763   0.00000  Uiso   1.00
H116   H     0.76760   0.14228   0.06441   0.00000  Uiso   1.00
H117   H     0.94364   0.20827   0.07320   0.00000  Uiso   1.00
H118   H     0.79036   0.02801   0.07749   0.00000  Uiso   1.00
H119   H     0.56866   0.18769   0.02877   0.00000  Uiso   1.00
H120   H     0.13903   0.28587   0.10468   0.00000  Uiso   1.00
H121   H     0.81580   0.90576   0.11373   0.00000  Uiso   1.00
H122   H     0.34830   0.24250   0.01099   0.00000  Uiso   1.00
H123   H     0.76913   0.17652   0.23196   0.00000  Uiso   1.00
H124   H     0.94525   0.24440   0.24993   0.00000  Uiso   1.00
H125   H     0.79198   0.06413   0.25422   0.00000  Uiso   1.00
H126   H     0.57028   0.22382   0.20551   0.00000  Uiso   1.00
H127   H     0.14035   0.31519   0.24813   0.00000  Uiso   1.00
H128   H     0.81711   0.93508   0.25717   0.00000  Uiso   1.00
H129   H     0.34961   0.27182   0.15444   0.00000  Uiso   1.00
O130   O     0.25554   0.34455   0.18521   0.00000  Uiso   1.00
O131   O     0.83146   0.84587   0.19707   0.00000  Uiso   1.00
O132   O     0.21811   0.28765   0.06229   0.00000  Uiso   1.00
N133   N     0.11515   0.28346   0.13597   0.00000  Uiso   1.00
N134   N     0.81298   0.92809   0.14443   0.00000  Uiso   1.00
N135   N     0.37589   0.24289   0.04838   0.00000  Uiso   1.00
N136   N     0.11586   0.29924   0.21316   0.00000  Uiso   1.00
N137   N     0.81368   0.94387   0.22162   0.00000  Uiso   1.00
N138   N     0.37659   0.25867   0.12557   0.00000  Uiso   1.00
C139   C     0.27081   0.59681   0.59848   0.00000  Uiso   1.00
C140   C     0.36656   0.63863   0.62443   0.00000  Uiso   1.00
C141   C     0.44728   0.66128   0.60393   0.00000  Uiso   1.00
C142   C     0.52786   0.69883   0.63371   0.00000  Uiso   1.00
C143   C     0.67661   0.76156   0.66663   0.00000  Uiso   1.00
C144   C     0.28280   0.54210   0.63189   0.00000  Uiso   1.00
C145   C     0.29307   0.48360   0.61765   0.00000  Uiso   1.00
C146   C     0.30313   0.43989   0.65371   0.00000  Uiso   1.00
C147   C     0.32174   0.35276   0.69820   0.00000  Uiso   1.00
C148   C     0.16279   0.62777   0.60037   0.00000  Uiso   1.00
C149   C     0.07214   0.64129   0.55962   0.00000  Uiso   1.00
C150   C     0.98115   0.66970   0.56914   0.00000  Uiso   1.00
C151   C     0.81343   0.71558   0.56469   0.00000  Uiso   1.00
C152   C     0.27039   0.62320   0.68785   0.00000  Uiso   1.00
C153   C     0.36633   0.65296   0.67297   0.00000  Uiso   1.00
C154   C     0.44681   0.69049   0.70280   0.00000  Uiso   1.00
C155   C     0.52763   0.71319   0.68234   0.00000  Uiso   1.00
C156   C     0.28257   0.55644   0.68043   0.00000  Uiso   1.00
C157   C     0.29260   0.51280   0.71652   0.00000  Uiso   1.00
C158   C     0.30290   0.45425   0.70234   0.00000  Uiso   1.00
C159   C     0.16256   0.64211   0.64891   0.00000  Uiso   1.00
C160   C     0.07168   0.67050   0.65849   0.00000  Uiso   1.00
C161   C     0.98092   0.68406   0.61777   0.00000  Uiso   1.00
H162   H     0.27099   0.58564   0.56069   0.00000  Uiso   1.00
H163   H     0.44743   0.65017   0.56636   0.00000  Uiso   1.00
H164   H     0.29324   0.47252   0.58008   0.00000  Uiso   1.00
H165   H     0.07235   0.63019   0.52207   0.00000  Uiso   1.00
H166   H     0.64297   0.72802   0.59406   0.00000  Uiso   1.00
H167   H     0.31781   0.35342   0.62298   0.00000  Uiso   1.00
H168   H     0.85202   0.68590   0.50064   0.00000  Uiso   1.00
H169   H     0.27021   0.63436   0.72564   0.00000  Uiso   1.00
H170   H     0.44661   0.70157   0.74036   0.00000  Uiso   1.00
H171   H     0.29242   0.52392   0.75408   0.00000  Uiso   1.00
H172   H     0.07153   0.68159   0.69606   0.00000  Uiso   1.00
H173   H     0.64231   0.76974   0.73528   0.00000  Uiso   1.00
H174   H     0.31714   0.39514   0.76420   0.00000  Uiso   1.00
H175   H     0.85136   0.72762   0.64186   0.00000  Uiso   1.00
O176   O     0.75872   0.79220   0.67138   0.00000  Uiso   1.00
O177   O     0.33209   0.30074   0.70933   0.00000  Uiso   1.00
O178   O     0.72100   0.73694   0.54882   0.00000  Uiso   1.00
N179   N     0.61860   0.72863   0.62527   0.00000  Uiso   1.00
N180   N     0.31460   0.37840   0.65232   0.00000  Uiso   1.00
N181   N     0.87912   0.68922   0.53794   0.00000  Uiso   1.00
N182   N     0.61824   0.75107   0.70126   0.00000  Uiso   1.00
N183   N     0.31424   0.40085   0.72831   0.00000  Uiso   1.00
N184   N     0.87876   0.71167   0.61393   0.00000  Uiso   1.00
C185   C     0.76795   0.34987   0.60280   0.00000  Uiso   1.00
C186   C     0.86380   0.30926   0.63080   0.00000  Uiso   1.00
C187   C     0.94401   0.28391   0.61135   0.00000  Uiso   1.00
C188   C     0.02479   0.24809   0.64299   0.00000  Uiso   1.00
C189   C     0.17358   0.18659   0.67898   0.00000  Uiso   1.00
C190   C     0.78054   0.40721   0.63314   0.00000  Uiso   1.00
C191   C     0.79072   0.46421   0.61564   0.00000  Uiso   1.00
C192   C     0.80140   0.51083   0.64925   0.00000  Uiso   1.00
C193   C     0.82084   0.60140   0.68885   0.00000  Uiso   1.00
C194   C     0.66009   0.32044   0.60666   0.00000  Uiso   1.00
C195   C     0.56898   0.30450   0.56692   0.00000  Uiso   1.00
C196   C     0.47823   0.27808   0.57823   0.00000  Uiso   1.00
C197   C     0.31066   0.23393   0.57674   0.00000  Uiso   1.00
C198   C     0.76878   0.33132   0.69357   0.00000  Uiso   1.00
C199   C     0.86425   0.29919   0.68011   0.00000  Uiso   1.00
C200   C     0.94493   0.26339   0.71178   0.00000  Uiso   1.00
C201   C     0.02524   0.23799   0.69238   0.00000  Uiso   1.00
C202   C     0.78099   0.39713   0.68244   0.00000  Uiso   1.00
C203   C     0.79164   0.44368   0.71607   0.00000  Uiso   1.00
C204   C     0.80185   0.50074   0.69864   0.00000  Uiso   1.00
C205   C     0.66054   0.31036   0.65597   0.00000  Uiso   1.00
C206   C     0.56990   0.28397   0.66735   0.00000  Uiso   1.00
C207   C     0.47868   0.26799   0.62763   0.00000  Uiso   1.00
H208   H     0.76760   0.35772   0.56441   0.00000  Uiso   1.00
H209   H     0.94364   0.29173   0.57320   0.00000  Uiso   1.00
H210   H     0.79036   0.47199   0.57749   0.00000  Uiso   1.00
H211   H     0.56866   0.31231   0.52877   0.00000  Uiso   1.00
H212   H     0.13903   0.21413   0.60468   0.00000  Uiso   1.00
H213   H     0.81580   0.59424   0.61373   0.00000  Uiso   1.00
H214   H     0.34830   0.25750   0.51099   0.00000  Uiso   1.00
H215   H     0.76913   0.32348   0.73196   0.00000  Uiso   1.00
H216   H     0.94525   0.25560   0.74993   0.00000  Uiso   1.00
H217   H     0.79198   0.43587   0.75422   0.00000  Uiso   1.00
H218   H     0.57028   0.27618   0.70551   0.00000  Uiso   1.00
H219   H     0.14035   0.18481   0.74813   0.00000  Uiso   1.00
H220   H     0.81711   0.56492   0.75717   0.00000  Uiso   1.00
H221   H     0.34961   0.22818   0.65444   0.00000  Uiso   1.00
O222   O     0.25554   0.15545   0.68521   0.00000  Uiso   1.00
O223   O     0.83146   0.65413   0.69707   0.00000  Uiso   1.00
O224   O     0.21811   0.21235   0.56229   0.00000  Uiso   1.00
N225   N     0.11515   0.21654   0.63597   0.00000  Uiso   1.00
N226   N     0.81298   0.57191   0.64443   0.00000  Uiso   1.00
N227   N     0.37589   0.25711   0.54838   0.00000  Uiso   1.00
N228   N     0.11586   0.20076   0.71316   0.00000  Uiso   1.00
N229   N     0.81368   0.55613   0.72162   0.00000  Uiso   1.00
N230   N     0.37659   0.24133   0.62557   0.00000  Uiso   1.00
C231   C     0.27081   0.90319   0.09848   0.00000  Uiso   1.00
C232   C     0.36656   0.86137   0.12443   0.00000  Uiso   1.00
C233   C     0.44728   0.83872   0.10393   0.00000  Uiso   1.00
C234   C     0.52786   0.80117   0.13371   0.00000  Uiso   1.00
C235   C     0.67661   0.73844   0.16663   0.00000  Uiso   1.00
C236   C     0.28280   0.95790   0.13189   0.00000  Uiso   1.00
C237   C     0.29307   0.01640   0.11765   0.00000  Uiso   1.00
C238   C     0.30313   0.06011   0.15371   0.00000  Uiso   1.00
C239   C     0.32174   0.14724   0.19820   0.00000  Uiso   1.00
C240   C     0.16279   0.87223   0.10037   0.00000  Uiso   1.00
C241   C     0.07214   0.85871   0.05962   0.00000  Uiso   1.00
C242   C     0.98115   0.83030   0.06914   0.00000  Uiso   1.00
C243   C     0.81343   0.78442   0.06469   0.00000  Uiso   1.00
C244   C     0.27039   0.87680   0.18785   0.00000  Uiso   1.00
C245   C     0.36633   0.84704   0.17297   0.00000  Uiso   1.00
C246   C     0.44681   0.80951   0.20280   0.00000  Uiso   1.00
C247   C     0.52763   0.78681   0.18234   0.00000  Uiso   1.00
C248   C     0.28257   0.94356   0.18043   0.00000  Uiso   1.00
C249   C     0.29260   0.98720   0.21652   0.00000  Uiso   1.00
C250   C     0.30290   0.04575   0.20234   0.00000  Uiso   1.00
C251   C     0.16256   0.85789   0.14891   0.00000  Uiso   1.00
C252   C     0.07168   0.82950   0.15849   0.00000  Uiso   1.00
C253   C     0.98092   0.81594   0.11777   0.00000  Uiso   1.00
H254   H     0.27099   0.91436   0.06069   0.00000  Uiso   1.00
H255   H     0.44743   0.84983   0.06636   0.00000  Uiso   1.00
H256   H     0.29324   0.02748   0.08008   0.00000  Uiso   1.00
H257   H     0.07235   0.86981   0.02207   0.00000  Uiso   1.00
H258   H     0.64297   0.77198   0.09406   0.00000  Uiso   1.00
H259   H     0.31781   0.14658   0.12298   0.00000  Uiso   1.00
H260   H     0.85202   0.81410   0.00064   0.00000  Uiso   1.00
H261   H     0.27021   0.86564   0.22564   0.00000  Uiso   1.00
H262   H     0.44661   0.79843   0.24036   0.00000  Uiso   1.00
H263   H     0.29242   0.97608   0.25408   0.00000  Uiso   1.00
H264   H     0.07153   0.81841   0.19606   0.00000  Uiso   1.00
H265   H     0.64231   0.73026   0.23528   0.00000  Uiso   1.00
H266   H     0.31714   0.10486   0.26420   0.00000  Uiso   1.00
H267   H     0.85136   0.77238   0.14186   0.00000  Uiso   1.00
O268   O     0.75872   0.70780   0.17138   0.00000  Uiso   1.00
O269   O     0.33209   0.19926   0.20933   0.00000  Uiso   1.00
O270   O     0.72100   0.76306   0.04882   0.00000  Uiso   1.00
N271   N     0.61860   0.77137   0.12527   0.00000  Uiso   1.00
N272   N     0.31460   0.12160   0.15232   0.00000  Uiso   1.00
N273   N     0.87912   0.81078   0.03794   0.00000  Uiso   1.00
N274   N     0.61824   0.74893   0.20126   0.00000  Uiso   1.00
N275   N     0.31424   0.09915   0.22831   0.00000  Uiso   1.00
N276   N     0.87876   0.78833   0.11393   0.00000  Uiso   1.00
C277   C     0.23205   0.84987   0.89720   0.00000  Uiso   1.00
C278   C     0.13620   0.80926   0.86920   0.00000  Uiso   1.00
C279   C     0.05599   0.78391   0.88865   0.00000  Uiso   1.00
C280   C     0.97521   0.74809   0.85701   0.00000  Uiso   1.00
C281   C     0.82642   0.68659   0.82102   0.00000  Uiso   1.00
C282   C     0.21946   0.90721   0.86686   0.00000  Uiso   1.00
C283   C     0.20928   0.96421   0.88436   0.00000  Uiso   1.00
C284   C     0.19860   0.01083   0.85075   0.00000  Uiso   1.00
C285   C     0.17916   0.10140   0.81115   0.00000  Uiso   1.00
C286   C     0.33991   0.82044   0.89334   0.00000  Uiso   1.00
C287   C     0.43102   0.80450   0.93308   0.00000  Uiso   1.00
C288   C     0.52177   0.77808   0.92177   0.00000  Uiso   1.00
C289   C     0.68934   0.73393   0.92326   0.00000  Uiso   1.00
C290   C     0.23122   0.83132   0.80643   0.00000  Uiso   1.00
C291   C     0.13575   0.79919   0.81989   0.00000  Uiso   1.00
C292   C     0.05507   0.76339   0.78822   0.00000  Uiso   1.00
C293   C     0.97476   0.73799   0.80762   0.00000  Uiso   1.00
C294   C     0.21901   0.89713   0.81756   0.00000  Uiso   1.00
C295   C     0.20836   0.94368   0.78393   0.00000  Uiso   1.00
C296   C     0.19815   0.00074   0.80136   0.00000  Uiso   1.00
C297   C     0.33946   0.81036   0.84403   0.00000  Uiso   1.00
C298   C     0.43010   0.78397   0.83265   0.00000  Uiso   1.00
C299   C     0.52132   0.76799   0.87237   0.00000  Uiso   1.00
H300   H     0.23240   0.85772   0.93559   0.00000  Uiso   1.00
H301   H     0.05636   0.79173   0.92680   0.00000  Uiso   1.00
H302   H     0.20964   0.97199   0.92251   0.00000  Uiso   1.00
H303   H     0.43134   0.81231   0.97123   0.00000  Uiso   1.00
H304   H     0.86097   0.71413   0.89532   0.00000  Uiso   1.00
H305   H     0.18420   0.09424   0.88627   0.00000  Uiso   1.00
H306   H     0.65170   0.75750   0.98901   0.00000  Uiso   1.00
H307   H     0.23087   0.82348   0.76804   0.00000  Uiso   1.00
H308   H     0.05475   0.75560   0.75007   0.00000  Uiso   1.00
H309   H     0.20802   0.93587   0.74578   0.00000  Uiso   1.00
H310   H     0.42972   0.77618   0.79449   0.00000  Uiso   1.00
H311   H     0.85965   0.68481   0.75187   0.00000  Uiso   1.00
H312   H     0.18289   0.06492   0.74283   0.00000  Uiso   1.00
H313   H     0.65039   0.72818   0.84556   0.00000  Uiso   1.00
O314   O     0.74446   0.65545   0.81479   0.00000  Uiso   1.00
O315   O     0.16854   0.15413   0.80293   0.00000  Uiso   1.00
O316   O     0.78189   0.71235   0.93771   0.00000  Uiso   1.00
N317   N     0.88485   0.71654   0.86403   0.00000  Uiso   1.00
N318   N     0.18702   0.07191   0.85557   0.00000  Uiso   1.00
N319   N     0.62411   0.75711   0.95162   0.00000  Uiso   1.00
N320   N     0.88414   0.70076   0.78684   0.00000  Uiso   1.00
N321   N     0.18632   0.05613   0.77838   0.00000  Uiso   1.00
N322   N     0.62341   0.74133   0.87443   0.00000  Uiso   1.00
C323   C     0.72919   0.40319   0.40152   0.00000  Uiso   1.00
C324   C     0.63344   0.36137   0.37557   0.00000  Uiso   1.00
C325   C     0.55272   0.33872   0.39607   0.00000  Uiso   1.00
C326   C     0.47214   0.30117   0.36629   0.00000  Uiso   1.00
C327   C     0.32339   0.23844   0.33337   0.00000  Uiso   1.00
C328   C     0.71720   0.45790   0.36811   0.00000  Uiso   1.00
C329   C     0.70693   0.51640   0.38235   0.00000  Uiso   1.00
C330   C     0.69687   0.56011   0.34629   0.00000  Uiso   1.00
C331   C     0.67826   0.64724   0.30180   0.00000  Uiso   1.00
C332   C     0.83721   0.37223   0.39963   0.00000  Uiso   1.00
C333   C     0.92786   0.35871   0.44038   0.00000  Uiso   1.00
C334   C     0.01885   0.33030   0.43086   0.00000  Uiso   1.00
C335   C     0.18657   0.28442   0.43531   0.00000  Uiso   1.00
C336   C     0.72961   0.37680   0.31215   0.00000  Uiso   1.00
C337   C     0.63367   0.34704   0.32703   0.00000  Uiso   1.00
C338   C     0.55319   0.30951   0.29720   0.00000  Uiso   1.00
C339   C     0.47237   0.28681   0.31766   0.00000  Uiso   1.00
C340   C     0.71743   0.44356   0.31957   0.00000  Uiso   1.00
C341   C     0.70740   0.48720   0.28348   0.00000  Uiso   1.00
C342   C     0.69710   0.54575   0.29766   0.00000  Uiso   1.00
C343   C     0.83744   0.35789   0.35109   0.00000  Uiso   1.00
C344   C     0.92832   0.32950   0.34151   0.00000  Uiso   1.00
C345   C     0.01908   0.31594   0.38223   0.00000  Uiso   1.00
H346   H     0.72901   0.41436   0.43931   0.00000  Uiso   1.00
H347   H     0.55257   0.34983   0.43364   0.00000  Uiso   1.00
H348   H     0.70676   0.52748   0.41992   0.00000  Uiso   1.00
H349   H     0.92765   0.36981   0.47793   0.00000  Uiso   1.00
H350   H     0.35703   0.27198   0.40594   0.00000  Uiso   1.00
H351   H     0.68219   0.64658   0.37702   0.00000  Uiso   1.00
H352   H     0.14798   0.31410   0.49936   0.00000  Uiso   1.00
H353   H     0.72979   0.36564   0.27436   0.00000  Uiso   1.00
H354   H     0.55339   0.29843   0.25964   0.00000  Uiso   1.00
H355   H     0.70758   0.47608   0.24592   0.00000  Uiso   1.00
H356   H     0.92847   0.31841   0.30394   0.00000  Uiso   1.00
H357   H     0.35769   0.23026   0.26472   0.00000  Uiso   1.00
H358   H     0.68286   0.60486   0.23580   0.00000  Uiso   1.00
H359   H     0.14864   0.27238   0.35814   0.00000  Uiso   1.00
O360   O     0.24128   0.20780   0.32862   0.00000  Uiso   1.00
O361   O     0.66791   0.69926   0.29067   0.00000  Uiso   1.00
O362   O     0.27900   0.26306   0.45118   0.00000  Uiso   1.00
N363   N     0.38140   0.27137   0.37473   0.00000  Uiso   1.00
N364   N     0.68540   0.62160   0.34768   0.00000  Uiso   1.00
N365   N     0.12088   0.31078   0.46206   0.00000  Uiso   1.00
N366   N     0.38176   0.24893   0.29874   0.00000  Uiso   1.00
N367   N     0.68576   0.59915   0.27169   0.00000  Uiso   1.00
N368   N     0.12124   0.28833   0.38607   0.00000  Uiso   1.00
