data_job_03928
_audit_creation_date              2018-12-19
_audit_creation_method            'Materials Studio'
_symmetry_space_group_name_H-M    'P1'
_symmetry_Int_Tables_number       1
_symmetry_cell_setting            triclinic
loop_
_symmetry_equiv_pos_as_xyz
  x,y,z
_cell_length_a                    12.2674
_cell_length_b                    12.2674
_cell_length_c                    85.1485
_cell_angle_alpha                 90.0000
_cell_angle_beta                  90.0000
_cell_angle_gamma                 120.0000
loop_
_atom_site_label
_atom_site_type_symbol
_atom_site_fract_x
_atom_site_fract_y
_atom_site_fract_z
_atom_site_U_iso_or_equiv
_atom_site_adp_type
_atom_site_occupancy
C1     C     0.12701   0.18017   0.01792   0.00000  Uiso   1.00
C2     C     0.03965   0.17626   0.03092   0.00000  Uiso   1.00
C3     C     0.90927   0.11538   0.03012   0.00000  Uiso   1.00
C4     C     0.84639   0.12291   0.04327   0.00000  Uiso   1.00
C5     C     0.70081   0.10684   0.06141   0.00000  Uiso   1.00
C6     C     0.21798   0.31915   0.01468   0.00000  Uiso   1.00
C7     C     0.23755   0.37841   0.00023   0.00000  Uiso   1.00
C8     C     0.32480   0.50622   0.99971   0.00000  Uiso   1.00
C9     C     0.45615   0.71198   0.99264   0.00000  Uiso   1.00
C10    C     0.20577   0.12845   0.02512   0.00000  Uiso   1.00
C11    C     0.21510   0.02738   0.01944   0.00000  Uiso   1.00
C12    C     0.29210   0.99465   0.02771   0.00000  Uiso   1.00
C13    C     0.40449   0.90431   0.03685   0.00000  Uiso   1.00
C14    C     0.24718   0.30178   0.04269   0.00000  Uiso   1.00
C15    C     0.10492   0.24232   0.04437   0.00000  Uiso   1.00
C16    C     0.04222   0.24993   0.05752   0.00000  Uiso   1.00
C17    C     0.91178   0.18907   0.05674   0.00000  Uiso   1.00
C18    C     0.28325   0.38521   0.02814   0.00000  Uiso   1.00
C19    C     0.37050   0.51296   0.02763   0.00000  Uiso   1.00
C20    C     0.39019   0.57240   0.01318   0.00000  Uiso   1.00
C21    C     0.27104   0.19450   0.03858   0.00000  Uiso   1.00
C22    C     0.34805   0.16193   0.04685   0.00000  Uiso   1.00
C23    C     0.35749   0.06082   0.04119   0.00000  Uiso   1.00
H24    H     0.07620   0.12875   0.00744   0.00000  Uiso   1.00
H25    H     0.85879   0.06428   0.01971   0.00000  Uiso   1.00
H26    H     0.18703   0.32727   0.98982   0.00000  Uiso   1.00
H27    H     0.16458   0.97629   0.00903   0.00000  Uiso   1.00
H28    H     0.64654   0.02198   0.03923   0.00000  Uiso   1.00
H29    H     0.33868   0.57648   0.97622   0.00000  Uiso   1.00
H30    H     0.29134   0.83638   0.01673   0.00000  Uiso   1.00
H31    H     0.29800   0.35321   0.05316   0.00000  Uiso   1.00
H32    H     0.09276   0.30106   0.06793   0.00000  Uiso   1.00
H33    H     0.42100   0.56404   0.03805   0.00000  Uiso   1.00
H34    H     0.39854   0.21306   0.05726   0.00000  Uiso   1.00
H35    H     0.83644   0.21416   0.07838   0.00000  Uiso   1.00
H36    H     0.52858   0.76867   0.01536   0.00000  Uiso   1.00
H37    H     0.48124   0.02856   0.05587   0.00000  Uiso   1.00
O38    O     0.60248   0.07975   0.06770   0.00000  Uiso   1.00
O39    O     0.51055   0.80723   0.98502   0.00000  Uiso   1.00
O40    O     0.44843   0.83622   0.03817   0.00000  Uiso   1.00
N41    N     0.71940   0.07434   0.04642   0.00000  Uiso   1.00
N42    N     0.36650   0.59278   0.98750   0.00000  Uiso   1.00
N43    N     0.32226   0.90086   0.02538   0.00000  Uiso   1.00
N44    N     0.82158   0.17775   0.06748   0.00000  Uiso   1.00
N45    N     0.46868   0.69619   0.00856   0.00000  Uiso   1.00
N46    N     0.42444   0.00427   0.04644   0.00000  Uiso   1.00
C47    C     0.36115   0.21704   0.64879   0.00000  Uiso   1.00
C48    C     0.35732   0.12936   0.63583   0.00000  Uiso   1.00
C49    C     0.29693   0.99904   0.63671   0.00000  Uiso   1.00
C50    C     0.30445   0.93584   0.62360   0.00000  Uiso   1.00
C51    C     0.28858   0.78984   0.60554   0.00000  Uiso   1.00
C52    C     0.50011   0.30856   0.65196   0.00000  Uiso   1.00
C53    C     0.55976   0.32890   0.66640   0.00000  Uiso   1.00
C54    C     0.68747   0.41657   0.66686   0.00000  Uiso   1.00
C55    C     0.89326   0.54883   0.67384   0.00000  Uiso   1.00
C56    C     0.30877   0.29509   0.64155   0.00000  Uiso   1.00
C57    C     0.20756   0.30416   0.64723   0.00000  Uiso   1.00
C58    C     0.17420   0.38051   0.63893   0.00000  Uiso   1.00
C59    C     0.08291   0.49187   0.62974   0.00000  Uiso   1.00
C60    C     0.48189   0.33655   0.62394   0.00000  Uiso   1.00
C61    C     0.42291   0.19428   0.62234   0.00000  Uiso   1.00
C62    C     0.43052   0.13127   0.60922   0.00000  Uiso   1.00
C63    C     0.37014   0.00087   0.61008   0.00000  Uiso   1.00
C64    C     0.56569   0.37347   0.63846   0.00000  Uiso   1.00
C65    C     0.69334   0.46113   0.63891   0.00000  Uiso   1.00
C66    C     0.75317   0.48160   0.65334   0.00000  Uiso   1.00
C67    C     0.37435   0.36001   0.62805   0.00000  Uiso   1.00
C68    C     0.34115   0.43638   0.61974   0.00000  Uiso   1.00
C69    C     0.23990   0.44555   0.62541   0.00000  Uiso   1.00
H70    H     0.31009   0.16650   0.65930   0.00000  Uiso   1.00
H71    H     0.24619   0.94884   0.64716   0.00000  Uiso   1.00
H72    H     0.50898   0.27866   0.67684   0.00000  Uiso   1.00
H73    H     0.15683   0.25391   0.65767   0.00000  Uiso   1.00
H74    H     0.20431   0.73615   0.62775   0.00000  Uiso   1.00
H75    H     0.75839   0.43163   0.69033   0.00000  Uiso   1.00
H76    H     0.01583   0.37944   0.64992   0.00000  Uiso   1.00
H77    H     0.53295   0.38709   0.61344   0.00000  Uiso   1.00
H78    H     0.48128   0.18153   0.59878   0.00000  Uiso   1.00
H79    H     0.74406   0.51135   0.62846   0.00000  Uiso   1.00
H80    H     0.39192   0.48660   0.60930   0.00000  Uiso   1.00
H81    H     0.39512   0.92501   0.58848   0.00000  Uiso   1.00
H82    H     0.94920   0.62049   0.65107   0.00000  Uiso   1.00
H83    H     0.20664   0.56829   0.61066   0.00000  Uiso   1.00
O84    O     0.26173   0.69137   0.59930   0.00000  Uiso   1.00
O85    O     0.98866   0.60383   0.68141   0.00000  Uiso   1.00
O86    O     0.01443   0.53535   0.62840   0.00000  Uiso   1.00
N87    N     0.25628   0.80881   0.62052   0.00000  Uiso   1.00
N88    N     0.77432   0.45902   0.67903   0.00000  Uiso   1.00
N89    N     0.08011   0.41025   0.64125   0.00000  Uiso   1.00
N90    N     0.35896   0.91043   0.59939   0.00000  Uiso   1.00
N91    N     0.87699   0.56065   0.65790   0.00000  Uiso   1.00
N92    N     0.18278   0.51188   0.62013   0.00000  Uiso   1.00
C93    C     0.81983   0.94684   0.68458   0.00000  Uiso   1.00
C94    C     0.82374   0.86339   0.69759   0.00000  Uiso   1.00
C95    C     0.88462   0.79389   0.69679   0.00000  Uiso   1.00
C96    C     0.87709   0.72348   0.70993   0.00000  Uiso   1.00
C97    C     0.89316   0.59397   0.72807   0.00000  Uiso   1.00
C98    C     0.68085   0.89882   0.68135   0.00000  Uiso   1.00
C99    C     0.62159   0.85914   0.66690   0.00000  Uiso   1.00
C100   C     0.49378   0.81858   0.66637   0.00000  Uiso   1.00
C101   C     0.28802   0.74417   0.65930   0.00000  Uiso   1.00
C102   C     0.87155   0.07732   0.69179   0.00000  Uiso   1.00
C103   C     0.97262   0.18772   0.68611   0.00000  Uiso   1.00
C104   C     0.00535   0.29745   0.69437   0.00000  Uiso   1.00
C105   C     0.09569   0.50018   0.70351   0.00000  Uiso   1.00
C106   C     0.69822   0.94540   0.70935   0.00000  Uiso   1.00
C107   C     0.75768   0.86260   0.71104   0.00000  Uiso   1.00
C108   C     0.75007   0.79229   0.72419   0.00000  Uiso   1.00
C109   C     0.81093   0.72270   0.72341   0.00000  Uiso   1.00
C110   C     0.61479   0.89804   0.69480   0.00000  Uiso   1.00
C111   C     0.48704   0.85754   0.69430   0.00000  Uiso   1.00
C112   C     0.42760   0.81780   0.67985   0.00000  Uiso   1.00
C113   C     0.80550   0.07654   0.70524   0.00000  Uiso   1.00
C114   C     0.83807   0.18612   0.71352   0.00000  Uiso   1.00
C115   C     0.93918   0.29667   0.70785   0.00000  Uiso   1.00
H116   H     0.87125   0.94745   0.67411   0.00000  Uiso   1.00
H117   H     0.93572   0.79451   0.68637   0.00000  Uiso   1.00
H118   H     0.67273   0.85977   0.65649   0.00000  Uiso   1.00
H119   H     0.02371   0.18829   0.67570   0.00000  Uiso   1.00
H120   H     0.97802   0.62457   0.70590   0.00000  Uiso   1.00
H121   H     0.42352   0.76220   0.64288   0.00000  Uiso   1.00
H122   H     0.16362   0.45497   0.68340   0.00000  Uiso   1.00
H123   H     0.64679   0.94479   0.71983   0.00000  Uiso   1.00
H124   H     0.69894   0.79170   0.73460   0.00000  Uiso   1.00
H125   H     0.43596   0.85695   0.70471   0.00000  Uiso   1.00
H126   H     0.78694   0.18548   0.72393   0.00000  Uiso   1.00
H127   H     0.78584   0.62228   0.74504   0.00000  Uiso   1.00
H128   H     0.23133   0.75992   0.68202   0.00000  Uiso   1.00
H129   H     0.97144   0.45268   0.72254   0.00000  Uiso   1.00
O130   O     0.92025   0.52273   0.73436   0.00000  Uiso   1.00
O131   O     0.19277   0.70333   0.65168   0.00000  Uiso   1.00
O132   O     0.16378   0.61221   0.70484   0.00000  Uiso   1.00
N133   N     0.92566   0.64506   0.71309   0.00000  Uiso   1.00
N134   N     0.40722   0.77372   0.65417   0.00000  Uiso   1.00
N135   N     0.09914   0.42140   0.69204   0.00000  Uiso   1.00
N136   N     0.82225   0.64383   0.73415   0.00000  Uiso   1.00
N137   N     0.30381   0.77249   0.67523   0.00000  Uiso   1.00
N138   N     0.99573   0.42017   0.71311   0.00000  Uiso   1.00
C139   C     0.78296   0.14411   0.31545   0.00000  Uiso   1.00
C140   C     0.87064   0.22796   0.30250   0.00000  Uiso   1.00
C141   C     0.00096   0.29789   0.30338   0.00000  Uiso   1.00
C142   C     0.06416   0.36860   0.29026   0.00000  Uiso   1.00
C143   C     0.21016   0.49874   0.27220   0.00000  Uiso   1.00
C144   C     0.69144   0.19155   0.31863   0.00000  Uiso   1.00
C145   C     0.67110   0.23085   0.33306   0.00000  Uiso   1.00
C146   C     0.58343   0.27090   0.33353   0.00000  Uiso   1.00
C147   C     0.45117   0.34443   0.34050   0.00000  Uiso   1.00
C148   C     0.70491   0.01367   0.30821   0.00000  Uiso   1.00
C149   C     0.69584   0.90340   0.31390   0.00000  Uiso   1.00
C150   C     0.61949   0.79369   0.30559   0.00000  Uiso   1.00
C151   C     0.50813   0.59104   0.29641   0.00000  Uiso   1.00
C152   C     0.66345   0.14534   0.29061   0.00000  Uiso   1.00
C153   C     0.80572   0.22863   0.28900   0.00000  Uiso   1.00
C154   C     0.86873   0.29925   0.27589   0.00000  Uiso   1.00
C155   C     0.99913   0.36927   0.27674   0.00000  Uiso   1.00
C156   C     0.62653   0.19222   0.30513   0.00000  Uiso   1.00
C157   C     0.53887   0.23221   0.30557   0.00000  Uiso   1.00
C158   C     0.51840   0.27157   0.32001   0.00000  Uiso   1.00
C159   C     0.63999   0.01434   0.29472   0.00000  Uiso   1.00
C160   C     0.56362   0.90477   0.28641   0.00000  Uiso   1.00
C161   C     0.55445   0.79436   0.29208   0.00000  Uiso   1.00
H162   H     0.83350   0.14359   0.32596   0.00000  Uiso   1.00
H163   H     0.05116   0.29735   0.31382   0.00000  Uiso   1.00
H164   H     0.72134   0.23031   0.34350   0.00000  Uiso   1.00
H165   H     0.74609   0.90292   0.32434   0.00000  Uiso   1.00
H166   H     0.26385   0.46816   0.29441   0.00000  Uiso   1.00
H167   H     0.56837   0.32676   0.35700   0.00000  Uiso   1.00
H168   H     0.62056   0.63639   0.31659   0.00000  Uiso   1.00
H169   H     0.61291   0.14586   0.28010   0.00000  Uiso   1.00
H170   H     0.81847   0.29975   0.26544   0.00000  Uiso   1.00
H171   H     0.48865   0.23271   0.29513   0.00000  Uiso   1.00
H172   H     0.51340   0.90532   0.27596   0.00000  Uiso   1.00
H173   H     0.07499   0.47011   0.25515   0.00000  Uiso   1.00
H174   H     0.37951   0.32871   0.31774   0.00000  Uiso   1.00
H175   H     0.43171   0.63834   0.27733   0.00000  Uiso   1.00
O176   O     0.30863   0.57036   0.26597   0.00000  Uiso   1.00
O177   O     0.39617   0.38482   0.34808   0.00000  Uiso   1.00
O178   O     0.46465   0.47908   0.29506   0.00000  Uiso   1.00
N179   N     0.19119   0.44748   0.28718   0.00000  Uiso   1.00
N180   N     0.54098   0.31530   0.34570   0.00000  Uiso   1.00
N181   N     0.58975   0.66986   0.30792   0.00000  Uiso   1.00
N182   N     0.08957   0.44853   0.26605   0.00000  Uiso   1.00
N183   N     0.43935   0.31635   0.32457   0.00000  Uiso   1.00
N184   N     0.48812   0.67090   0.28679   0.00000  Uiso   1.00
C185   C     0.05316   0.87299   0.35125   0.00000  Uiso   1.00
C186   C     0.13661   0.96035   0.36425   0.00000  Uiso   1.00
C187   C     0.20611   0.09073   0.36345   0.00000  Uiso   1.00
C188   C     0.27652   0.15361   0.37660   0.00000  Uiso   1.00
C189   C     0.40603   0.29919   0.39474   0.00000  Uiso   1.00
C190   C     0.10118   0.78202   0.34802   0.00000  Uiso   1.00
C191   C     0.14086   0.76245   0.33356   0.00000  Uiso   1.00
C192   C     0.18142   0.67520   0.33304   0.00000  Uiso   1.00
C193   C     0.25583   0.54385   0.32597   0.00000  Uiso   1.00
C194   C     0.92268   0.79423   0.35846   0.00000  Uiso   1.00
C195   C     0.81228   0.78490   0.35278   0.00000  Uiso   1.00
C196   C     0.70255   0.70790   0.36104   0.00000  Uiso   1.00
C197   C     0.49982   0.59551   0.37018   0.00000  Uiso   1.00
C198   C     0.05460   0.75282   0.37602   0.00000  Uiso   1.00
C199   C     0.13740   0.89508   0.37771   0.00000  Uiso   1.00
C200   C     0.20771   0.95778   0.39086   0.00000  Uiso   1.00
C201   C     0.27730   0.08822   0.39008   0.00000  Uiso   1.00
C202   C     0.10196   0.71675   0.36147   0.00000  Uiso   1.00
C203   C     0.14246   0.62950   0.36097   0.00000  Uiso   1.00
C204   C     0.18220   0.60981   0.34652   0.00000  Uiso   1.00
C205   C     0.92346   0.72896   0.37191   0.00000  Uiso   1.00
C206   C     0.81388   0.65195   0.38018   0.00000  Uiso   1.00
C207   C     0.70333   0.64251   0.37452   0.00000  Uiso   1.00
H208   H     0.05255   0.92380   0.34078   0.00000  Uiso   1.00
H209   H     0.20549   0.14121   0.35304   0.00000  Uiso   1.00
H210   H     0.14023   0.81297   0.32315   0.00000  Uiso   1.00
H211   H     0.81171   0.83542   0.34237   0.00000  Uiso   1.00
H212   H     0.37543   0.35346   0.37257   0.00000  Uiso   1.00
H213   H     0.23780   0.66132   0.30955   0.00000  Uiso   1.00
H214   H     0.54503   0.70866   0.35006   0.00000  Uiso   1.00
H215   H     0.05521   0.70200   0.38649   0.00000  Uiso   1.00
H216   H     0.20830   0.90724   0.40127   0.00000  Uiso   1.00
H217   H     0.14305   0.57900   0.37138   0.00000  Uiso   1.00
H218   H     0.81452   0.60146   0.39059   0.00000  Uiso   1.00
H219   H     0.37772   0.16356   0.41171   0.00000  Uiso   1.00
H220   H     0.24008   0.47142   0.34869   0.00000  Uiso   1.00
H221   H     0.54732   0.51876   0.38921   0.00000  Uiso   1.00
O222   O     0.47727   0.39752   0.40103   0.00000  Uiso   1.00
O223   O     0.29667   0.48945   0.31835   0.00000  Uiso   1.00
O224   O     0.38779   0.55157   0.37150   0.00000  Uiso   1.00
N225   N     0.35494   0.28060   0.37975   0.00000  Uiso   1.00
N226   N     0.22628   0.63350   0.32084   0.00000  Uiso   1.00
N227   N     0.57860   0.67774   0.35871   0.00000  Uiso   1.00
N228   N     0.35617   0.17842   0.40082   0.00000  Uiso   1.00
N229   N     0.22751   0.53132   0.34190   0.00000  Uiso   1.00
N230   N     0.57983   0.57556   0.37977   0.00000  Uiso   1.00
C231   C     0.85589   0.63885   0.98212   0.00000  Uiso   1.00
C232   C     0.77204   0.64268   0.96917   0.00000  Uiso   1.00
C233   C     0.70211   0.70307   0.97004   0.00000  Uiso   1.00
C234   C     0.63140   0.69555   0.95693   0.00000  Uiso   1.00
C235   C     0.50126   0.71142   0.93887   0.00000  Uiso   1.00
C236   C     0.80845   0.49989   0.98529   0.00000  Uiso   1.00
C237   C     0.76915   0.44024   0.99973   0.00000  Uiso   1.00
C238   C     0.72910   0.31253   0.00019   0.00000  Uiso   1.00
C239   C     0.65557   0.10674   0.00717   0.00000  Uiso   1.00
C240   C     0.98633   0.69123   0.97488   0.00000  Uiso   1.00
C241   C     0.09660   0.79244   0.98056   0.00000  Uiso   1.00
C242   C     0.20631   0.82580   0.97226   0.00000  Uiso   1.00
C243   C     0.40896   0.91709   0.96307   0.00000  Uiso   1.00
C244   C     0.85466   0.51811   0.95728   0.00000  Uiso   1.00
C245   C     0.77137   0.57709   0.95567   0.00000  Uiso   1.00
C246   C     0.70075   0.56948   0.94255   0.00000  Uiso   1.00
C247   C     0.63073   0.62986   0.94341   0.00000  Uiso   1.00
C248   C     0.80778   0.43431   0.97180   0.00000  Uiso   1.00
C249   C     0.76779   0.30666   0.97224   0.00000  Uiso   1.00
C250   C     0.72843   0.24683   0.98667   0.00000  Uiso   1.00
C251   C     0.98566   0.62565   0.96138   0.00000  Uiso   1.00
C252   C     0.09523   0.65885   0.95307   0.00000  Uiso   1.00
C253   C     0.20564   0.76010   0.95874   0.00000  Uiso   1.00
H254   H     0.85641   0.68991   0.99263   0.00000  Uiso   1.00
H255   H     0.70265   0.75381   0.98049   0.00000  Uiso   1.00
H256   H     0.76969   0.49102   0.01017   0.00000  Uiso   1.00
H257   H     0.09708   0.84317   0.99101   0.00000  Uiso   1.00
H258   H     0.53184   0.79569   0.96108   0.00000  Uiso   1.00
H259   H     0.67324   0.24161   0.02367   0.00000  Uiso   1.00
H260   H     0.36361   0.98417   0.98326   0.00000  Uiso   1.00
H261   H     0.85414   0.46705   0.94677   0.00000  Uiso   1.00
H262   H     0.70025   0.51872   0.93211   0.00000  Uiso   1.00
H263   H     0.76729   0.25594   0.96179   0.00000  Uiso   1.00
H264   H     0.09468   0.60808   0.94263   0.00000  Uiso   1.00
H265   H     0.52989   0.60488   0.92182   0.00000  Uiso   1.00
H266   H     0.67129   0.05080   0.98440   0.00000  Uiso   1.00
H267   H     0.36166   0.79336   0.94399   0.00000  Uiso   1.00
O268   O     0.42964   0.73827   0.93264   0.00000  Uiso   1.00
O269   O     0.61518   0.01134   0.01475   0.00000  Uiso   1.00
O270   O     0.52092   0.98557   0.96173   0.00000  Uiso   1.00
N271   N     0.55252   0.74372   0.95385   0.00000  Uiso   1.00
N272   N     0.68470   0.22568   0.01236   0.00000  Uiso   1.00
N273   N     0.33014   0.91989   0.97459   0.00000  Uiso   1.00
N274   N     0.55147   0.64104   0.93272   0.00000  Uiso   1.00
N275   N     0.68365   0.12301   0.99124   0.00000  Uiso   1.00
N276   N     0.32910   0.81722   0.95346   0.00000  Uiso   1.00
C277   C     0.87299   0.81983   0.51792   0.00000  Uiso   1.00
C278   C     0.96035   0.82374   0.53092   0.00000  Uiso   1.00
C279   C     0.09073   0.88462   0.53012   0.00000  Uiso   1.00
C280   C     0.15361   0.87709   0.54327   0.00000  Uiso   1.00
C281   C     0.29919   0.89316   0.56141   0.00000  Uiso   1.00
C282   C     0.78202   0.68085   0.51468   0.00000  Uiso   1.00
C283   C     0.76245   0.62159   0.50023   0.00000  Uiso   1.00
C284   C     0.67520   0.49378   0.49971   0.00000  Uiso   1.00
C285   C     0.54385   0.28802   0.49264   0.00000  Uiso   1.00
C286   C     0.79423   0.87155   0.52512   0.00000  Uiso   1.00
C287   C     0.78490   0.97262   0.51944   0.00000  Uiso   1.00
C288   C     0.70790   0.00535   0.52771   0.00000  Uiso   1.00
C289   C     0.59551   0.09569   0.53685   0.00000  Uiso   1.00
C290   C     0.75282   0.69822   0.54269   0.00000  Uiso   1.00
C291   C     0.89508   0.75768   0.54437   0.00000  Uiso   1.00
C292   C     0.95778   0.75007   0.55752   0.00000  Uiso   1.00
C293   C     0.08822   0.81093   0.55674   0.00000  Uiso   1.00
C294   C     0.71675   0.61479   0.52814   0.00000  Uiso   1.00
C295   C     0.62950   0.48704   0.52763   0.00000  Uiso   1.00
C296   C     0.60981   0.42760   0.51318   0.00000  Uiso   1.00
C297   C     0.72896   0.80550   0.53858   0.00000  Uiso   1.00
C298   C     0.65195   0.83807   0.54685   0.00000  Uiso   1.00
C299   C     0.64251   0.93918   0.54119   0.00000  Uiso   1.00
H300   H     0.92380   0.87125   0.50744   0.00000  Uiso   1.00
H301   H     0.14121   0.93572   0.51971   0.00000  Uiso   1.00
H302   H     0.81297   0.67273   0.48982   0.00000  Uiso   1.00
H303   H     0.83542   0.02371   0.50903   0.00000  Uiso   1.00
H304   H     0.35346   0.97802   0.53923   0.00000  Uiso   1.00
H305   H     0.66132   0.42352   0.47622   0.00000  Uiso   1.00
H306   H     0.70866   0.16362   0.51673   0.00000  Uiso   1.00
H307   H     0.70200   0.64679   0.55316   0.00000  Uiso   1.00
H308   H     0.90724   0.69894   0.56793   0.00000  Uiso   1.00
H309   H     0.57900   0.43596   0.53805   0.00000  Uiso   1.00
H310   H     0.60146   0.78694   0.55726   0.00000  Uiso   1.00
H311   H     0.16356   0.78584   0.57838   0.00000  Uiso   1.00
H312   H     0.47142   0.23133   0.51536   0.00000  Uiso   1.00
H313   H     0.51876   0.97144   0.55587   0.00000  Uiso   1.00
O314   O     0.39752   0.92025   0.56770   0.00000  Uiso   1.00
O315   O     0.48945   0.19277   0.48502   0.00000  Uiso   1.00
O316   O     0.55157   0.16378   0.53817   0.00000  Uiso   1.00
N317   N     0.28060   0.92566   0.54642   0.00000  Uiso   1.00
N318   N     0.63350   0.40722   0.48750   0.00000  Uiso   1.00
N319   N     0.67774   0.09914   0.52538   0.00000  Uiso   1.00
N320   N     0.17842   0.82225   0.56748   0.00000  Uiso   1.00
N321   N     0.53132   0.30381   0.50856   0.00000  Uiso   1.00
N322   N     0.57556   0.99573   0.54644   0.00000  Uiso   1.00
C323   C     0.63885   0.78296   0.14879   0.00000  Uiso   1.00
C324   C     0.64268   0.87064   0.13583   0.00000  Uiso   1.00
C325   C     0.70307   0.00096   0.13671   0.00000  Uiso   1.00
C326   C     0.69555   0.06416   0.12360   0.00000  Uiso   1.00
C327   C     0.71142   0.21016   0.10554   0.00000  Uiso   1.00
C328   C     0.49989   0.69144   0.15196   0.00000  Uiso   1.00
C329   C     0.44024   0.67110   0.16640   0.00000  Uiso   1.00
C330   C     0.31253   0.58343   0.16686   0.00000  Uiso   1.00
C331   C     0.10674   0.45117   0.17384   0.00000  Uiso   1.00
C332   C     0.69123   0.70491   0.14155   0.00000  Uiso   1.00
C333   C     0.79244   0.69584   0.14723   0.00000  Uiso   1.00
C334   C     0.82580   0.61949   0.13893   0.00000  Uiso   1.00
C335   C     0.91709   0.50813   0.12974   0.00000  Uiso   1.00
C336   C     0.51811   0.66345   0.12394   0.00000  Uiso   1.00
C337   C     0.57709   0.80572   0.12234   0.00000  Uiso   1.00
C338   C     0.56948   0.86873   0.10922   0.00000  Uiso   1.00
C339   C     0.62986   0.99913   0.11008   0.00000  Uiso   1.00
C340   C     0.43431   0.62653   0.13846   0.00000  Uiso   1.00
C341   C     0.30666   0.53887   0.13891   0.00000  Uiso   1.00
C342   C     0.24683   0.51840   0.15334   0.00000  Uiso   1.00
C343   C     0.62565   0.63999   0.12805   0.00000  Uiso   1.00
C344   C     0.65885   0.56362   0.11974   0.00000  Uiso   1.00
C345   C     0.76010   0.55445   0.12541   0.00000  Uiso   1.00
H346   H     0.68991   0.83350   0.15930   0.00000  Uiso   1.00
H347   H     0.75381   0.05116   0.14716   0.00000  Uiso   1.00
H348   H     0.49102   0.72134   0.17684   0.00000  Uiso   1.00
H349   H     0.84317   0.74609   0.15767   0.00000  Uiso   1.00
H350   H     0.79569   0.26385   0.12775   0.00000  Uiso   1.00
H351   H     0.24161   0.56837   0.19033   0.00000  Uiso   1.00
H352   H     0.98417   0.62056   0.14992   0.00000  Uiso   1.00
H353   H     0.46705   0.61291   0.11344   0.00000  Uiso   1.00
H354   H     0.51872   0.81847   0.09878   0.00000  Uiso   1.00
H355   H     0.25594   0.48865   0.12846   0.00000  Uiso   1.00
H356   H     0.60808   0.51340   0.10930   0.00000  Uiso   1.00
H357   H     0.60488   0.07499   0.08848   0.00000  Uiso   1.00
H358   H     0.05080   0.37951   0.15107   0.00000  Uiso   1.00
H359   H     0.79336   0.43171   0.11066   0.00000  Uiso   1.00
O360   O     0.73827   0.30863   0.09930   0.00000  Uiso   1.00
O361   O     0.01134   0.39617   0.18141   0.00000  Uiso   1.00
O362   O     0.98557   0.46465   0.12840   0.00000  Uiso   1.00
N363   N     0.74372   0.19119   0.12052   0.00000  Uiso   1.00
N364   N     0.22568   0.54098   0.17903   0.00000  Uiso   1.00
N365   N     0.91989   0.58975   0.14125   0.00000  Uiso   1.00
N366   N     0.64104   0.08957   0.09939   0.00000  Uiso   1.00
N367   N     0.12301   0.43935   0.15790   0.00000  Uiso   1.00
N368   N     0.81722   0.48812   0.12013   0.00000  Uiso   1.00
C369   C     0.18017   0.05316   0.18458   0.00000  Uiso   1.00
C370   C     0.17626   0.13661   0.19759   0.00000  Uiso   1.00
C371   C     0.11538   0.20611   0.19679   0.00000  Uiso   1.00
C372   C     0.12291   0.27652   0.20993   0.00000  Uiso   1.00
C373   C     0.10684   0.40603   0.22807   0.00000  Uiso   1.00
C374   C     0.31915   0.10118   0.18135   0.00000  Uiso   1.00
C375   C     0.37841   0.14086   0.16690   0.00000  Uiso   1.00
C376   C     0.50622   0.18142   0.16637   0.00000  Uiso   1.00
C377   C     0.71198   0.25583   0.15930   0.00000  Uiso   1.00
C378   C     0.12845   0.92268   0.19179   0.00000  Uiso   1.00
C379   C     0.02738   0.81228   0.18611   0.00000  Uiso   1.00
C380   C     0.99465   0.70255   0.19437   0.00000  Uiso   1.00
C381   C     0.90431   0.49982   0.20351   0.00000  Uiso   1.00
C382   C     0.30178   0.05460   0.20935   0.00000  Uiso   1.00
C383   C     0.24232   0.13740   0.21104   0.00000  Uiso   1.00
C384   C     0.24993   0.20771   0.22419   0.00000  Uiso   1.00
C385   C     0.18907   0.27730   0.22341   0.00000  Uiso   1.00
C386   C     0.38521   0.10196   0.19480   0.00000  Uiso   1.00
C387   C     0.51296   0.14246   0.19430   0.00000  Uiso   1.00
C388   C     0.57240   0.18220   0.17985   0.00000  Uiso   1.00
C389   C     0.19450   0.92346   0.20524   0.00000  Uiso   1.00
C390   C     0.16193   0.81388   0.21352   0.00000  Uiso   1.00
C391   C     0.06082   0.70333   0.20785   0.00000  Uiso   1.00
H392   H     0.12875   0.05255   0.17411   0.00000  Uiso   1.00
H393   H     0.06428   0.20549   0.18637   0.00000  Uiso   1.00
H394   H     0.32727   0.14023   0.15649   0.00000  Uiso   1.00
H395   H     0.97629   0.81171   0.17570   0.00000  Uiso   1.00
H396   H     0.02198   0.37543   0.20590   0.00000  Uiso   1.00
H397   H     0.57648   0.23780   0.14288   0.00000  Uiso   1.00
H398   H     0.83638   0.54503   0.18340   0.00000  Uiso   1.00
H399   H     0.35321   0.05521   0.21983   0.00000  Uiso   1.00
H400   H     0.30106   0.20830   0.23460   0.00000  Uiso   1.00
H401   H     0.56404   0.14305   0.20471   0.00000  Uiso   1.00
H402   H     0.21306   0.81452   0.22393   0.00000  Uiso   1.00
H403   H     0.21416   0.37772   0.24504   0.00000  Uiso   1.00
H404   H     0.76867   0.24008   0.18202   0.00000  Uiso   1.00
H405   H     0.02856   0.54732   0.22254   0.00000  Uiso   1.00
O406   O     0.07975   0.47727   0.23436   0.00000  Uiso   1.00
O407   O     0.80723   0.29667   0.15168   0.00000  Uiso   1.00
O408   O     0.83622   0.38779   0.20484   0.00000  Uiso   1.00
N409   N     0.07434   0.35494   0.21309   0.00000  Uiso   1.00
N410   N     0.59278   0.22628   0.15417   0.00000  Uiso   1.00
N411   N     0.90086   0.57860   0.19204   0.00000  Uiso   1.00
N412   N     0.17775   0.35617   0.23415   0.00000  Uiso   1.00
N413   N     0.69619   0.22751   0.17523   0.00000  Uiso   1.00
N414   N     0.00427   0.57983   0.21311   0.00000  Uiso   1.00
C415   C     0.21704   0.85589   0.81545   0.00000  Uiso   1.00
C416   C     0.12936   0.77204   0.80250   0.00000  Uiso   1.00
C417   C     0.99904   0.70211   0.80338   0.00000  Uiso   1.00
C418   C     0.93584   0.63140   0.79026   0.00000  Uiso   1.00
C419   C     0.78984   0.50126   0.77220   0.00000  Uiso   1.00
C420   C     0.30856   0.80845   0.81863   0.00000  Uiso   1.00
C421   C     0.32890   0.76915   0.83306   0.00000  Uiso   1.00
C422   C     0.41657   0.72910   0.83353   0.00000  Uiso   1.00
C423   C     0.54883   0.65557   0.84050   0.00000  Uiso   1.00
C424   C     0.29509   0.98633   0.80821   0.00000  Uiso   1.00
C425   C     0.30416   0.09660   0.81390   0.00000  Uiso   1.00
C426   C     0.38051   0.20631   0.80559   0.00000  Uiso   1.00
C427   C     0.49187   0.40896   0.79641   0.00000  Uiso   1.00
C428   C     0.33655   0.85466   0.79061   0.00000  Uiso   1.00
C429   C     0.19428   0.77137   0.78900   0.00000  Uiso   1.00
C430   C     0.13127   0.70075   0.77589   0.00000  Uiso   1.00
C431   C     0.00087   0.63073   0.77674   0.00000  Uiso   1.00
C432   C     0.37347   0.80778   0.80513   0.00000  Uiso   1.00
C433   C     0.46113   0.76779   0.80557   0.00000  Uiso   1.00
C434   C     0.48160   0.72843   0.82001   0.00000  Uiso   1.00
C435   C     0.36001   0.98566   0.79472   0.00000  Uiso   1.00
C436   C     0.43638   0.09523   0.78641   0.00000  Uiso   1.00
C437   C     0.44555   0.20564   0.79208   0.00000  Uiso   1.00
H438   H     0.16650   0.85641   0.82596   0.00000  Uiso   1.00
H439   H     0.94884   0.70265   0.81382   0.00000  Uiso   1.00
H440   H     0.27866   0.76969   0.84350   0.00000  Uiso   1.00
H441   H     0.25391   0.09708   0.82434   0.00000  Uiso   1.00
H442   H     0.73615   0.53184   0.79441   0.00000  Uiso   1.00
H443   H     0.43163   0.67324   0.85700   0.00000  Uiso   1.00
H444   H     0.37944   0.36361   0.81659   0.00000  Uiso   1.00
H445   H     0.38709   0.85414   0.78010   0.00000  Uiso   1.00
H446   H     0.18153   0.70025   0.76544   0.00000  Uiso   1.00
H447   H     0.51135   0.76729   0.79513   0.00000  Uiso   1.00
H448   H     0.48660   0.09468   0.77596   0.00000  Uiso   1.00
H449   H     0.92501   0.52989   0.75515   0.00000  Uiso   1.00
H450   H     0.62049   0.67129   0.81774   0.00000  Uiso   1.00
H451   H     0.56829   0.36166   0.77733   0.00000  Uiso   1.00
O452   O     0.69137   0.42964   0.76597   0.00000  Uiso   1.00
O453   O     0.60383   0.61518   0.84808   0.00000  Uiso   1.00
O454   O     0.53535   0.52092   0.79506   0.00000  Uiso   1.00
N455   N     0.80881   0.55252   0.78718   0.00000  Uiso   1.00
N456   N     0.45902   0.68470   0.84570   0.00000  Uiso   1.00
N457   N     0.41025   0.33014   0.80792   0.00000  Uiso   1.00
N458   N     0.91043   0.55147   0.76605   0.00000  Uiso   1.00
N459   N     0.56065   0.68365   0.82457   0.00000  Uiso   1.00
N460   N     0.51188   0.32910   0.78679   0.00000  Uiso   1.00
C461   C     0.94684   0.12701   0.85125   0.00000  Uiso   1.00
C462   C     0.86339   0.03965   0.86425   0.00000  Uiso   1.00
C463   C     0.79389   0.90927   0.86345   0.00000  Uiso   1.00
C464   C     0.72348   0.84639   0.87660   0.00000  Uiso   1.00
C465   C     0.59397   0.70081   0.89474   0.00000  Uiso   1.00
C466   C     0.89882   0.21798   0.84802   0.00000  Uiso   1.00
C467   C     0.85914   0.23755   0.83356   0.00000  Uiso   1.00
C468   C     0.81858   0.32480   0.83304   0.00000  Uiso   1.00
C469   C     0.74417   0.45615   0.82597   0.00000  Uiso   1.00
C470   C     0.07732   0.20577   0.85846   0.00000  Uiso   1.00
C471   C     0.18772   0.21510   0.85278   0.00000  Uiso   1.00
C472   C     0.29745   0.29210   0.86104   0.00000  Uiso   1.00
C473   C     0.50018   0.40449   0.87018   0.00000  Uiso   1.00
C474   C     0.94540   0.24718   0.87602   0.00000  Uiso   1.00
C475   C     0.86260   0.10492   0.87771   0.00000  Uiso   1.00
C476   C     0.79229   0.04222   0.89086   0.00000  Uiso   1.00
C477   C     0.72270   0.91178   0.89008   0.00000  Uiso   1.00
C478   C     0.89804   0.28325   0.86147   0.00000  Uiso   1.00
C479   C     0.85754   0.37050   0.86097   0.00000  Uiso   1.00
C480   C     0.81780   0.39019   0.84652   0.00000  Uiso   1.00
C481   C     0.07654   0.27104   0.87191   0.00000  Uiso   1.00
C482   C     0.18612   0.34805   0.88018   0.00000  Uiso   1.00
C483   C     0.29667   0.35749   0.87452   0.00000  Uiso   1.00
H484   H     0.94745   0.07620   0.84078   0.00000  Uiso   1.00
H485   H     0.79451   0.85879   0.85304   0.00000  Uiso   1.00
H486   H     0.85977   0.18703   0.82315   0.00000  Uiso   1.00
H487   H     0.18829   0.16458   0.84237   0.00000  Uiso   1.00
H488   H     0.62457   0.64654   0.87257   0.00000  Uiso   1.00
H489   H     0.76220   0.33868   0.80955   0.00000  Uiso   1.00
H490   H     0.45497   0.29134   0.85006   0.00000  Uiso   1.00
H491   H     0.94479   0.29800   0.88649   0.00000  Uiso   1.00
H492   H     0.79170   0.09276   0.90127   0.00000  Uiso   1.00
H493   H     0.85695   0.42100   0.87138   0.00000  Uiso   1.00
H494   H     0.18548   0.39854   0.89059   0.00000  Uiso   1.00
H495   H     0.62228   0.83644   0.91171   0.00000  Uiso   1.00
H496   H     0.75992   0.52858   0.84869   0.00000  Uiso   1.00
H497   H     0.45268   0.48124   0.88921   0.00000  Uiso   1.00
O498   O     0.52273   0.60248   0.90103   0.00000  Uiso   1.00
O499   O     0.70333   0.51055   0.81835   0.00000  Uiso   1.00
O500   O     0.61221   0.44843   0.87150   0.00000  Uiso   1.00
N501   N     0.64506   0.71940   0.87975   0.00000  Uiso   1.00
N502   N     0.77372   0.36650   0.82084   0.00000  Uiso   1.00
N503   N     0.42140   0.32226   0.85871   0.00000  Uiso   1.00
N504   N     0.64383   0.82158   0.90082   0.00000  Uiso   1.00
N505   N     0.77249   0.46868   0.84190   0.00000  Uiso   1.00
N506   N     0.42017   0.42444   0.87977   0.00000  Uiso   1.00
C507   C     0.14411   0.36115   0.48212   0.00000  Uiso   1.00
C508   C     0.22796   0.35732   0.46917   0.00000  Uiso   1.00
C509   C     0.29789   0.29693   0.47004   0.00000  Uiso   1.00
C510   C     0.36860   0.30445   0.45693   0.00000  Uiso   1.00
C511   C     0.49874   0.28858   0.43887   0.00000  Uiso   1.00
C512   C     0.19155   0.50011   0.48529   0.00000  Uiso   1.00
C513   C     0.23085   0.55976   0.49973   0.00000  Uiso   1.00
C514   C     0.27090   0.68747   0.50019   0.00000  Uiso   1.00
C515   C     0.34443   0.89326   0.50717   0.00000  Uiso   1.00
C516   C     0.01367   0.30877   0.47488   0.00000  Uiso   1.00
C517   C     0.90340   0.20756   0.48056   0.00000  Uiso   1.00
C518   C     0.79369   0.17420   0.47226   0.00000  Uiso   1.00
C519   C     0.59104   0.08291   0.46307   0.00000  Uiso   1.00
C520   C     0.14534   0.48189   0.45728   0.00000  Uiso   1.00
C521   C     0.22863   0.42291   0.45567   0.00000  Uiso   1.00
C522   C     0.29925   0.43052   0.44255   0.00000  Uiso   1.00
C523   C     0.36927   0.37014   0.44341   0.00000  Uiso   1.00
C524   C     0.19222   0.56569   0.47180   0.00000  Uiso   1.00
C525   C     0.23221   0.69334   0.47224   0.00000  Uiso   1.00
C526   C     0.27157   0.75317   0.48667   0.00000  Uiso   1.00
C527   C     0.01434   0.37435   0.46138   0.00000  Uiso   1.00
C528   C     0.90477   0.34115   0.45307   0.00000  Uiso   1.00
C529   C     0.79436   0.23990   0.45874   0.00000  Uiso   1.00
H530   H     0.14359   0.31009   0.49263   0.00000  Uiso   1.00
H531   H     0.29735   0.24619   0.48049   0.00000  Uiso   1.00
H532   H     0.23031   0.50898   0.51017   0.00000  Uiso   1.00
H533   H     0.90292   0.15683   0.49101   0.00000  Uiso   1.00
H534   H     0.46816   0.20431   0.46108   0.00000  Uiso   1.00
H535   H     0.32676   0.75839   0.52367   0.00000  Uiso   1.00
H536   H     0.63639   0.01583   0.48326   0.00000  Uiso   1.00
H537   H     0.14586   0.53295   0.44677   0.00000  Uiso   1.00
H538   H     0.29975   0.48128   0.43211   0.00000  Uiso   1.00
H539   H     0.23271   0.74406   0.46179   0.00000  Uiso   1.00
H540   H     0.90532   0.39192   0.44263   0.00000  Uiso   1.00
H541   H     0.47011   0.39512   0.42182   0.00000  Uiso   1.00
H542   H     0.32871   0.94920   0.48440   0.00000  Uiso   1.00
H543   H     0.63834   0.20664   0.44399   0.00000  Uiso   1.00
O544   O     0.57036   0.26173   0.43264   0.00000  Uiso   1.00
O545   O     0.38482   0.98866   0.51475   0.00000  Uiso   1.00
O546   O     0.47908   0.01443   0.46173   0.00000  Uiso   1.00
N547   N     0.44748   0.25628   0.45385   0.00000  Uiso   1.00
N548   N     0.31530   0.77432   0.51236   0.00000  Uiso   1.00
N549   N     0.66986   0.08011   0.47459   0.00000  Uiso   1.00
N550   N     0.44853   0.35896   0.43272   0.00000  Uiso   1.00
N551   N     0.31635   0.87699   0.49124   0.00000  Uiso   1.00
N552   N     0.67090   0.18278   0.45346   0.00000  Uiso   1.00
