data_job_03456
_audit_creation_date              2018-12-19
_audit_creation_method            'Materials Studio'
_symmetry_space_group_name_H-M    'P1'
_symmetry_Int_Tables_number       1
_symmetry_cell_setting            triclinic
loop_
_symmetry_equiv_pos_as_xyz
  x,y,z
_cell_length_a                    17.9207
_cell_length_b                    14.5201
_cell_length_c                    10.6028
_cell_angle_alpha                 90.0000
_cell_angle_beta                  90.0000
_cell_angle_gamma                 90.0000
loop_
_atom_site_label
_atom_site_type_symbol
_atom_site_fract_x
_atom_site_fract_y
_atom_site_fract_z
_atom_site_U_iso_or_equiv
_atom_site_adp_type
_atom_site_occupancy
C1     C     0.18670   0.67911   0.38672   0.00000  Uiso   1.00
C2     C     0.15395   0.74653   0.29133   0.00000  Uiso   1.00
C3     C     0.18444   0.83097   0.25811   0.00000  Uiso   1.00
C4     C     0.14599   0.88253   0.16902   0.00000  Uiso   1.00
C5     C     0.10524   0.99208   0.02915   0.00000  Uiso   1.00
C6     C     0.12568   0.66242   0.48433   0.00000  Uiso   1.00
C7     C     0.13240   0.67613   0.61337   0.00000  Uiso   1.00
C8     C     0.07015   0.65687   0.68674   0.00000  Uiso   1.00
C9     C     0.98554   0.63577   0.84650   0.00000  Uiso   1.00
C10    C     0.19651   0.58824   0.31656   0.00000  Uiso   1.00
C11    C     0.26278   0.53956   0.30458   0.00000  Uiso   1.00
C12    C     0.26016   0.45784   0.23672   0.00000  Uiso   1.00
C13    C     0.28551   0.32156   0.13601   0.00000  Uiso   1.00
C14    C     0.06420   0.62052   0.28758   0.00000  Uiso   1.00
C15    C     0.08742   0.71470   0.23749   0.00000  Uiso   1.00
C16    C     0.04891   0.76615   0.14842   0.00000  Uiso   1.00
C17    C     0.07933   0.85065   0.11507   0.00000  Uiso   1.00
C18    C     0.05915   0.63059   0.43048   0.00000  Uiso   1.00
C19    C     0.99688   0.61130   0.50368   0.00000  Uiso   1.00
C20    C     0.00350   0.62499   0.63279   0.00000  Uiso   1.00
C21    C     0.12998   0.55641   0.26271   0.00000  Uiso   1.00
C22    C     0.12725   0.47474   0.19488   0.00000  Uiso   1.00
C23    C     0.19350   0.42596   0.18278   0.00000  Uiso   1.00
H24    H     0.23849   0.70389   0.42865   0.00000  Uiso   1.00
H25    H     0.23592   0.85558   0.29982   0.00000  Uiso   1.00
H26    H     0.18390   0.70075   0.65501   0.00000  Uiso   1.00
H27    H     0.31425   0.56421   0.34626   0.00000  Uiso   1.00
H28    H     0.20372   0.00974   0.13326   0.00000  Uiso   1.00
H29    H     0.09403   0.68324   0.88223   0.00000  Uiso   1.00
H30    H     0.36891   0.39532   0.23116   0.00000  Uiso   1.00
H31    H     0.01240   0.59574   0.24565   0.00000  Uiso   1.00
H32    H     0.99742   0.74150   0.10677   0.00000  Uiso   1.00
H33    H     0.94540   0.58667   0.46197   0.00000  Uiso   1.00
H34    H     0.07575   0.45014   0.15322   0.00000  Uiso   1.00
H35    H     0.01014   0.91715   0.97658   0.00000  Uiso   1.00
H36    H     0.90046   0.59065   0.72555   0.00000  Uiso   1.00
H37    H     0.17533   0.30273   0.07448   0.00000  Uiso   1.00
O38    O     0.10114   0.06130   0.96690   0.00000  Uiso   1.00
O39    O     0.95725   0.63293   0.94951   0.00000  Uiso   1.00
O40    O     0.31788   0.25519   0.09532   0.00000  Uiso   1.00
N41    N     0.16022   0.96794   0.11543   0.00000  Uiso   1.00
N42    N     0.05767   0.66270   0.81566   0.00000  Uiso   1.00
N43    N     0.31465   0.39350   0.20700   0.00000  Uiso   1.00
N44    N     0.05606   0.91812   0.03112   0.00000  Uiso   1.00
N45    N     0.95351   0.61288   0.73135   0.00000  Uiso   1.00
N46    N     0.21049   0.34368   0.12269   0.00000  Uiso   1.00
C47    C     0.81330   0.32089   0.38672   0.00000  Uiso   1.00
C48    C     0.84605   0.25347   0.29133   0.00000  Uiso   1.00
C49    C     0.81556   0.16903   0.25811   0.00000  Uiso   1.00
C50    C     0.85401   0.11747   0.16902   0.00000  Uiso   1.00
C51    C     0.89476   0.00792   0.02915   0.00000  Uiso   1.00
C52    C     0.87432   0.33758   0.48433   0.00000  Uiso   1.00
C53    C     0.86760   0.32387   0.61337   0.00000  Uiso   1.00
C54    C     0.92985   0.34313   0.68674   0.00000  Uiso   1.00
C55    C     0.01446   0.36423   0.84650   0.00000  Uiso   1.00
C56    C     0.80349   0.41176   0.31656   0.00000  Uiso   1.00
C57    C     0.73722   0.46044   0.30458   0.00000  Uiso   1.00
C58    C     0.73984   0.54216   0.23672   0.00000  Uiso   1.00
C59    C     0.71449   0.67844   0.13601   0.00000  Uiso   1.00
C60    C     0.93580   0.37948   0.28758   0.00000  Uiso   1.00
C61    C     0.91258   0.28530   0.23749   0.00000  Uiso   1.00
C62    C     0.95109   0.23385   0.14842   0.00000  Uiso   1.00
C63    C     0.92067   0.14935   0.11507   0.00000  Uiso   1.00
C64    C     0.94085   0.36941   0.43048   0.00000  Uiso   1.00
C65    C     0.00312   0.38870   0.50368   0.00000  Uiso   1.00
C66    C     0.99650   0.37501   0.63279   0.00000  Uiso   1.00
C67    C     0.87002   0.44359   0.26271   0.00000  Uiso   1.00
C68    C     0.87275   0.52526   0.19488   0.00000  Uiso   1.00
C69    C     0.80650   0.57404   0.18278   0.00000  Uiso   1.00
H70    H     0.76151   0.29611   0.42865   0.00000  Uiso   1.00
H71    H     0.76408   0.14442   0.29982   0.00000  Uiso   1.00
H72    H     0.81610   0.29925   0.65501   0.00000  Uiso   1.00
H73    H     0.68575   0.43579   0.34626   0.00000  Uiso   1.00
H74    H     0.79628   0.99026   0.13326   0.00000  Uiso   1.00
H75    H     0.90597   0.31676   0.88223   0.00000  Uiso   1.00
H76    H     0.63109   0.60468   0.23116   0.00000  Uiso   1.00
H77    H     0.98760   0.40426   0.24565   0.00000  Uiso   1.00
H78    H     0.00258   0.25850   0.10677   0.00000  Uiso   1.00
H79    H     0.05460   0.41333   0.46197   0.00000  Uiso   1.00
H80    H     0.92425   0.54986   0.15322   0.00000  Uiso   1.00
H81    H     0.98986   0.08285   0.97658   0.00000  Uiso   1.00
H82    H     0.09954   0.40935   0.72555   0.00000  Uiso   1.00
H83    H     0.82467   0.69727   0.07448   0.00000  Uiso   1.00
O84    O     0.89886   0.93870   0.96690   0.00000  Uiso   1.00
O85    O     0.04275   0.36707   0.94951   0.00000  Uiso   1.00
O86    O     0.68212   0.74481   0.09532   0.00000  Uiso   1.00
N87    N     0.83978   0.03206   0.11543   0.00000  Uiso   1.00
N88    N     0.94233   0.33730   0.81566   0.00000  Uiso   1.00
N89    N     0.68535   0.60650   0.20700   0.00000  Uiso   1.00
N90    N     0.94394   0.08188   0.03112   0.00000  Uiso   1.00
N91    N     0.04649   0.38712   0.73135   0.00000  Uiso   1.00
N92    N     0.78951   0.65632   0.12269   0.00000  Uiso   1.00
C93    C     0.31330   0.17911   0.61328   0.00000  Uiso   1.00
C94    C     0.34605   0.24653   0.70867   0.00000  Uiso   1.00
C95    C     0.31556   0.33097   0.74189   0.00000  Uiso   1.00
C96    C     0.35401   0.38253   0.83098   0.00000  Uiso   1.00
C97    C     0.39476   0.49208   0.97085   0.00000  Uiso   1.00
C98    C     0.37432   0.16242   0.51567   0.00000  Uiso   1.00
C99    C     0.36760   0.17613   0.38663   0.00000  Uiso   1.00
C100   C     0.42985   0.15687   0.31326   0.00000  Uiso   1.00
C101   C     0.51446   0.13577   0.15350   0.00000  Uiso   1.00
C102   C     0.30349   0.08824   0.68344   0.00000  Uiso   1.00
C103   C     0.23722   0.03956   0.69542   0.00000  Uiso   1.00
C104   C     0.23984   0.95784   0.76328   0.00000  Uiso   1.00
C105   C     0.21449   0.82156   0.86399   0.00000  Uiso   1.00
C106   C     0.43580   0.12052   0.71242   0.00000  Uiso   1.00
C107   C     0.41258   0.21470   0.76251   0.00000  Uiso   1.00
C108   C     0.45109   0.26615   0.85158   0.00000  Uiso   1.00
C109   C     0.42067   0.35065   0.88493   0.00000  Uiso   1.00
C110   C     0.44085   0.13059   0.56952   0.00000  Uiso   1.00
C111   C     0.50312   0.11130   0.49632   0.00000  Uiso   1.00
C112   C     0.49650   0.12499   0.36721   0.00000  Uiso   1.00
C113   C     0.37002   0.05641   0.73729   0.00000  Uiso   1.00
C114   C     0.37275   0.97474   0.80512   0.00000  Uiso   1.00
C115   C     0.30650   0.92596   0.81722   0.00000  Uiso   1.00
H116   H     0.26151   0.20389   0.57135   0.00000  Uiso   1.00
H117   H     0.26408   0.35558   0.70018   0.00000  Uiso   1.00
H118   H     0.31610   0.20075   0.34499   0.00000  Uiso   1.00
H119   H     0.18575   0.06421   0.65374   0.00000  Uiso   1.00
H120   H     0.29628   0.50974   0.86674   0.00000  Uiso   1.00
H121   H     0.40597   0.18324   0.11777   0.00000  Uiso   1.00
H122   H     0.13109   0.89532   0.76884   0.00000  Uiso   1.00
H123   H     0.48760   0.09574   0.75435   0.00000  Uiso   1.00
H124   H     0.50258   0.24150   0.89323   0.00000  Uiso   1.00
H125   H     0.55460   0.08667   0.53803   0.00000  Uiso   1.00
H126   H     0.42425   0.95014   0.84678   0.00000  Uiso   1.00
H127   H     0.48986   0.41715   0.02342   0.00000  Uiso   1.00
H128   H     0.59954   0.09065   0.27445   0.00000  Uiso   1.00
H129   H     0.32467   0.80273   0.92552   0.00000  Uiso   1.00
O130   O     0.39886   0.56130   0.03310   0.00000  Uiso   1.00
O131   O     0.54275   0.13293   0.05049   0.00000  Uiso   1.00
O132   O     0.18212   0.75519   0.90468   0.00000  Uiso   1.00
N133   N     0.33978   0.46794   0.88457   0.00000  Uiso   1.00
N134   N     0.44233   0.16270   0.18434   0.00000  Uiso   1.00
N135   N     0.18535   0.89350   0.79300   0.00000  Uiso   1.00
N136   N     0.44394   0.41812   0.96888   0.00000  Uiso   1.00
N137   N     0.54649   0.11288   0.26865   0.00000  Uiso   1.00
N138   N     0.28951   0.84368   0.87731   0.00000  Uiso   1.00
C139   C     0.68670   0.82089   0.61328   0.00000  Uiso   1.00
C140   C     0.65395   0.75347   0.70867   0.00000  Uiso   1.00
C141   C     0.68444   0.66903   0.74189   0.00000  Uiso   1.00
C142   C     0.64599   0.61747   0.83098   0.00000  Uiso   1.00
C143   C     0.60524   0.50792   0.97085   0.00000  Uiso   1.00
C144   C     0.62568   0.83758   0.51567   0.00000  Uiso   1.00
C145   C     0.63240   0.82387   0.38663   0.00000  Uiso   1.00
C146   C     0.57015   0.84313   0.31326   0.00000  Uiso   1.00
C147   C     0.48554   0.86423   0.15350   0.00000  Uiso   1.00
C148   C     0.69651   0.91176   0.68344   0.00000  Uiso   1.00
C149   C     0.76278   0.96044   0.69542   0.00000  Uiso   1.00
C150   C     0.76016   0.04216   0.76328   0.00000  Uiso   1.00
C151   C     0.78551   0.17844   0.86399   0.00000  Uiso   1.00
C152   C     0.56420   0.87948   0.71242   0.00000  Uiso   1.00
C153   C     0.58742   0.78530   0.76251   0.00000  Uiso   1.00
C154   C     0.54891   0.73385   0.85158   0.00000  Uiso   1.00
C155   C     0.57933   0.64935   0.88493   0.00000  Uiso   1.00
C156   C     0.55915   0.86941   0.56952   0.00000  Uiso   1.00
C157   C     0.49688   0.88870   0.49632   0.00000  Uiso   1.00
C158   C     0.50350   0.87501   0.36721   0.00000  Uiso   1.00
C159   C     0.62998   0.94359   0.73729   0.00000  Uiso   1.00
C160   C     0.62725   0.02526   0.80512   0.00000  Uiso   1.00
C161   C     0.69350   0.07404   0.81722   0.00000  Uiso   1.00
H162   H     0.73849   0.79611   0.57135   0.00000  Uiso   1.00
H163   H     0.73592   0.64442   0.70018   0.00000  Uiso   1.00
H164   H     0.68390   0.79925   0.34499   0.00000  Uiso   1.00
H165   H     0.81425   0.93579   0.65374   0.00000  Uiso   1.00
H166   H     0.70372   0.49026   0.86674   0.00000  Uiso   1.00
H167   H     0.59403   0.81676   0.11777   0.00000  Uiso   1.00
H168   H     0.86891   0.10468   0.76884   0.00000  Uiso   1.00
H169   H     0.51240   0.90426   0.75435   0.00000  Uiso   1.00
H170   H     0.49742   0.75850   0.89323   0.00000  Uiso   1.00
H171   H     0.44540   0.91333   0.53803   0.00000  Uiso   1.00
H172   H     0.57575   0.04986   0.84678   0.00000  Uiso   1.00
H173   H     0.51014   0.58285   0.02342   0.00000  Uiso   1.00
H174   H     0.40046   0.90935   0.27445   0.00000  Uiso   1.00
H175   H     0.67533   0.19727   0.92552   0.00000  Uiso   1.00
O176   O     0.60114   0.43870   0.03310   0.00000  Uiso   1.00
O177   O     0.45725   0.86707   0.05049   0.00000  Uiso   1.00
O178   O     0.81788   0.24481   0.90468   0.00000  Uiso   1.00
N179   N     0.66022   0.53206   0.88457   0.00000  Uiso   1.00
N180   N     0.55767   0.83730   0.18434   0.00000  Uiso   1.00
N181   N     0.81465   0.10650   0.79300   0.00000  Uiso   1.00
N182   N     0.55606   0.58188   0.96888   0.00000  Uiso   1.00
N183   N     0.45351   0.88712   0.26865   0.00000  Uiso   1.00
N184   N     0.71049   0.15632   0.87731   0.00000  Uiso   1.00
