data_job_03848
_audit_creation_date              2018-12-19
_audit_creation_method            'Materials Studio'
_symmetry_space_group_name_H-M    'P1'
_symmetry_Int_Tables_number       1
_symmetry_cell_setting            triclinic
loop_
_symmetry_equiv_pos_as_xyz
  x,y,z
_cell_length_a                    11.4302
_cell_length_b                    12.6206
_cell_length_c                    13.0587
_cell_angle_alpha                 68.1190
_cell_angle_beta                  88.1510
_cell_angle_gamma                 66.9632
loop_
_atom_site_label
_atom_site_type_symbol
_atom_site_fract_x
_atom_site_fract_y
_atom_site_fract_z
_atom_site_U_iso_or_equiv
_atom_site_adp_type
_atom_site_occupancy
C1     C     0.68329   0.93719   0.85863   0.00000  Uiso   1.00
C2     C     0.74895   0.02281   0.85479   0.00000  Uiso   1.00
C3     C     0.78570   0.04019   0.94552   0.00000  Uiso   1.00
C4     C     0.84442   0.12252   0.92468   0.00000  Uiso   1.00
C5     C     0.94310   0.24599   0.93511   0.00000  Uiso   1.00
C6     C     0.55941   0.01986   0.77788   0.00000  Uiso   1.00
C7     C     0.43680   0.03473   0.80394   0.00000  Uiso   1.00
C8     C     0.33596   0.11457   0.71835   0.00000  Uiso   1.00
C9     C     0.14039   0.23337   0.60935   0.00000  Uiso   1.00
C10    C     0.76818   0.84795   0.80728   0.00000  Uiso   1.00
C11    C     0.82107   0.71828   0.85804   0.00000  Uiso   1.00
C12    C     0.89598   0.65338   0.79718   0.00000  Uiso   1.00
C13    C     0.02455   0.50527   0.73383   0.00000  Uiso   1.00
C14    C     0.72223   0.05252   0.66029   0.00000  Uiso   1.00
C15    C     0.77010   0.08545   0.74706   0.00000  Uiso   1.00
C16    C     0.82879   0.16778   0.72608   0.00000  Uiso   1.00
C17    C     0.86562   0.18527   0.81675   0.00000  Uiso   1.00
C18    C     0.58056   0.08250   0.67016   0.00000  Uiso   1.00
C19    C     0.47988   0.16232   0.58450   0.00000  Uiso   1.00
C20    C     0.35715   0.17732   0.61042   0.00000  Uiso   1.00
C21    C     0.78933   0.91059   0.69955   0.00000  Uiso   1.00
C22    C     0.86416   0.84588   0.63860   0.00000  Uiso   1.00
C23    C     0.91717   0.71613   0.68926   0.00000  Uiso   1.00
H24    H     0.66681   0.88843   0.94250   0.00000  Uiso   1.00
H25    H     0.76930   0.99170   0.02887   0.00000  Uiso   1.00
H26    H     0.42046   0.98624   0.88731   0.00000  Uiso   1.00
H27    H     0.80468   0.66984   0.94141   0.00000  Uiso   1.00
H28    H     0.89222   0.13386   0.07712   0.00000  Uiso   1.00
H29    H     0.15666   0.12230   0.77863   0.00000  Uiso   1.00
H30    H     0.96687   0.45511   0.89269   0.00000  Uiso   1.00
H31    H     0.73870   0.10129   0.57641   0.00000  Uiso   1.00
H32    H     0.84514   0.21624   0.64270   0.00000  Uiso   1.00
H33    H     0.49629   0.21078   0.50114   0.00000  Uiso   1.00
H34    H     0.88051   0.89438   0.55524   0.00000  Uiso   1.00
H35    H     0.95376   0.31611   0.76369   0.00000  Uiso   1.00
H36    H     0.21821   0.30455   0.46520   0.00000  Uiso   1.00
H37    H     0.02842   0.63736   0.57926   0.00000  Uiso   1.00
O38    O     0.99167   0.29680   0.97062   0.00000  Uiso   1.00
O39    O     0.02666   0.28161   0.57900   0.00000  Uiso   1.00
O40    O     0.08964   0.40628   0.72865   0.00000  Uiso   1.00
N41    N     0.89212   0.16096   0.99426   0.00000  Uiso   1.00
N42    N     0.20442   0.15017   0.71519   0.00000  Uiso   1.00
N43    N     0.96186   0.52640   0.82182   0.00000  Uiso   1.00
N44    N     0.92524   0.25902   0.82561   0.00000  Uiso   1.00
N45    N     0.23754   0.24823   0.54654   0.00000  Uiso   1.00
N46    N     0.99498   0.62446   0.65317   0.00000  Uiso   1.00
C47    C     0.31671   0.06281   0.14137   0.00000  Uiso   1.00
C48    C     0.25105   0.97719   0.14521   0.00000  Uiso   1.00
C49    C     0.21430   0.95981   0.05448   0.00000  Uiso   1.00
C50    C     0.15558   0.87748   0.07532   0.00000  Uiso   1.00
C51    C     0.05690   0.75401   0.06489   0.00000  Uiso   1.00
C52    C     0.44059   0.98014   0.22212   0.00000  Uiso   1.00
C53    C     0.56320   0.96527   0.19606   0.00000  Uiso   1.00
C54    C     0.66404   0.88543   0.28165   0.00000  Uiso   1.00
C55    C     0.85961   0.76663   0.39065   0.00000  Uiso   1.00
C56    C     0.23182   0.15205   0.19272   0.00000  Uiso   1.00
C57    C     0.17893   0.28172   0.14196   0.00000  Uiso   1.00
C58    C     0.10402   0.34662   0.20282   0.00000  Uiso   1.00
C59    C     0.97545   0.49473   0.26617   0.00000  Uiso   1.00
C60    C     0.27777   0.94748   0.33971   0.00000  Uiso   1.00
C61    C     0.22990   0.91455   0.25294   0.00000  Uiso   1.00
C62    C     0.17121   0.83222   0.27392   0.00000  Uiso   1.00
C63    C     0.13438   0.81473   0.18325   0.00000  Uiso   1.00
C64    C     0.41944   0.91750   0.32984   0.00000  Uiso   1.00
C65    C     0.52012   0.83768   0.41550   0.00000  Uiso   1.00
C66    C     0.64285   0.82268   0.38958   0.00000  Uiso   1.00
C67    C     0.21067   0.08941   0.30045   0.00000  Uiso   1.00
C68    C     0.13584   0.15412   0.36140   0.00000  Uiso   1.00
C69    C     0.08283   0.28387   0.31074   0.00000  Uiso   1.00
H70    H     0.33319   0.11157   0.05750   0.00000  Uiso   1.00
H71    H     0.23070   0.00830   0.97113   0.00000  Uiso   1.00
H72    H     0.57954   0.01376   0.11269   0.00000  Uiso   1.00
H73    H     0.19532   0.33016   0.05859   0.00000  Uiso   1.00
H74    H     0.10778   0.86614   0.92288   0.00000  Uiso   1.00
H75    H     0.84334   0.87770   0.22137   0.00000  Uiso   1.00
H76    H     0.03313   0.54489   0.10731   0.00000  Uiso   1.00
H77    H     0.26130   0.89871   0.42359   0.00000  Uiso   1.00
H78    H     0.15486   0.78376   0.35730   0.00000  Uiso   1.00
H79    H     0.50371   0.78922   0.49886   0.00000  Uiso   1.00
H80    H     0.11949   0.10562   0.44476   0.00000  Uiso   1.00
H81    H     0.04624   0.68389   0.23631   0.00000  Uiso   1.00
H82    H     0.78179   0.69545   0.53480   0.00000  Uiso   1.00
H83    H     0.97158   0.36264   0.42074   0.00000  Uiso   1.00
O84    O     0.00833   0.70320   0.02938   0.00000  Uiso   1.00
O85    O     0.97334   0.71839   0.42100   0.00000  Uiso   1.00
O86    O     0.91036   0.59372   0.27135   0.00000  Uiso   1.00
N87    N     0.10788   0.83904   0.00574   0.00000  Uiso   1.00
N88    N     0.79558   0.84983   0.28481   0.00000  Uiso   1.00
N89    N     0.03814   0.47360   0.17818   0.00000  Uiso   1.00
N90    N     0.07476   0.74098   0.17439   0.00000  Uiso   1.00
N91    N     0.76246   0.75177   0.45346   0.00000  Uiso   1.00
N92    N     0.00502   0.37554   0.34683   0.00000  Uiso   1.00
