data_job_04904
_audit_creation_date              2018-12-19
_audit_creation_method            'Materials Studio'
_symmetry_space_group_name_H-M    'P1'
_symmetry_Int_Tables_number       1
_symmetry_cell_setting            triclinic
loop_
_symmetry_equiv_pos_as_xyz
  x,y,z
_cell_length_a                    9.7519
_cell_length_b                    14.7077
_cell_length_c                    40.2770
_cell_angle_alpha                 90.0000
_cell_angle_beta                  90.0000
_cell_angle_gamma                 90.0000
loop_
_atom_site_label
_atom_site_type_symbol
_atom_site_fract_x
_atom_site_fract_y
_atom_site_fract_z
_atom_site_U_iso_or_equiv
_atom_site_adp_type
_atom_site_occupancy
C1     C     0.79385   0.98106   0.42197   0.00000  Uiso   1.00
C2     C     0.82089   0.93319   0.38903   0.00000  Uiso   1.00
C3     C     0.94347   0.89275   0.37964   0.00000  Uiso   1.00
C4     C     0.94753   0.85250   0.34847   0.00000  Uiso   1.00
C5     C     0.00695   0.77818   0.30051   0.00000  Uiso   1.00
C6     C     0.74615   0.07680   0.41314   0.00000  Uiso   1.00
C7     C     0.80587   0.15709   0.42403   0.00000  Uiso   1.00
C8     C     0.74699   0.23773   0.41316   0.00000  Uiso   1.00
C9     C     0.69030   0.38635   0.40265   0.00000  Uiso   1.00
C10    C     0.67008   0.93350   0.43725   0.00000  Uiso   1.00
C11    C     0.66583   0.89334   0.46842   0.00000  Uiso   1.00
C12    C     0.54289   0.85335   0.47786   0.00000  Uiso   1.00
C13    C     0.36810   0.77949   0.50479   0.00000  Uiso   1.00
C14    C     0.58307   0.98149   0.38333   0.00000  Uiso   1.00
C15    C     0.70640   0.93343   0.36804   0.00000  Uiso   1.00
C16    C     0.71027   0.89323   0.33688   0.00000  Uiso   1.00
C17    C     0.83283   0.85273   0.32744   0.00000  Uiso   1.00
C18    C     0.63166   0.07703   0.39215   0.00000  Uiso   1.00
C19    C     0.57267   0.15757   0.38127   0.00000  Uiso   1.00
C20    C     0.63229   0.23797   0.39213   0.00000  Uiso   1.00
C21    C     0.55559   0.93374   0.41627   0.00000  Uiso   1.00
C22    C     0.43263   0.89381   0.42566   0.00000  Uiso   1.00
C23    C     0.42819   0.85359   0.45683   0.00000  Uiso   1.00
H24    H     0.88299   0.98089   0.43831   0.00000  Uiso   1.00
H25    H     0.03206   0.89259   0.39588   0.00000  Uiso   1.00
H26    H     0.89446   0.15689   0.44027   0.00000  Uiso   1.00
H27    H     0.75445   0.89317   0.48465   0.00000  Uiso   1.00
H28    H     0.14686   0.79484   0.33959   0.00000  Uiso   1.00
H29    H     0.85671   0.35212   0.43319   0.00000  Uiso   1.00
H30    H     0.56145   0.79602   0.52678   0.00000  Uiso   1.00
H31    H     0.49393   0.98168   0.36699   0.00000  Uiso   1.00
H32    H     0.62165   0.89342   0.32065   0.00000  Uiso   1.00
H33    H     0.48406   0.15772   0.36503   0.00000  Uiso   1.00
H34    H     0.34405   0.89400   0.40941   0.00000  Uiso   1.00
H35    H     0.81376   0.79551   0.27852   0.00000  Uiso   1.00
H36    H     0.52360   0.35280   0.37212   0.00000  Uiso   1.00
H37    H     0.22835   0.79670   0.46571   0.00000  Uiso   1.00
O38    O     0.07136   0.73713   0.27985   0.00000  Uiso   1.00
O39    O     0.69068   0.46826   0.40266   0.00000  Uiso   1.00
O40    O     0.30332   0.73867   0.52544   0.00000  Uiso   1.00
N41    N     0.05092   0.80709   0.33158   0.00000  Uiso   1.00
N42    N     0.77967   0.32812   0.41908   0.00000  Uiso   1.00
N43    N     0.50362   0.80823   0.50658   0.00000  Uiso   1.00
N44    N     0.87169   0.80745   0.29872   0.00000  Uiso   1.00
N45    N     0.60043   0.32848   0.38622   0.00000  Uiso   1.00
N46    N     0.32438   0.80860   0.47372   0.00000  Uiso   1.00
C47    C     0.95866   0.48296   0.59040   0.00000  Uiso   1.00
C48    C     0.93170   0.43588   0.62350   0.00000  Uiso   1.00
C49    C     0.80896   0.39601   0.63310   0.00000  Uiso   1.00
C50    C     0.80502   0.35644   0.66438   0.00000  Uiso   1.00
C51    C     0.74569   0.28333   0.71259   0.00000  Uiso   1.00
C52    C     0.00713   0.57874   0.59892   0.00000  Uiso   1.00
C53    C     0.94782   0.65898   0.58785   0.00000  Uiso   1.00
C54    C     0.00739   0.73966   0.59844   0.00000  Uiso   1.00
C55    C     0.06523   0.88833   0.60848   0.00000  Uiso   1.00
C56    C     0.08191   0.43470   0.57516   0.00000  Uiso   1.00
C57    C     0.08550   0.39386   0.54412   0.00000  Uiso   1.00
C58    C     0.20804   0.35330   0.53470   0.00000  Uiso   1.00
C59    C     0.38199   0.27833   0.50785   0.00000  Uiso   1.00
C60    C     0.16993   0.48358   0.62889   0.00000  Uiso   1.00
C61    C     0.04646   0.43622   0.64440   0.00000  Uiso   1.00
C62    C     0.04270   0.39670   0.67568   0.00000  Uiso   1.00
C63    C     0.91998   0.35678   0.68532   0.00000  Uiso   1.00
C64    C     0.12188   0.57907   0.61983   0.00000  Uiso   1.00
C65    C     0.18156   0.65966   0.63043   0.00000  Uiso   1.00
C66    C     0.12235   0.74000   0.61939   0.00000  Uiso   1.00
C67    C     0.19667   0.43503   0.59607   0.00000  Uiso   1.00
C68    C     0.31924   0.39454   0.58670   0.00000  Uiso   1.00
C69    C     0.32300   0.35363   0.55564   0.00000  Uiso   1.00
H70    H     0.86932   0.48271   0.57413   0.00000  Uiso   1.00
H71    H     0.72017   0.39578   0.61691   0.00000  Uiso   1.00
H72    H     0.85903   0.65870   0.57167   0.00000  Uiso   1.00
H73    H     0.99668   0.39361   0.52795   0.00000  Uiso   1.00
H74    H     0.60541   0.29957   0.67357   0.00000  Uiso   1.00
H75    H     0.89821   0.85395   0.57817   0.00000  Uiso   1.00
H76    H     0.18848   0.29498   0.48596   0.00000  Uiso   1.00
H77    H     0.25927   0.48384   0.64517   0.00000  Uiso   1.00
H78    H     0.13152   0.39697   0.69185   0.00000  Uiso   1.00
H79    H     0.27037   0.65989   0.64661   0.00000  Uiso   1.00
H80    H     0.40802   0.39481   0.60288   0.00000  Uiso   1.00
H81    H     0.93927   0.30055   0.73439   0.00000  Uiso   1.00
H82    H     0.23208   0.85493   0.63899   0.00000  Uiso   1.00
H83    H     0.52234   0.29595   0.54678   0.00000  Uiso   1.00
O84    O     0.68126   0.24292   0.73341   0.00000  Uiso   1.00
O85    O     0.06542   0.97024   0.60825   0.00000  Uiso   1.00
O86    O     0.44623   0.23687   0.48727   0.00000  Uiso   1.00
N87    N     0.70153   0.31171   0.68148   0.00000  Uiso   1.00
N88    N     0.97527   0.83002   0.59229   0.00000  Uiso   1.00
N89    N     0.24665   0.30745   0.50607   0.00000  Uiso   1.00
N90    N     0.88117   0.31223   0.71420   0.00000  Uiso   1.00
N91    N     0.15491   0.83054   0.62502   0.00000  Uiso   1.00
N92    N     0.42629   0.30797   0.53880   0.00000  Uiso   1.00
C93    C     0.20615   0.01894   0.92197   0.00000  Uiso   1.00
C94    C     0.17911   0.06681   0.88903   0.00000  Uiso   1.00
C95    C     0.05653   0.10725   0.87964   0.00000  Uiso   1.00
C96    C     0.05247   0.14750   0.84847   0.00000  Uiso   1.00
C97    C     0.99305   0.22182   0.80051   0.00000  Uiso   1.00
C98    C     0.25385   0.92320   0.91314   0.00000  Uiso   1.00
C99    C     0.19413   0.84291   0.92403   0.00000  Uiso   1.00
C100   C     0.25301   0.76227   0.91316   0.00000  Uiso   1.00
C101   C     0.30970   0.61365   0.90265   0.00000  Uiso   1.00
C102   C     0.32992   0.06650   0.93725   0.00000  Uiso   1.00
C103   C     0.33417   0.10666   0.96842   0.00000  Uiso   1.00
C104   C     0.45711   0.14665   0.97786   0.00000  Uiso   1.00
C105   C     0.63190   0.22051   0.00479   0.00000  Uiso   1.00
C106   C     0.41693   0.01851   0.88333   0.00000  Uiso   1.00
C107   C     0.29360   0.06657   0.86804   0.00000  Uiso   1.00
C108   C     0.28973   0.10677   0.83688   0.00000  Uiso   1.00
C109   C     0.16717   0.14727   0.82744   0.00000  Uiso   1.00
C110   C     0.36834   0.92297   0.89215   0.00000  Uiso   1.00
C111   C     0.42733   0.84243   0.88127   0.00000  Uiso   1.00
C112   C     0.36771   0.76203   0.89213   0.00000  Uiso   1.00
C113   C     0.44441   0.06626   0.91627   0.00000  Uiso   1.00
C114   C     0.56737   0.10619   0.92566   0.00000  Uiso   1.00
C115   C     0.57181   0.14641   0.95683   0.00000  Uiso   1.00
H116   H     0.11701   0.01911   0.93831   0.00000  Uiso   1.00
H117   H     0.96794   0.10741   0.89588   0.00000  Uiso   1.00
H118   H     0.10554   0.84311   0.94027   0.00000  Uiso   1.00
H119   H     0.24555   0.10683   0.98465   0.00000  Uiso   1.00
H120   H     0.85314   0.20516   0.83959   0.00000  Uiso   1.00
H121   H     0.14329   0.64788   0.93319   0.00000  Uiso   1.00
H122   H     0.43855   0.20398   0.02678   0.00000  Uiso   1.00
H123   H     0.50607   0.01832   0.86699   0.00000  Uiso   1.00
H124   H     0.37835   0.10658   0.82065   0.00000  Uiso   1.00
H125   H     0.51594   0.84228   0.86503   0.00000  Uiso   1.00
H126   H     0.65595   0.10600   0.90941   0.00000  Uiso   1.00
H127   H     0.18624   0.20449   0.77852   0.00000  Uiso   1.00
H128   H     0.47640   0.64720   0.87212   0.00000  Uiso   1.00
H129   H     0.77165   0.20330   0.96571   0.00000  Uiso   1.00
O130   O     0.92864   0.26287   0.77985   0.00000  Uiso   1.00
O131   O     0.30932   0.53174   0.90266   0.00000  Uiso   1.00
O132   O     0.69668   0.26133   0.02544   0.00000  Uiso   1.00
N133   N     0.94908   0.19291   0.83158   0.00000  Uiso   1.00
N134   N     0.22033   0.67188   0.91908   0.00000  Uiso   1.00
N135   N     0.49638   0.19177   0.00658   0.00000  Uiso   1.00
N136   N     0.12831   0.19255   0.79872   0.00000  Uiso   1.00
N137   N     0.39957   0.67152   0.88622   0.00000  Uiso   1.00
N138   N     0.67562   0.19140   0.97372   0.00000  Uiso   1.00
C139   C     0.04134   0.51704   0.09040   0.00000  Uiso   1.00
C140   C     0.06830   0.56412   0.12350   0.00000  Uiso   1.00
C141   C     0.19104   0.60399   0.13310   0.00000  Uiso   1.00
C142   C     0.19498   0.64356   0.16438   0.00000  Uiso   1.00
C143   C     0.25431   0.71667   0.21259   0.00000  Uiso   1.00
C144   C     0.99287   0.42126   0.09892   0.00000  Uiso   1.00
C145   C     0.05218   0.34102   0.08785   0.00000  Uiso   1.00
C146   C     0.99261   0.26034   0.09844   0.00000  Uiso   1.00
C147   C     0.93477   0.11167   0.10848   0.00000  Uiso   1.00
C148   C     0.91809   0.56530   0.07516   0.00000  Uiso   1.00
C149   C     0.91450   0.60614   0.04412   0.00000  Uiso   1.00
C150   C     0.79196   0.64670   0.03470   0.00000  Uiso   1.00
C151   C     0.61801   0.72167   0.00785   0.00000  Uiso   1.00
C152   C     0.83007   0.51642   0.12889   0.00000  Uiso   1.00
C153   C     0.95354   0.56378   0.14440   0.00000  Uiso   1.00
C154   C     0.95730   0.60330   0.17568   0.00000  Uiso   1.00
C155   C     0.08002   0.64322   0.18532   0.00000  Uiso   1.00
C156   C     0.87812   0.42093   0.11983   0.00000  Uiso   1.00
C157   C     0.81844   0.34034   0.13043   0.00000  Uiso   1.00
C158   C     0.87765   0.26000   0.11939   0.00000  Uiso   1.00
C159   C     0.80333   0.56497   0.09607   0.00000  Uiso   1.00
C160   C     0.68076   0.60546   0.08670   0.00000  Uiso   1.00
C161   C     0.67700   0.64637   0.05564   0.00000  Uiso   1.00
H162   H     0.13068   0.51729   0.07413   0.00000  Uiso   1.00
H163   H     0.27983   0.60422   0.11691   0.00000  Uiso   1.00
H164   H     0.14097   0.34130   0.07167   0.00000  Uiso   1.00
H165   H     0.00332   0.60639   0.02795   0.00000  Uiso   1.00
H166   H     0.39459   0.70043   0.17357   0.00000  Uiso   1.00
H167   H     0.10179   0.14605   0.07817   0.00000  Uiso   1.00
H168   H     0.81152   0.70502   0.98596   0.00000  Uiso   1.00
H169   H     0.74073   0.51616   0.14517   0.00000  Uiso   1.00
H170   H     0.86848   0.60303   0.19185   0.00000  Uiso   1.00
H171   H     0.72963   0.34011   0.14661   0.00000  Uiso   1.00
H172   H     0.59198   0.60519   0.10288   0.00000  Uiso   1.00
H173   H     0.06073   0.69945   0.23439   0.00000  Uiso   1.00
H174   H     0.76792   0.14507   0.13899   0.00000  Uiso   1.00
H175   H     0.47766   0.70405   0.04678   0.00000  Uiso   1.00
O176   O     0.31874   0.75708   0.23341   0.00000  Uiso   1.00
O177   O     0.93458   0.02976   0.10825   0.00000  Uiso   1.00
O178   O     0.55377   0.76313   0.98727   0.00000  Uiso   1.00
N179   N     0.29847   0.68829   0.18148   0.00000  Uiso   1.00
N180   N     0.02473   0.16998   0.09229   0.00000  Uiso   1.00
N181   N     0.75335   0.69255   0.00607   0.00000  Uiso   1.00
N182   N     0.11883   0.68777   0.21420   0.00000  Uiso   1.00
N183   N     0.84509   0.16946   0.12502   0.00000  Uiso   1.00
N184   N     0.57371   0.69203   0.03880   0.00000  Uiso   1.00
C185   C     0.29385   0.51894   0.42197   0.00000  Uiso   1.00
C186   C     0.32089   0.56681   0.38903   0.00000  Uiso   1.00
C187   C     0.44347   0.60725   0.37964   0.00000  Uiso   1.00
C188   C     0.44753   0.64750   0.34847   0.00000  Uiso   1.00
C189   C     0.50695   0.72182   0.30051   0.00000  Uiso   1.00
C190   C     0.24615   0.42320   0.41314   0.00000  Uiso   1.00
C191   C     0.30587   0.34291   0.42403   0.00000  Uiso   1.00
C192   C     0.24699   0.26227   0.41316   0.00000  Uiso   1.00
C193   C     0.19030   0.11365   0.40265   0.00000  Uiso   1.00
C194   C     0.17008   0.56650   0.43725   0.00000  Uiso   1.00
C195   C     0.16583   0.60666   0.46842   0.00000  Uiso   1.00
C196   C     0.04289   0.64665   0.47786   0.00000  Uiso   1.00
C197   C     0.86810   0.72051   0.50479   0.00000  Uiso   1.00
C198   C     0.08307   0.51851   0.38333   0.00000  Uiso   1.00
C199   C     0.20640   0.56657   0.36804   0.00000  Uiso   1.00
C200   C     0.21027   0.60677   0.33688   0.00000  Uiso   1.00
C201   C     0.33283   0.64727   0.32744   0.00000  Uiso   1.00
C202   C     0.13166   0.42297   0.39215   0.00000  Uiso   1.00
C203   C     0.07267   0.34243   0.38127   0.00000  Uiso   1.00
C204   C     0.13229   0.26203   0.39213   0.00000  Uiso   1.00
C205   C     0.05559   0.56626   0.41627   0.00000  Uiso   1.00
C206   C     0.93263   0.60619   0.42566   0.00000  Uiso   1.00
C207   C     0.92819   0.64641   0.45683   0.00000  Uiso   1.00
H208   H     0.38299   0.51911   0.43831   0.00000  Uiso   1.00
H209   H     0.53206   0.60741   0.39588   0.00000  Uiso   1.00
H210   H     0.39446   0.34311   0.44027   0.00000  Uiso   1.00
H211   H     0.25445   0.60683   0.48465   0.00000  Uiso   1.00
H212   H     0.64686   0.70516   0.33959   0.00000  Uiso   1.00
H213   H     0.35671   0.14788   0.43319   0.00000  Uiso   1.00
H214   H     0.06145   0.70398   0.52678   0.00000  Uiso   1.00
H215   H     0.99393   0.51832   0.36699   0.00000  Uiso   1.00
H216   H     0.12165   0.60658   0.32065   0.00000  Uiso   1.00
H217   H     0.98406   0.34228   0.36503   0.00000  Uiso   1.00
H218   H     0.84405   0.60600   0.40941   0.00000  Uiso   1.00
H219   H     0.31376   0.70449   0.27852   0.00000  Uiso   1.00
H220   H     0.02360   0.14720   0.37212   0.00000  Uiso   1.00
H221   H     0.72835   0.70330   0.46571   0.00000  Uiso   1.00
O222   O     0.57136   0.76287   0.27985   0.00000  Uiso   1.00
O223   O     0.19068   0.03174   0.40266   0.00000  Uiso   1.00
O224   O     0.80332   0.76133   0.52544   0.00000  Uiso   1.00
N225   N     0.55092   0.69291   0.33158   0.00000  Uiso   1.00
N226   N     0.27967   0.17188   0.41908   0.00000  Uiso   1.00
N227   N     0.00362   0.69177   0.50658   0.00000  Uiso   1.00
N228   N     0.37169   0.69255   0.29872   0.00000  Uiso   1.00
N229   N     0.10043   0.17152   0.38622   0.00000  Uiso   1.00
N230   N     0.82438   0.69140   0.47372   0.00000  Uiso   1.00
C231   C     0.45866   0.01704   0.59040   0.00000  Uiso   1.00
C232   C     0.43170   0.06412   0.62350   0.00000  Uiso   1.00
C233   C     0.30896   0.10399   0.63310   0.00000  Uiso   1.00
C234   C     0.30502   0.14356   0.66438   0.00000  Uiso   1.00
C235   C     0.24569   0.21667   0.71259   0.00000  Uiso   1.00
C236   C     0.50713   0.92126   0.59892   0.00000  Uiso   1.00
C237   C     0.44782   0.84102   0.58785   0.00000  Uiso   1.00
C238   C     0.50739   0.76034   0.59844   0.00000  Uiso   1.00
C239   C     0.56523   0.61167   0.60848   0.00000  Uiso   1.00
C240   C     0.58191   0.06530   0.57516   0.00000  Uiso   1.00
C241   C     0.58550   0.10614   0.54412   0.00000  Uiso   1.00
C242   C     0.70804   0.14670   0.53470   0.00000  Uiso   1.00
C243   C     0.88199   0.22167   0.50785   0.00000  Uiso   1.00
C244   C     0.66993   0.01642   0.62889   0.00000  Uiso   1.00
C245   C     0.54646   0.06378   0.64440   0.00000  Uiso   1.00
C246   C     0.54270   0.10330   0.67568   0.00000  Uiso   1.00
C247   C     0.41998   0.14322   0.68532   0.00000  Uiso   1.00
C248   C     0.62188   0.92093   0.61983   0.00000  Uiso   1.00
C249   C     0.68156   0.84034   0.63043   0.00000  Uiso   1.00
C250   C     0.62235   0.76000   0.61939   0.00000  Uiso   1.00
C251   C     0.69667   0.06497   0.59607   0.00000  Uiso   1.00
C252   C     0.81924   0.10546   0.58670   0.00000  Uiso   1.00
C253   C     0.82300   0.14637   0.55564   0.00000  Uiso   1.00
H254   H     0.36932   0.01729   0.57413   0.00000  Uiso   1.00
H255   H     0.22017   0.10422   0.61691   0.00000  Uiso   1.00
H256   H     0.35903   0.84130   0.57167   0.00000  Uiso   1.00
H257   H     0.49668   0.10639   0.52795   0.00000  Uiso   1.00
H258   H     0.10541   0.20043   0.67357   0.00000  Uiso   1.00
H259   H     0.39821   0.64605   0.57817   0.00000  Uiso   1.00
H260   H     0.68848   0.20502   0.48596   0.00000  Uiso   1.00
H261   H     0.75927   0.01616   0.64517   0.00000  Uiso   1.00
H262   H     0.63152   0.10303   0.69185   0.00000  Uiso   1.00
H263   H     0.77037   0.84011   0.64661   0.00000  Uiso   1.00
H264   H     0.90802   0.10519   0.60288   0.00000  Uiso   1.00
H265   H     0.43927   0.19945   0.73439   0.00000  Uiso   1.00
H266   H     0.73208   0.64507   0.63899   0.00000  Uiso   1.00
H267   H     0.02234   0.20405   0.54678   0.00000  Uiso   1.00
O268   O     0.18126   0.25708   0.73341   0.00000  Uiso   1.00
O269   O     0.56542   0.52976   0.60825   0.00000  Uiso   1.00
O270   O     0.94623   0.26313   0.48727   0.00000  Uiso   1.00
N271   N     0.20153   0.18829   0.68148   0.00000  Uiso   1.00
N272   N     0.47527   0.66998   0.59229   0.00000  Uiso   1.00
N273   N     0.74665   0.19255   0.50607   0.00000  Uiso   1.00
N274   N     0.38117   0.18777   0.71420   0.00000  Uiso   1.00
N275   N     0.65491   0.66946   0.62502   0.00000  Uiso   1.00
N276   N     0.92629   0.19203   0.53880   0.00000  Uiso   1.00
C277   C     0.70615   0.48106   0.92197   0.00000  Uiso   1.00
C278   C     0.67911   0.43319   0.88903   0.00000  Uiso   1.00
C279   C     0.55653   0.39275   0.87964   0.00000  Uiso   1.00
C280   C     0.55247   0.35250   0.84847   0.00000  Uiso   1.00
C281   C     0.49305   0.27818   0.80051   0.00000  Uiso   1.00
C282   C     0.75385   0.57680   0.91314   0.00000  Uiso   1.00
C283   C     0.69413   0.65709   0.92403   0.00000  Uiso   1.00
C284   C     0.75301   0.73773   0.91316   0.00000  Uiso   1.00
C285   C     0.80970   0.88635   0.90265   0.00000  Uiso   1.00
C286   C     0.82992   0.43350   0.93725   0.00000  Uiso   1.00
C287   C     0.83417   0.39334   0.96842   0.00000  Uiso   1.00
C288   C     0.95711   0.35335   0.97786   0.00000  Uiso   1.00
C289   C     0.13190   0.27949   0.00479   0.00000  Uiso   1.00
C290   C     0.91693   0.48149   0.88333   0.00000  Uiso   1.00
C291   C     0.79360   0.43343   0.86804   0.00000  Uiso   1.00
C292   C     0.78973   0.39323   0.83688   0.00000  Uiso   1.00
C293   C     0.66717   0.35273   0.82744   0.00000  Uiso   1.00
C294   C     0.86834   0.57703   0.89215   0.00000  Uiso   1.00
C295   C     0.92733   0.65757   0.88127   0.00000  Uiso   1.00
C296   C     0.86771   0.73797   0.89213   0.00000  Uiso   1.00
C297   C     0.94441   0.43374   0.91627   0.00000  Uiso   1.00
C298   C     0.06737   0.39381   0.92566   0.00000  Uiso   1.00
C299   C     0.07181   0.35359   0.95683   0.00000  Uiso   1.00
H300   H     0.61701   0.48089   0.93831   0.00000  Uiso   1.00
H301   H     0.46794   0.39259   0.89588   0.00000  Uiso   1.00
H302   H     0.60554   0.65689   0.94027   0.00000  Uiso   1.00
H303   H     0.74555   0.39317   0.98465   0.00000  Uiso   1.00
H304   H     0.35314   0.29484   0.83959   0.00000  Uiso   1.00
H305   H     0.64329   0.85212   0.93319   0.00000  Uiso   1.00
H306   H     0.93855   0.29602   0.02678   0.00000  Uiso   1.00
H307   H     0.00607   0.48168   0.86699   0.00000  Uiso   1.00
H308   H     0.87835   0.39342   0.82065   0.00000  Uiso   1.00
H309   H     0.01594   0.65772   0.86503   0.00000  Uiso   1.00
H310   H     0.15595   0.39400   0.90941   0.00000  Uiso   1.00
H311   H     0.68624   0.29551   0.77852   0.00000  Uiso   1.00
H312   H     0.97640   0.85280   0.87212   0.00000  Uiso   1.00
H313   H     0.27165   0.29670   0.96571   0.00000  Uiso   1.00
O314   O     0.42864   0.23713   0.77985   0.00000  Uiso   1.00
O315   O     0.80932   0.96826   0.90266   0.00000  Uiso   1.00
O316   O     0.19668   0.23867   0.02544   0.00000  Uiso   1.00
N317   N     0.44908   0.30709   0.83158   0.00000  Uiso   1.00
N318   N     0.72033   0.82812   0.91908   0.00000  Uiso   1.00
N319   N     0.99638   0.30823   0.00658   0.00000  Uiso   1.00
N320   N     0.62831   0.30745   0.79872   0.00000  Uiso   1.00
N321   N     0.89957   0.82848   0.88622   0.00000  Uiso   1.00
N322   N     0.17562   0.30860   0.97372   0.00000  Uiso   1.00
C323   C     0.54134   0.98296   0.09040   0.00000  Uiso   1.00
C324   C     0.56830   0.93588   0.12350   0.00000  Uiso   1.00
C325   C     0.69104   0.89601   0.13310   0.00000  Uiso   1.00
C326   C     0.69498   0.85644   0.16438   0.00000  Uiso   1.00
C327   C     0.75431   0.78333   0.21259   0.00000  Uiso   1.00
C328   C     0.49287   0.07874   0.09892   0.00000  Uiso   1.00
C329   C     0.55218   0.15898   0.08785   0.00000  Uiso   1.00
C330   C     0.49261   0.23966   0.09844   0.00000  Uiso   1.00
C331   C     0.43477   0.38833   0.10848   0.00000  Uiso   1.00
C332   C     0.41809   0.93470   0.07516   0.00000  Uiso   1.00
C333   C     0.41450   0.89386   0.04412   0.00000  Uiso   1.00
C334   C     0.29196   0.85330   0.03470   0.00000  Uiso   1.00
C335   C     0.11801   0.77833   0.00785   0.00000  Uiso   1.00
C336   C     0.33007   0.98358   0.12889   0.00000  Uiso   1.00
C337   C     0.45354   0.93622   0.14440   0.00000  Uiso   1.00
C338   C     0.45730   0.89670   0.17568   0.00000  Uiso   1.00
C339   C     0.58002   0.85678   0.18532   0.00000  Uiso   1.00
C340   C     0.37812   0.07907   0.11983   0.00000  Uiso   1.00
C341   C     0.31844   0.15966   0.13043   0.00000  Uiso   1.00
C342   C     0.37765   0.24000   0.11939   0.00000  Uiso   1.00
C343   C     0.30333   0.93503   0.09607   0.00000  Uiso   1.00
C344   C     0.18076   0.89454   0.08670   0.00000  Uiso   1.00
C345   C     0.17700   0.85363   0.05564   0.00000  Uiso   1.00
H346   H     0.63068   0.98271   0.07413   0.00000  Uiso   1.00
H347   H     0.77983   0.89578   0.11691   0.00000  Uiso   1.00
H348   H     0.64097   0.15870   0.07167   0.00000  Uiso   1.00
H349   H     0.50332   0.89361   0.02795   0.00000  Uiso   1.00
H350   H     0.89459   0.79957   0.17357   0.00000  Uiso   1.00
H351   H     0.60179   0.35395   0.07817   0.00000  Uiso   1.00
H352   H     0.31152   0.79498   0.98596   0.00000  Uiso   1.00
H353   H     0.24073   0.98384   0.14517   0.00000  Uiso   1.00
H354   H     0.36848   0.89697   0.19185   0.00000  Uiso   1.00
H355   H     0.22963   0.15989   0.14661   0.00000  Uiso   1.00
H356   H     0.09198   0.89481   0.10288   0.00000  Uiso   1.00
H357   H     0.56073   0.80055   0.23439   0.00000  Uiso   1.00
H358   H     0.26792   0.35493   0.13899   0.00000  Uiso   1.00
H359   H     0.97766   0.79595   0.04678   0.00000  Uiso   1.00
O360   O     0.81874   0.74292   0.23341   0.00000  Uiso   1.00
O361   O     0.43458   0.47024   0.10825   0.00000  Uiso   1.00
O362   O     0.05377   0.73687   0.98727   0.00000  Uiso   1.00
N363   N     0.79847   0.81171   0.18148   0.00000  Uiso   1.00
N364   N     0.52473   0.33002   0.09229   0.00000  Uiso   1.00
N365   N     0.25335   0.80745   0.00607   0.00000  Uiso   1.00
N366   N     0.61883   0.81223   0.21420   0.00000  Uiso   1.00
N367   N     0.34509   0.33054   0.12502   0.00000  Uiso   1.00
N368   N     0.07371   0.80797   0.03880   0.00000  Uiso   1.00
