data_job_02310
_audit_creation_date              2018-12-19
_audit_creation_method            'Materials Studio'
_symmetry_space_group_name_H-M    'P1'
_symmetry_Int_Tables_number       1
_symmetry_cell_setting            triclinic
loop_
_symmetry_equiv_pos_as_xyz
  x,y,z
_cell_length_a                    7.8220
_cell_length_b                    17.4272
_cell_length_c                    39.0182
_cell_angle_alpha                 90.0000
_cell_angle_beta                  90.0000
_cell_angle_gamma                 90.0000
loop_
_atom_site_label
_atom_site_type_symbol
_atom_site_fract_x
_atom_site_fract_y
_atom_site_fract_z
_atom_site_U_iso_or_equiv
_atom_site_adp_type
_atom_site_occupancy
C1     C     0.16630   0.50041   0.60481   0.00000  Uiso   1.00
C2     C     0.22621   0.55472   0.63301   0.00000  Uiso   1.00
C3     C     0.13261   0.57571   0.66173   0.00000  Uiso   1.00
C4     C     0.21003   0.62607   0.68452   0.00000  Uiso   1.00
C5     C     0.27791   0.70613   0.72916   0.00000  Uiso   1.00
C6     C     0.18075   0.54525   0.57138   0.00000  Uiso   1.00
C7     C     0.04894   0.55827   0.54829   0.00000  Uiso   1.00
C8     C     0.08811   0.60065   0.51920   0.00000  Uiso   1.00
C9     C     0.08545   0.66596   0.46815   0.00000  Uiso   1.00
C10    C     0.30019   0.43698   0.60279   0.00000  Uiso   1.00
C11    C     0.26881   0.35895   0.60609   0.00000  Uiso   1.00
C12    C     0.40853   0.31017   0.60343   0.00000  Uiso   1.00
C13    C     0.59132   0.20736   0.60115   0.00000  Uiso   1.00
C14    C     0.47021   0.55253   0.59421   0.00000  Uiso   1.00
C15    C     0.39128   0.58303   0.62724   0.00000  Uiso   1.00
C16    C     0.46886   0.63337   0.64999   0.00000  Uiso   1.00
C17    C     0.37540   0.65443   0.67875   0.00000  Uiso   1.00
C18    C     0.34582   0.57356   0.56562   0.00000  Uiso   1.00
C19    C     0.38519   0.61593   0.53655   0.00000  Uiso   1.00
C20    C     0.25348   0.62901   0.51343   0.00000  Uiso   1.00
C21    C     0.46527   0.46528   0.59702   0.00000  Uiso   1.00
C22    C     0.60506   0.41661   0.59436   0.00000  Uiso   1.00
C23    C     0.57390   0.33853   0.59766   0.00000  Uiso   1.00
H24    H     0.03778   0.47837   0.60930   0.00000  Uiso   1.00
H25    H     0.00486   0.55379   0.66618   0.00000  Uiso   1.00
H26    H     0.92122   0.53635   0.55275   0.00000  Uiso   1.00
H27    H     0.14105   0.33706   0.61055   0.00000  Uiso   1.00
H28    H     0.04114   0.64992   0.72669   0.00000  Uiso   1.00
H29    H     0.86479   0.61311   0.48752   0.00000  Uiso   1.00
H30    H     0.32835   0.19287   0.60940   0.00000  Uiso   1.00
H31    H     0.59874   0.57457   0.58972   0.00000  Uiso   1.00
H32    H     0.59661   0.65527   0.64553   0.00000  Uiso   1.00
H33    H     0.51296   0.63783   0.53210   0.00000  Uiso   1.00
H34    H     0.73279   0.43854   0.58990   0.00000  Uiso   1.00
H35    H     0.52142   0.73228   0.70993   0.00000  Uiso   1.00
H36    H     0.34506   0.69548   0.47076   0.00000  Uiso   1.00
H37    H     0.80863   0.27524   0.59264   0.00000  Uiso   1.00
O38    O     0.26974   0.74247   0.75537   0.00000  Uiso   1.00
O39    O     0.03837   0.69417   0.44159   0.00000  Uiso   1.00
O40    O     0.64655   0.14283   0.60149   0.00000  Uiso   1.00
N41    N     0.15448   0.65821   0.71509   0.00000  Uiso   1.00
N42    N     0.98959   0.62382   0.49149   0.00000  Uiso   1.00
N43    N     0.42297   0.23093   0.60542   0.00000  Uiso   1.00
N44    N     0.41292   0.70253   0.70608   0.00000  Uiso   1.00
N45    N     0.24803   0.66813   0.48247   0.00000  Uiso   1.00
N46    N     0.68141   0.27525   0.59640   0.00000  Uiso   1.00
C47    C     0.33370   0.99959   0.10481   0.00000  Uiso   1.00
C48    C     0.27379   0.94528   0.13301   0.00000  Uiso   1.00
C49    C     0.36739   0.92429   0.16173   0.00000  Uiso   1.00
C50    C     0.28997   0.87393   0.18452   0.00000  Uiso   1.00
C51    C     0.22209   0.79387   0.22916   0.00000  Uiso   1.00
C52    C     0.31925   0.95475   0.07138   0.00000  Uiso   1.00
C53    C     0.45106   0.94173   0.04829   0.00000  Uiso   1.00
C54    C     0.41189   0.89935   0.01920   0.00000  Uiso   1.00
C55    C     0.41455   0.83404   0.96815   0.00000  Uiso   1.00
C56    C     0.19981   0.06302   0.10279   0.00000  Uiso   1.00
C57    C     0.23119   0.14105   0.10609   0.00000  Uiso   1.00
C58    C     0.09147   0.18983   0.10343   0.00000  Uiso   1.00
C59    C     0.90868   0.29264   0.10115   0.00000  Uiso   1.00
C60    C     0.02979   0.94747   0.09421   0.00000  Uiso   1.00
C61    C     0.10872   0.91697   0.12724   0.00000  Uiso   1.00
C62    C     0.03114   0.86663   0.14999   0.00000  Uiso   1.00
C63    C     0.12460   0.84557   0.17875   0.00000  Uiso   1.00
C64    C     0.15418   0.92644   0.06562   0.00000  Uiso   1.00
C65    C     0.11481   0.88407   0.03655   0.00000  Uiso   1.00
C66    C     0.24652   0.87099   0.01343   0.00000  Uiso   1.00
C67    C     0.03473   0.03472   0.09702   0.00000  Uiso   1.00
C68    C     0.89494   0.08339   0.09436   0.00000  Uiso   1.00
C69    C     0.92610   0.16147   0.09766   0.00000  Uiso   1.00
H70    H     0.46222   0.02163   0.10930   0.00000  Uiso   1.00
H71    H     0.49514   0.94621   0.16618   0.00000  Uiso   1.00
H72    H     0.57878   0.96365   0.05275   0.00000  Uiso   1.00
H73    H     0.35895   0.16294   0.11055   0.00000  Uiso   1.00
H74    H     0.45886   0.85008   0.22669   0.00000  Uiso   1.00
H75    H     0.63521   0.88689   0.98752   0.00000  Uiso   1.00
H76    H     0.17165   0.30713   0.10940   0.00000  Uiso   1.00
H77    H     0.90126   0.92543   0.08972   0.00000  Uiso   1.00
H78    H     0.90339   0.84473   0.14553   0.00000  Uiso   1.00
H79    H     0.98704   0.86217   0.03210   0.00000  Uiso   1.00
H80    H     0.76721   0.06146   0.08990   0.00000  Uiso   1.00
H81    H     0.97858   0.76772   0.20993   0.00000  Uiso   1.00
H82    H     0.15494   0.80452   0.97076   0.00000  Uiso   1.00
H83    H     0.69137   0.22476   0.09264   0.00000  Uiso   1.00
O84    O     0.23026   0.75753   0.25537   0.00000  Uiso   1.00
O85    O     0.46163   0.80583   0.94159   0.00000  Uiso   1.00
O86    O     0.85345   0.35717   0.10149   0.00000  Uiso   1.00
N87    N     0.34552   0.84179   0.21509   0.00000  Uiso   1.00
N88    N     0.51041   0.87618   0.99149   0.00000  Uiso   1.00
N89    N     0.07703   0.26907   0.10542   0.00000  Uiso   1.00
N90    N     0.08708   0.79747   0.20608   0.00000  Uiso   1.00
N91    N     0.25197   0.83187   0.98247   0.00000  Uiso   1.00
N92    N     0.81859   0.22475   0.09640   0.00000  Uiso   1.00
C93    C     0.83370   0.50041   0.89519   0.00000  Uiso   1.00
C94    C     0.77379   0.55472   0.86699   0.00000  Uiso   1.00
C95    C     0.86739   0.57571   0.83827   0.00000  Uiso   1.00
C96    C     0.78997   0.62607   0.81548   0.00000  Uiso   1.00
C97    C     0.72209   0.70613   0.77084   0.00000  Uiso   1.00
C98    C     0.81925   0.54525   0.92862   0.00000  Uiso   1.00
C99    C     0.95106   0.55827   0.95171   0.00000  Uiso   1.00
C100   C     0.91189   0.60065   0.98080   0.00000  Uiso   1.00
C101   C     0.91455   0.66596   0.03185   0.00000  Uiso   1.00
C102   C     0.69981   0.43698   0.89721   0.00000  Uiso   1.00
C103   C     0.73119   0.35895   0.89391   0.00000  Uiso   1.00
C104   C     0.59147   0.31017   0.89657   0.00000  Uiso   1.00
C105   C     0.40868   0.20736   0.89885   0.00000  Uiso   1.00
C106   C     0.52979   0.55253   0.90579   0.00000  Uiso   1.00
C107   C     0.60872   0.58303   0.87276   0.00000  Uiso   1.00
C108   C     0.53114   0.63337   0.85001   0.00000  Uiso   1.00
C109   C     0.62460   0.65443   0.82125   0.00000  Uiso   1.00
C110   C     0.65418   0.57356   0.93438   0.00000  Uiso   1.00
C111   C     0.61481   0.61593   0.96345   0.00000  Uiso   1.00
C112   C     0.74652   0.62901   0.98657   0.00000  Uiso   1.00
C113   C     0.53473   0.46528   0.90298   0.00000  Uiso   1.00
C114   C     0.39494   0.41661   0.90564   0.00000  Uiso   1.00
C115   C     0.42610   0.33853   0.90234   0.00000  Uiso   1.00
H116   H     0.96222   0.47837   0.89070   0.00000  Uiso   1.00
H117   H     0.99514   0.55379   0.83382   0.00000  Uiso   1.00
H118   H     0.07878   0.53635   0.94725   0.00000  Uiso   1.00
H119   H     0.85895   0.33706   0.88945   0.00000  Uiso   1.00
H120   H     0.95886   0.64992   0.77331   0.00000  Uiso   1.00
H121   H     0.13521   0.61311   0.01248   0.00000  Uiso   1.00
H122   H     0.67165   0.19287   0.89060   0.00000  Uiso   1.00
H123   H     0.40126   0.57457   0.91028   0.00000  Uiso   1.00
H124   H     0.40339   0.65527   0.85447   0.00000  Uiso   1.00
H125   H     0.48704   0.63783   0.96790   0.00000  Uiso   1.00
H126   H     0.26721   0.43854   0.91010   0.00000  Uiso   1.00
H127   H     0.47858   0.73228   0.79007   0.00000  Uiso   1.00
H128   H     0.65494   0.69548   0.02924   0.00000  Uiso   1.00
H129   H     0.19137   0.27524   0.90736   0.00000  Uiso   1.00
O130   O     0.73026   0.74247   0.74463   0.00000  Uiso   1.00
O131   O     0.96163   0.69417   0.05841   0.00000  Uiso   1.00
O132   O     0.35345   0.14283   0.89851   0.00000  Uiso   1.00
N133   N     0.84552   0.65821   0.78491   0.00000  Uiso   1.00
N134   N     0.01041   0.62382   0.00851   0.00000  Uiso   1.00
N135   N     0.57703   0.23093   0.89458   0.00000  Uiso   1.00
N136   N     0.58708   0.70253   0.79392   0.00000  Uiso   1.00
N137   N     0.75197   0.66813   0.01753   0.00000  Uiso   1.00
N138   N     0.31859   0.27525   0.90360   0.00000  Uiso   1.00
C139   C     0.66630   0.99959   0.39519   0.00000  Uiso   1.00
C140   C     0.72621   0.94528   0.36699   0.00000  Uiso   1.00
C141   C     0.63261   0.92429   0.33827   0.00000  Uiso   1.00
C142   C     0.71003   0.87393   0.31548   0.00000  Uiso   1.00
C143   C     0.77791   0.79387   0.27084   0.00000  Uiso   1.00
C144   C     0.68075   0.95475   0.42862   0.00000  Uiso   1.00
C145   C     0.54894   0.94173   0.45171   0.00000  Uiso   1.00
C146   C     0.58811   0.89935   0.48080   0.00000  Uiso   1.00
C147   C     0.58545   0.83404   0.53185   0.00000  Uiso   1.00
C148   C     0.80019   0.06302   0.39721   0.00000  Uiso   1.00
C149   C     0.76881   0.14105   0.39391   0.00000  Uiso   1.00
C150   C     0.90853   0.18983   0.39657   0.00000  Uiso   1.00
C151   C     0.09132   0.29264   0.39885   0.00000  Uiso   1.00
C152   C     0.97021   0.94747   0.40579   0.00000  Uiso   1.00
C153   C     0.89128   0.91697   0.37276   0.00000  Uiso   1.00
C154   C     0.96886   0.86663   0.35001   0.00000  Uiso   1.00
C155   C     0.87540   0.84557   0.32125   0.00000  Uiso   1.00
C156   C     0.84582   0.92644   0.43438   0.00000  Uiso   1.00
C157   C     0.88519   0.88407   0.46345   0.00000  Uiso   1.00
C158   C     0.75348   0.87099   0.48657   0.00000  Uiso   1.00
C159   C     0.96527   0.03472   0.40298   0.00000  Uiso   1.00
C160   C     0.10506   0.08339   0.40564   0.00000  Uiso   1.00
C161   C     0.07390   0.16147   0.40234   0.00000  Uiso   1.00
H162   H     0.53778   0.02163   0.39070   0.00000  Uiso   1.00
H163   H     0.50486   0.94621   0.33382   0.00000  Uiso   1.00
H164   H     0.42122   0.96365   0.44725   0.00000  Uiso   1.00
H165   H     0.64105   0.16294   0.38945   0.00000  Uiso   1.00
H166   H     0.54114   0.85008   0.27331   0.00000  Uiso   1.00
H167   H     0.36479   0.88689   0.51248   0.00000  Uiso   1.00
H168   H     0.82835   0.30713   0.39060   0.00000  Uiso   1.00
H169   H     0.09874   0.92543   0.41028   0.00000  Uiso   1.00
H170   H     0.09661   0.84473   0.35447   0.00000  Uiso   1.00
H171   H     0.01296   0.86217   0.46790   0.00000  Uiso   1.00
H172   H     0.23279   0.06146   0.41010   0.00000  Uiso   1.00
H173   H     0.02142   0.76772   0.29007   0.00000  Uiso   1.00
H174   H     0.84506   0.80452   0.52924   0.00000  Uiso   1.00
H175   H     0.30863   0.22476   0.40736   0.00000  Uiso   1.00
O176   O     0.76974   0.75753   0.24463   0.00000  Uiso   1.00
O177   O     0.53837   0.80583   0.55841   0.00000  Uiso   1.00
O178   O     0.14655   0.35717   0.39851   0.00000  Uiso   1.00
N179   N     0.65448   0.84179   0.28491   0.00000  Uiso   1.00
N180   N     0.48959   0.87618   0.50851   0.00000  Uiso   1.00
N181   N     0.92297   0.26907   0.39458   0.00000  Uiso   1.00
N182   N     0.91292   0.79747   0.29392   0.00000  Uiso   1.00
N183   N     0.74803   0.83187   0.51753   0.00000  Uiso   1.00
N184   N     0.18141   0.22475   0.40360   0.00000  Uiso   1.00
C185   C     0.83370   0.49959   0.39519   0.00000  Uiso   1.00
C186   C     0.77379   0.44528   0.36699   0.00000  Uiso   1.00
C187   C     0.86739   0.42429   0.33827   0.00000  Uiso   1.00
C188   C     0.78997   0.37393   0.31548   0.00000  Uiso   1.00
C189   C     0.72209   0.29387   0.27084   0.00000  Uiso   1.00
C190   C     0.81925   0.45475   0.42862   0.00000  Uiso   1.00
C191   C     0.95106   0.44173   0.45171   0.00000  Uiso   1.00
C192   C     0.91189   0.39935   0.48080   0.00000  Uiso   1.00
C193   C     0.91455   0.33404   0.53185   0.00000  Uiso   1.00
C194   C     0.69981   0.56302   0.39721   0.00000  Uiso   1.00
C195   C     0.73119   0.64105   0.39391   0.00000  Uiso   1.00
C196   C     0.59147   0.68983   0.39657   0.00000  Uiso   1.00
C197   C     0.40868   0.79264   0.39885   0.00000  Uiso   1.00
C198   C     0.52979   0.44747   0.40579   0.00000  Uiso   1.00
C199   C     0.60872   0.41697   0.37276   0.00000  Uiso   1.00
C200   C     0.53114   0.36663   0.35001   0.00000  Uiso   1.00
C201   C     0.62460   0.34557   0.32125   0.00000  Uiso   1.00
C202   C     0.65418   0.42644   0.43438   0.00000  Uiso   1.00
C203   C     0.61481   0.38407   0.46345   0.00000  Uiso   1.00
C204   C     0.74652   0.37099   0.48657   0.00000  Uiso   1.00
C205   C     0.53473   0.53472   0.40298   0.00000  Uiso   1.00
C206   C     0.39494   0.58339   0.40564   0.00000  Uiso   1.00
C207   C     0.42610   0.66147   0.40234   0.00000  Uiso   1.00
H208   H     0.96222   0.52163   0.39070   0.00000  Uiso   1.00
H209   H     0.99514   0.44621   0.33382   0.00000  Uiso   1.00
H210   H     0.07878   0.46365   0.44725   0.00000  Uiso   1.00
H211   H     0.85895   0.66294   0.38945   0.00000  Uiso   1.00
H212   H     0.95886   0.35008   0.27331   0.00000  Uiso   1.00
H213   H     0.13521   0.38689   0.51248   0.00000  Uiso   1.00
H214   H     0.67165   0.80713   0.39060   0.00000  Uiso   1.00
H215   H     0.40126   0.42543   0.41028   0.00000  Uiso   1.00
H216   H     0.40339   0.34473   0.35447   0.00000  Uiso   1.00
H217   H     0.48704   0.36217   0.46790   0.00000  Uiso   1.00
H218   H     0.26721   0.56146   0.41010   0.00000  Uiso   1.00
H219   H     0.47858   0.26772   0.29007   0.00000  Uiso   1.00
H220   H     0.65494   0.30452   0.52924   0.00000  Uiso   1.00
H221   H     0.19137   0.72476   0.40736   0.00000  Uiso   1.00
O222   O     0.73026   0.25753   0.24463   0.00000  Uiso   1.00
O223   O     0.96163   0.30583   0.55841   0.00000  Uiso   1.00
O224   O     0.35345   0.85717   0.39851   0.00000  Uiso   1.00
N225   N     0.84552   0.34179   0.28491   0.00000  Uiso   1.00
N226   N     0.01041   0.37618   0.50851   0.00000  Uiso   1.00
N227   N     0.57703   0.76907   0.39458   0.00000  Uiso   1.00
N228   N     0.58708   0.29747   0.29392   0.00000  Uiso   1.00
N229   N     0.75197   0.33187   0.51753   0.00000  Uiso   1.00
N230   N     0.31859   0.72475   0.40360   0.00000  Uiso   1.00
C231   C     0.66630   0.00041   0.89519   0.00000  Uiso   1.00
C232   C     0.72621   0.05472   0.86699   0.00000  Uiso   1.00
C233   C     0.63261   0.07571   0.83827   0.00000  Uiso   1.00
C234   C     0.71003   0.12607   0.81548   0.00000  Uiso   1.00
C235   C     0.77791   0.20613   0.77084   0.00000  Uiso   1.00
C236   C     0.68075   0.04525   0.92862   0.00000  Uiso   1.00
C237   C     0.54894   0.05827   0.95171   0.00000  Uiso   1.00
C238   C     0.58811   0.10065   0.98080   0.00000  Uiso   1.00
C239   C     0.58545   0.16596   0.03185   0.00000  Uiso   1.00
C240   C     0.80019   0.93698   0.89721   0.00000  Uiso   1.00
C241   C     0.76881   0.85895   0.89391   0.00000  Uiso   1.00
C242   C     0.90853   0.81017   0.89657   0.00000  Uiso   1.00
C243   C     0.09132   0.70736   0.89885   0.00000  Uiso   1.00
C244   C     0.97021   0.05253   0.90579   0.00000  Uiso   1.00
C245   C     0.89128   0.08303   0.87276   0.00000  Uiso   1.00
C246   C     0.96886   0.13337   0.85001   0.00000  Uiso   1.00
C247   C     0.87540   0.15443   0.82125   0.00000  Uiso   1.00
C248   C     0.84582   0.07356   0.93438   0.00000  Uiso   1.00
C249   C     0.88519   0.11593   0.96345   0.00000  Uiso   1.00
C250   C     0.75348   0.12901   0.98657   0.00000  Uiso   1.00
C251   C     0.96527   0.96528   0.90298   0.00000  Uiso   1.00
C252   C     0.10506   0.91661   0.90564   0.00000  Uiso   1.00
C253   C     0.07390   0.83853   0.90234   0.00000  Uiso   1.00
H254   H     0.53778   0.97837   0.89070   0.00000  Uiso   1.00
H255   H     0.50486   0.05379   0.83382   0.00000  Uiso   1.00
H256   H     0.42122   0.03635   0.94725   0.00000  Uiso   1.00
H257   H     0.64105   0.83706   0.88945   0.00000  Uiso   1.00
H258   H     0.54114   0.14992   0.77331   0.00000  Uiso   1.00
H259   H     0.36479   0.11311   0.01248   0.00000  Uiso   1.00
H260   H     0.82835   0.69287   0.89060   0.00000  Uiso   1.00
H261   H     0.09874   0.07457   0.91028   0.00000  Uiso   1.00
H262   H     0.09661   0.15527   0.85447   0.00000  Uiso   1.00
H263   H     0.01296   0.13783   0.96790   0.00000  Uiso   1.00
H264   H     0.23279   0.93854   0.91010   0.00000  Uiso   1.00
H265   H     0.02142   0.23228   0.79007   0.00000  Uiso   1.00
H266   H     0.84506   0.19548   0.02924   0.00000  Uiso   1.00
H267   H     0.30863   0.77524   0.90736   0.00000  Uiso   1.00
O268   O     0.76974   0.24247   0.74463   0.00000  Uiso   1.00
O269   O     0.53837   0.19417   0.05841   0.00000  Uiso   1.00
O270   O     0.14655   0.64283   0.89851   0.00000  Uiso   1.00
N271   N     0.65448   0.15821   0.78491   0.00000  Uiso   1.00
N272   N     0.48959   0.12382   0.00851   0.00000  Uiso   1.00
N273   N     0.92297   0.73093   0.89458   0.00000  Uiso   1.00
N274   N     0.91292   0.20253   0.79392   0.00000  Uiso   1.00
N275   N     0.74803   0.16813   0.01753   0.00000  Uiso   1.00
N276   N     0.18141   0.77525   0.90360   0.00000  Uiso   1.00
C277   C     0.16630   0.49959   0.10481   0.00000  Uiso   1.00
C278   C     0.22621   0.44528   0.13301   0.00000  Uiso   1.00
C279   C     0.13261   0.42429   0.16173   0.00000  Uiso   1.00
C280   C     0.21003   0.37393   0.18452   0.00000  Uiso   1.00
C281   C     0.27791   0.29387   0.22916   0.00000  Uiso   1.00
C282   C     0.18075   0.45475   0.07138   0.00000  Uiso   1.00
C283   C     0.04894   0.44173   0.04829   0.00000  Uiso   1.00
C284   C     0.08811   0.39935   0.01920   0.00000  Uiso   1.00
C285   C     0.08545   0.33404   0.96815   0.00000  Uiso   1.00
C286   C     0.30019   0.56302   0.10279   0.00000  Uiso   1.00
C287   C     0.26881   0.64105   0.10609   0.00000  Uiso   1.00
C288   C     0.40853   0.68983   0.10343   0.00000  Uiso   1.00
C289   C     0.59132   0.79264   0.10115   0.00000  Uiso   1.00
C290   C     0.47021   0.44747   0.09421   0.00000  Uiso   1.00
C291   C     0.39128   0.41697   0.12724   0.00000  Uiso   1.00
C292   C     0.46886   0.36663   0.14999   0.00000  Uiso   1.00
C293   C     0.37540   0.34557   0.17875   0.00000  Uiso   1.00
C294   C     0.34582   0.42644   0.06562   0.00000  Uiso   1.00
C295   C     0.38519   0.38407   0.03655   0.00000  Uiso   1.00
C296   C     0.25348   0.37099   0.01343   0.00000  Uiso   1.00
C297   C     0.46527   0.53472   0.09702   0.00000  Uiso   1.00
C298   C     0.60506   0.58339   0.09436   0.00000  Uiso   1.00
C299   C     0.57390   0.66147   0.09766   0.00000  Uiso   1.00
H300   H     0.03778   0.52163   0.10930   0.00000  Uiso   1.00
H301   H     0.00486   0.44621   0.16618   0.00000  Uiso   1.00
H302   H     0.92122   0.46365   0.05275   0.00000  Uiso   1.00
H303   H     0.14105   0.66294   0.11055   0.00000  Uiso   1.00
H304   H     0.04114   0.35008   0.22669   0.00000  Uiso   1.00
H305   H     0.86479   0.38689   0.98752   0.00000  Uiso   1.00
H306   H     0.32835   0.80713   0.10940   0.00000  Uiso   1.00
H307   H     0.59874   0.42543   0.08972   0.00000  Uiso   1.00
H308   H     0.59661   0.34473   0.14553   0.00000  Uiso   1.00
H309   H     0.51296   0.36217   0.03210   0.00000  Uiso   1.00
H310   H     0.73279   0.56146   0.08990   0.00000  Uiso   1.00
H311   H     0.52142   0.26772   0.20993   0.00000  Uiso   1.00
H312   H     0.34506   0.30452   0.97076   0.00000  Uiso   1.00
H313   H     0.80863   0.72476   0.09264   0.00000  Uiso   1.00
O314   O     0.26974   0.25753   0.25537   0.00000  Uiso   1.00
O315   O     0.03837   0.30583   0.94159   0.00000  Uiso   1.00
O316   O     0.64655   0.85717   0.10149   0.00000  Uiso   1.00
N317   N     0.15448   0.34179   0.21509   0.00000  Uiso   1.00
N318   N     0.98959   0.37618   0.99149   0.00000  Uiso   1.00
N319   N     0.42297   0.76907   0.10542   0.00000  Uiso   1.00
N320   N     0.41292   0.29747   0.20608   0.00000  Uiso   1.00
N321   N     0.24803   0.33187   0.98247   0.00000  Uiso   1.00
N322   N     0.68141   0.72475   0.09640   0.00000  Uiso   1.00
C323   C     0.33370   0.00041   0.60481   0.00000  Uiso   1.00
C324   C     0.27379   0.05472   0.63301   0.00000  Uiso   1.00
C325   C     0.36739   0.07571   0.66173   0.00000  Uiso   1.00
C326   C     0.28997   0.12607   0.68452   0.00000  Uiso   1.00
C327   C     0.22209   0.20613   0.72916   0.00000  Uiso   1.00
C328   C     0.31925   0.04525   0.57138   0.00000  Uiso   1.00
C329   C     0.45106   0.05827   0.54829   0.00000  Uiso   1.00
C330   C     0.41189   0.10065   0.51920   0.00000  Uiso   1.00
C331   C     0.41455   0.16596   0.46815   0.00000  Uiso   1.00
C332   C     0.19981   0.93698   0.60279   0.00000  Uiso   1.00
C333   C     0.23119   0.85895   0.60609   0.00000  Uiso   1.00
C334   C     0.09147   0.81017   0.60343   0.00000  Uiso   1.00
C335   C     0.90868   0.70736   0.60115   0.00000  Uiso   1.00
C336   C     0.02979   0.05253   0.59421   0.00000  Uiso   1.00
C337   C     0.10872   0.08303   0.62724   0.00000  Uiso   1.00
C338   C     0.03114   0.13337   0.64999   0.00000  Uiso   1.00
C339   C     0.12460   0.15443   0.67875   0.00000  Uiso   1.00
C340   C     0.15418   0.07356   0.56562   0.00000  Uiso   1.00
C341   C     0.11481   0.11593   0.53655   0.00000  Uiso   1.00
C342   C     0.24652   0.12901   0.51343   0.00000  Uiso   1.00
C343   C     0.03473   0.96528   0.59702   0.00000  Uiso   1.00
C344   C     0.89494   0.91661   0.59436   0.00000  Uiso   1.00
C345   C     0.92610   0.83853   0.59766   0.00000  Uiso   1.00
H346   H     0.46222   0.97837   0.60930   0.00000  Uiso   1.00
H347   H     0.49514   0.05379   0.66618   0.00000  Uiso   1.00
H348   H     0.57878   0.03635   0.55275   0.00000  Uiso   1.00
H349   H     0.35895   0.83706   0.61055   0.00000  Uiso   1.00
H350   H     0.45886   0.14992   0.72669   0.00000  Uiso   1.00
H351   H     0.63521   0.11311   0.48752   0.00000  Uiso   1.00
H352   H     0.17165   0.69287   0.60940   0.00000  Uiso   1.00
H353   H     0.90126   0.07457   0.58972   0.00000  Uiso   1.00
H354   H     0.90339   0.15527   0.64553   0.00000  Uiso   1.00
H355   H     0.98704   0.13783   0.53210   0.00000  Uiso   1.00
H356   H     0.76721   0.93854   0.58990   0.00000  Uiso   1.00
H357   H     0.97858   0.23228   0.70993   0.00000  Uiso   1.00
H358   H     0.15494   0.19548   0.47076   0.00000  Uiso   1.00
H359   H     0.69137   0.77524   0.59264   0.00000  Uiso   1.00
O360   O     0.23026   0.24247   0.75537   0.00000  Uiso   1.00
O361   O     0.46163   0.19417   0.44159   0.00000  Uiso   1.00
O362   O     0.85345   0.64283   0.60149   0.00000  Uiso   1.00
N363   N     0.34552   0.15821   0.71509   0.00000  Uiso   1.00
N364   N     0.51041   0.12382   0.49149   0.00000  Uiso   1.00
N365   N     0.07703   0.73093   0.60542   0.00000  Uiso   1.00
N366   N     0.08708   0.20253   0.70608   0.00000  Uiso   1.00
N367   N     0.25197   0.16813   0.48247   0.00000  Uiso   1.00
N368   N     0.81859   0.77525   0.59640   0.00000  Uiso   1.00
