data_job_01733
_audit_creation_date              2018-12-19
_audit_creation_method            'Materials Studio'
_symmetry_space_group_name_H-M    'P1'
_symmetry_Int_Tables_number       1
_symmetry_cell_setting            triclinic
loop_
_symmetry_equiv_pos_as_xyz
  x,y,z
_cell_length_a                    9.3787
_cell_length_b                    12.3963
_cell_length_c                    13.2636
_cell_angle_alpha                 75.8609
_cell_angle_beta                  77.3032
_cell_angle_gamma                 78.9080
loop_
_atom_site_label
_atom_site_type_symbol
_atom_site_fract_x
_atom_site_fract_y
_atom_site_fract_z
_atom_site_U_iso_or_equiv
_atom_site_adp_type
_atom_site_occupancy
C1     C     0.66203   0.19837   0.10884   0.00000  Uiso   1.00
C2     C     0.62830   0.09550   0.19544   0.00000  Uiso   1.00
C3     C     0.56220   0.00833   0.18598   0.00000  Uiso   1.00
C4     C     0.54084   0.92187   0.27432   0.00000  Uiso   1.00
C5     C     0.48181   0.76205   0.39445   0.00000  Uiso   1.00
C6     C     0.58503   0.30037   0.15489   0.00000  Uiso   1.00
C7     C     0.48256   0.38545   0.11133   0.00000  Uiso   1.00
C8     C     0.42480   0.47145   0.16552   0.00000  Uiso   1.00
C9     C     0.29868   0.62973   0.22266   0.00000  Uiso   1.00
C10    C     0.82733   0.20024   0.09522   0.00000  Uiso   1.00
C11    C     0.92860   0.20117   0.00149   0.00000  Uiso   1.00
C12    C     0.07484   0.20290   0.00545   0.00000  Uiso   1.00
C13    C     0.32492   0.20572   0.96994   0.00000  Uiso   1.00
C14    C     0.74166   0.19982   0.28254   0.00000  Uiso   1.00
C15    C     0.67155   0.09630   0.28979   0.00000  Uiso   1.00
C16    C     0.65029   0.00994   0.37816   0.00000  Uiso   1.00
C17    C     0.58417   0.92265   0.36883   0.00000  Uiso   1.00
C18    C     0.62827   0.30116   0.24923   0.00000  Uiso   1.00
C19    C     0.57066   0.38706   0.30350   0.00000  Uiso   1.00
C20    C     0.46813   0.47225   0.26004   0.00000  Uiso   1.00
C21    C     0.87058   0.20103   0.18957   0.00000  Uiso   1.00
C22    C     0.01669   0.20277   0.19367   0.00000  Uiso   1.00
C23    C     0.11816   0.20369   0.09996   0.00000  Uiso   1.00
H24    H     0.62836   0.19776   0.03539   0.00000  Uiso   1.00
H25    H     0.52873   0.00775   0.11296   0.00000  Uiso   1.00
H26    H     0.44912   0.38482   0.03831   0.00000  Uiso   1.00
H27    H     0.89509   0.20056   0.92850   0.00000  Uiso   1.00
H28    H     0.43730   0.79747   0.24058   0.00000  Uiso   1.00
H29    H     0.26948   0.59255   0.08316   0.00000  Uiso   1.00
H30    H     0.20988   0.20400   0.85159   0.00000  Uiso   1.00
H31    H     0.77533   0.20044   0.35599   0.00000  Uiso   1.00
H32    H     0.68377   0.01058   0.45116   0.00000  Uiso   1.00
H33    H     0.60416   0.38765   0.37651   0.00000  Uiso   1.00
H34    H     0.05012   0.20338   0.26669   0.00000  Uiso   1.00
H35    H     0.56313   0.79976   0.51508   0.00000  Uiso   1.00
H36    H     0.39532   0.59485   0.35765   0.00000  Uiso   1.00
H37    H     0.33571   0.20630   0.12609   0.00000  Uiso   1.00
O38    O     0.43728   0.67369   0.43466   0.00000  Uiso   1.00
O39    O     0.21714   0.71681   0.22812   0.00000  Uiso   1.00
O40    O     0.45092   0.20704   0.92430   0.00000  Uiso   1.00
N41    N     0.47950   0.82405   0.29212   0.00000  Uiso   1.00
N42    N     0.32259   0.56740   0.14495   0.00000  Uiso   1.00
N43    N     0.20178   0.20417   0.92844   0.00000  Uiso   1.00
N44    N     0.54721   0.82528   0.43982   0.00000  Uiso   1.00
N45    N     0.39030   0.56863   0.29265   0.00000  Uiso   1.00
N46    N     0.26949   0.20540   0.07614   0.00000  Uiso   1.00
C47    C     0.33797   0.80163   0.89116   0.00000  Uiso   1.00
C48    C     0.37170   0.90450   0.80456   0.00000  Uiso   1.00
C49    C     0.43780   0.99167   0.81402   0.00000  Uiso   1.00
C50    C     0.45916   0.07813   0.72568   0.00000  Uiso   1.00
C51    C     0.51819   0.23795   0.60555   0.00000  Uiso   1.00
C52    C     0.41497   0.69963   0.84511   0.00000  Uiso   1.00
C53    C     0.51744   0.61455   0.88867   0.00000  Uiso   1.00
C54    C     0.57520   0.52855   0.83448   0.00000  Uiso   1.00
C55    C     0.70132   0.37027   0.77734   0.00000  Uiso   1.00
C56    C     0.17267   0.79976   0.90478   0.00000  Uiso   1.00
C57    C     0.07140   0.79883   0.99851   0.00000  Uiso   1.00
C58    C     0.92516   0.79710   0.99455   0.00000  Uiso   1.00
C59    C     0.67508   0.79428   0.03006   0.00000  Uiso   1.00
C60    C     0.25834   0.80018   0.71746   0.00000  Uiso   1.00
C61    C     0.32845   0.90370   0.71021   0.00000  Uiso   1.00
C62    C     0.34971   0.99006   0.62184   0.00000  Uiso   1.00
C63    C     0.41583   0.07735   0.63117   0.00000  Uiso   1.00
C64    C     0.37173   0.69884   0.75077   0.00000  Uiso   1.00
C65    C     0.42934   0.61294   0.69650   0.00000  Uiso   1.00
C66    C     0.53187   0.52775   0.73996   0.00000  Uiso   1.00
C67    C     0.12942   0.79897   0.81043   0.00000  Uiso   1.00
C68    C     0.98331   0.79723   0.80633   0.00000  Uiso   1.00
C69    C     0.88184   0.79631   0.90004   0.00000  Uiso   1.00
H70    H     0.37164   0.80224   0.96461   0.00000  Uiso   1.00
H71    H     0.47127   0.99225   0.88704   0.00000  Uiso   1.00
H72    H     0.55088   0.61518   0.96169   0.00000  Uiso   1.00
H73    H     0.10491   0.79944   0.07150   0.00000  Uiso   1.00
H74    H     0.56270   0.20253   0.75942   0.00000  Uiso   1.00
H75    H     0.73052   0.40745   0.91684   0.00000  Uiso   1.00
H76    H     0.79012   0.79600   0.14841   0.00000  Uiso   1.00
H77    H     0.22467   0.79956   0.64401   0.00000  Uiso   1.00
H78    H     0.31623   0.98942   0.54884   0.00000  Uiso   1.00
H79    H     0.39584   0.61235   0.62349   0.00000  Uiso   1.00
H80    H     0.94988   0.79662   0.73331   0.00000  Uiso   1.00
H81    H     0.43687   0.20024   0.48492   0.00000  Uiso   1.00
H82    H     0.60468   0.40515   0.64235   0.00000  Uiso   1.00
H83    H     0.66429   0.79370   0.87391   0.00000  Uiso   1.00
O84    O     0.56272   0.32631   0.56534   0.00000  Uiso   1.00
O85    O     0.78286   0.28319   0.77188   0.00000  Uiso   1.00
O86    O     0.54908   0.79296   0.07570   0.00000  Uiso   1.00
N87    N     0.52050   0.17595   0.70788   0.00000  Uiso   1.00
N88    N     0.67741   0.43260   0.85505   0.00000  Uiso   1.00
N89    N     0.79822   0.79583   0.07156   0.00000  Uiso   1.00
N90    N     0.45279   0.17472   0.56018   0.00000  Uiso   1.00
N91    N     0.60970   0.43137   0.70735   0.00000  Uiso   1.00
N92    N     0.73051   0.79460   0.92386   0.00000  Uiso   1.00
