data_job_02001
_audit_creation_date              2018-12-19
_audit_creation_method            'Materials Studio'
_symmetry_space_group_name_H-M    'P1'
_symmetry_Int_Tables_number       1
_symmetry_cell_setting            triclinic
loop_
_symmetry_equiv_pos_as_xyz
  x,y,z
_cell_length_a                    19.2645
_cell_length_b                    12.4318
_cell_length_c                    28.5005
_cell_angle_alpha                 90.0000
_cell_angle_beta                  110.5320
_cell_angle_gamma                 90.0000
loop_
_atom_site_label
_atom_site_type_symbol
_atom_site_fract_x
_atom_site_fract_y
_atom_site_fract_z
_atom_site_U_iso_or_equiv
_atom_site_adp_type
_atom_site_occupancy
C1     C     0.59209   0.38389   0.18653   0.00000  Uiso   1.00
C2     C     0.67495   0.36314   0.20073   0.00000  Uiso   1.00
C3     C     0.72767   0.37258   0.24845   0.00000  Uiso   1.00
C4     C     0.80061   0.35009   0.25370   0.00000  Uiso   1.00
C5     C     0.92633   0.32260   0.28199   0.00000  Uiso   1.00
C6     C     0.57239   0.46884   0.14533   0.00000  Uiso   1.00
C7     C     0.53887   0.56714   0.14646   0.00000  Uiso   1.00
C8     C     0.52546   0.63362   0.10507   0.00000  Uiso   1.00
C9     C     0.49190   0.77020   0.04733   0.00000  Uiso   1.00
C10    C     0.55345   0.28083   0.16176   0.00000  Uiso   1.00
C11    C     0.50398   0.22107   0.17670   0.00000  Uiso   1.00
C12    C     0.47462   0.12927   0.14914   0.00000  Uiso   1.00
C13    C     0.41165   0.97395   0.11691   0.00000  Uiso   1.00
C14    C     0.62788   0.32716   0.11100   0.00000  Uiso   1.00
C15    C     0.69439   0.33233   0.15970   0.00000  Uiso   1.00
C16    C     0.76727   0.30981   0.16488   0.00000  Uiso   1.00
C17    C     0.82009   0.31921   0.21260   0.00000  Uiso   1.00
C18    C     0.59183   0.43803   0.10430   0.00000  Uiso   1.00
C19    C     0.57847   0.50437   0.06290   0.00000  Uiso   1.00
C20    C     0.54494   0.60275   0.06397   0.00000  Uiso   1.00
C21    C     0.57289   0.25002   0.12074   0.00000  Uiso   1.00
C22    C     0.54359   0.15830   0.09314   0.00000  Uiso   1.00
C23    C     0.49409   0.09840   0.10804   0.00000  Uiso   1.00
H24    H     0.57695   0.40789   0.21846   0.00000  Uiso   1.00
H25    H     0.71261   0.39644   0.28019   0.00000  Uiso   1.00
H26    H     0.52383   0.59096   0.17821   0.00000  Uiso   1.00
H27    H     0.48895   0.24494   0.20845   0.00000  Uiso   1.00
H28    H     0.87158   0.37019   0.33052   0.00000  Uiso   1.00
H29    H     0.47350   0.78034   0.11550   0.00000  Uiso   1.00
H30    H     0.39997   0.05069   0.17926   0.00000  Uiso   1.00
H31    H     0.64301   0.30317   0.07906   0.00000  Uiso   1.00
H32    H     0.78230   0.28597   0.13313   0.00000  Uiso   1.00
H33    H     0.59351   0.48050   0.03116   0.00000  Uiso   1.00
H34    H     0.55864   0.13448   0.06139   0.00000  Uiso   1.00
H35    H     0.92815   0.28053   0.21116   0.00000  Uiso   1.00
H36    H     0.53006   0.69069   0.99614   0.00000  Uiso   1.00
H37    H     0.45653   0.96103   0.05990   0.00000  Uiso   1.00
O38    O     0.99030   0.31597   0.30892   0.00000  Uiso   1.00
O39    O     0.46802   0.85406   0.02682   0.00000  Uiso   1.00
O40    O     0.37155   0.89677   0.11048   0.00000  Uiso   1.00
N41    N     0.86578   0.35143   0.29501   0.00000  Uiso   1.00
N42    N     0.49361   0.73490   0.09398   0.00000  Uiso   1.00
N43    N     0.42484   0.05275   0.15359   0.00000  Uiso   1.00
N44    N     0.89621   0.30318   0.23079   0.00000  Uiso   1.00
N45    N     0.52404   0.68666   0.02975   0.00000  Uiso   1.00
N46    N     0.45528   0.00451   0.08936   0.00000  Uiso   1.00
C47    C     0.09209   0.88389   0.18653   0.00000  Uiso   1.00
C48    C     0.17495   0.86314   0.20073   0.00000  Uiso   1.00
C49    C     0.22767   0.87258   0.24845   0.00000  Uiso   1.00
C50    C     0.30061   0.85009   0.25370   0.00000  Uiso   1.00
C51    C     0.42633   0.82260   0.28199   0.00000  Uiso   1.00
C52    C     0.07239   0.96884   0.14533   0.00000  Uiso   1.00
C53    C     0.03887   0.06714   0.14646   0.00000  Uiso   1.00
C54    C     0.02546   0.13362   0.10507   0.00000  Uiso   1.00
C55    C     0.99190   0.27020   0.04733   0.00000  Uiso   1.00
C56    C     0.05345   0.78083   0.16176   0.00000  Uiso   1.00
C57    C     0.00398   0.72107   0.17670   0.00000  Uiso   1.00
C58    C     0.97462   0.62927   0.14914   0.00000  Uiso   1.00
C59    C     0.91165   0.47395   0.11691   0.00000  Uiso   1.00
C60    C     0.12788   0.82716   0.11100   0.00000  Uiso   1.00
C61    C     0.19439   0.83233   0.15970   0.00000  Uiso   1.00
C62    C     0.26727   0.80981   0.16488   0.00000  Uiso   1.00
C63    C     0.32009   0.81921   0.21260   0.00000  Uiso   1.00
C64    C     0.09183   0.93803   0.10430   0.00000  Uiso   1.00
C65    C     0.07847   0.00437   0.06290   0.00000  Uiso   1.00
C66    C     0.04494   0.10275   0.06397   0.00000  Uiso   1.00
C67    C     0.07289   0.75002   0.12074   0.00000  Uiso   1.00
C68    C     0.04359   0.65830   0.09314   0.00000  Uiso   1.00
C69    C     0.99409   0.59840   0.10804   0.00000  Uiso   1.00
H70    H     0.07695   0.90789   0.21846   0.00000  Uiso   1.00
H71    H     0.21261   0.89644   0.28019   0.00000  Uiso   1.00
H72    H     0.02383   0.09096   0.17821   0.00000  Uiso   1.00
H73    H     0.98895   0.74494   0.20845   0.00000  Uiso   1.00
H74    H     0.37158   0.87019   0.33052   0.00000  Uiso   1.00
H75    H     0.97350   0.28034   0.11550   0.00000  Uiso   1.00
H76    H     0.89997   0.55069   0.17926   0.00000  Uiso   1.00
H77    H     0.14301   0.80317   0.07906   0.00000  Uiso   1.00
H78    H     0.28230   0.78597   0.13313   0.00000  Uiso   1.00
H79    H     0.09351   0.98050   0.03116   0.00000  Uiso   1.00
H80    H     0.05864   0.63448   0.06139   0.00000  Uiso   1.00
H81    H     0.42815   0.78053   0.21116   0.00000  Uiso   1.00
H82    H     0.03006   0.19069   0.99614   0.00000  Uiso   1.00
H83    H     0.95653   0.46103   0.05990   0.00000  Uiso   1.00
O84    O     0.49030   0.81597   0.30892   0.00000  Uiso   1.00
O85    O     0.96802   0.35406   0.02682   0.00000  Uiso   1.00
O86    O     0.87155   0.39677   0.11048   0.00000  Uiso   1.00
N87    N     0.36578   0.85143   0.29501   0.00000  Uiso   1.00
N88    N     0.99361   0.23490   0.09398   0.00000  Uiso   1.00
N89    N     0.92484   0.55275   0.15359   0.00000  Uiso   1.00
N90    N     0.39621   0.80318   0.23079   0.00000  Uiso   1.00
N91    N     0.02404   0.18666   0.02975   0.00000  Uiso   1.00
N92    N     0.95528   0.50451   0.08936   0.00000  Uiso   1.00
C93    C     0.40791   0.38389   0.31347   0.00000  Uiso   1.00
C94    C     0.32505   0.36314   0.29927   0.00000  Uiso   1.00
C95    C     0.27233   0.37258   0.25155   0.00000  Uiso   1.00
C96    C     0.19939   0.35009   0.24630   0.00000  Uiso   1.00
C97    C     0.07367   0.32260   0.21801   0.00000  Uiso   1.00
C98    C     0.42761   0.46884   0.35467   0.00000  Uiso   1.00
C99    C     0.46113   0.56714   0.35354   0.00000  Uiso   1.00
C100   C     0.47454   0.63362   0.39493   0.00000  Uiso   1.00
C101   C     0.50810   0.77020   0.45267   0.00000  Uiso   1.00
C102   C     0.44655   0.28083   0.33824   0.00000  Uiso   1.00
C103   C     0.49602   0.22107   0.32330   0.00000  Uiso   1.00
C104   C     0.52538   0.12927   0.35086   0.00000  Uiso   1.00
C105   C     0.58835   0.97395   0.38309   0.00000  Uiso   1.00
C106   C     0.37212   0.32716   0.38900   0.00000  Uiso   1.00
C107   C     0.30561   0.33233   0.34030   0.00000  Uiso   1.00
C108   C     0.23273   0.30981   0.33512   0.00000  Uiso   1.00
C109   C     0.17991   0.31921   0.28740   0.00000  Uiso   1.00
C110   C     0.40817   0.43803   0.39570   0.00000  Uiso   1.00
C111   C     0.42153   0.50437   0.43710   0.00000  Uiso   1.00
C112   C     0.45506   0.60275   0.43603   0.00000  Uiso   1.00
C113   C     0.42711   0.25002   0.37926   0.00000  Uiso   1.00
C114   C     0.45641   0.15830   0.40686   0.00000  Uiso   1.00
C115   C     0.50591   0.09840   0.39196   0.00000  Uiso   1.00
H116   H     0.42305   0.40789   0.28154   0.00000  Uiso   1.00
H117   H     0.28739   0.39644   0.21981   0.00000  Uiso   1.00
H118   H     0.47617   0.59096   0.32179   0.00000  Uiso   1.00
H119   H     0.51105   0.24494   0.29155   0.00000  Uiso   1.00
H120   H     0.12842   0.37019   0.16948   0.00000  Uiso   1.00
H121   H     0.52650   0.78034   0.38450   0.00000  Uiso   1.00
H122   H     0.60003   0.05069   0.32074   0.00000  Uiso   1.00
H123   H     0.35699   0.30317   0.42094   0.00000  Uiso   1.00
H124   H     0.21770   0.28597   0.36687   0.00000  Uiso   1.00
H125   H     0.40649   0.48050   0.46884   0.00000  Uiso   1.00
H126   H     0.44136   0.13448   0.43861   0.00000  Uiso   1.00
H127   H     0.07185   0.28053   0.28884   0.00000  Uiso   1.00
H128   H     0.46994   0.69069   0.50386   0.00000  Uiso   1.00
H129   H     0.54347   0.96103   0.44010   0.00000  Uiso   1.00
O130   O     0.00970   0.31597   0.19108   0.00000  Uiso   1.00
O131   O     0.53198   0.85406   0.47318   0.00000  Uiso   1.00
O132   O     0.62845   0.89677   0.38952   0.00000  Uiso   1.00
N133   N     0.13422   0.35143   0.20499   0.00000  Uiso   1.00
N134   N     0.50639   0.73490   0.40602   0.00000  Uiso   1.00
N135   N     0.57516   0.05275   0.34641   0.00000  Uiso   1.00
N136   N     0.10379   0.30318   0.26921   0.00000  Uiso   1.00
N137   N     0.47596   0.68666   0.47025   0.00000  Uiso   1.00
N138   N     0.54472   0.00451   0.41064   0.00000  Uiso   1.00
C139   C     0.90791   0.88389   0.31347   0.00000  Uiso   1.00
C140   C     0.82505   0.86314   0.29927   0.00000  Uiso   1.00
C141   C     0.77233   0.87258   0.25155   0.00000  Uiso   1.00
C142   C     0.69939   0.85009   0.24630   0.00000  Uiso   1.00
C143   C     0.57367   0.82260   0.21801   0.00000  Uiso   1.00
C144   C     0.92761   0.96884   0.35467   0.00000  Uiso   1.00
C145   C     0.96113   0.06714   0.35354   0.00000  Uiso   1.00
C146   C     0.97454   0.13362   0.39493   0.00000  Uiso   1.00
C147   C     0.00810   0.27020   0.45267   0.00000  Uiso   1.00
C148   C     0.94655   0.78083   0.33824   0.00000  Uiso   1.00
C149   C     0.99602   0.72107   0.32330   0.00000  Uiso   1.00
C150   C     0.02538   0.62927   0.35086   0.00000  Uiso   1.00
C151   C     0.08835   0.47395   0.38309   0.00000  Uiso   1.00
C152   C     0.87212   0.82716   0.38900   0.00000  Uiso   1.00
C153   C     0.80561   0.83233   0.34030   0.00000  Uiso   1.00
C154   C     0.73273   0.80981   0.33512   0.00000  Uiso   1.00
C155   C     0.67991   0.81921   0.28740   0.00000  Uiso   1.00
C156   C     0.90817   0.93803   0.39570   0.00000  Uiso   1.00
C157   C     0.92153   0.00437   0.43710   0.00000  Uiso   1.00
C158   C     0.95506   0.10275   0.43603   0.00000  Uiso   1.00
C159   C     0.92711   0.75002   0.37926   0.00000  Uiso   1.00
C160   C     0.95641   0.65830   0.40686   0.00000  Uiso   1.00
C161   C     0.00591   0.59840   0.39196   0.00000  Uiso   1.00
H162   H     0.92305   0.90789   0.28154   0.00000  Uiso   1.00
H163   H     0.78739   0.89644   0.21981   0.00000  Uiso   1.00
H164   H     0.97617   0.09096   0.32179   0.00000  Uiso   1.00
H165   H     0.01105   0.74494   0.29155   0.00000  Uiso   1.00
H166   H     0.62842   0.87019   0.16948   0.00000  Uiso   1.00
H167   H     0.02650   0.28034   0.38450   0.00000  Uiso   1.00
H168   H     0.10003   0.55069   0.32074   0.00000  Uiso   1.00
H169   H     0.85699   0.80317   0.42094   0.00000  Uiso   1.00
H170   H     0.71770   0.78597   0.36687   0.00000  Uiso   1.00
H171   H     0.90649   0.98050   0.46884   0.00000  Uiso   1.00
H172   H     0.94136   0.63448   0.43861   0.00000  Uiso   1.00
H173   H     0.57185   0.78053   0.28884   0.00000  Uiso   1.00
H174   H     0.96994   0.19069   0.50386   0.00000  Uiso   1.00
H175   H     0.04347   0.46103   0.44010   0.00000  Uiso   1.00
O176   O     0.50970   0.81597   0.19108   0.00000  Uiso   1.00
O177   O     0.03198   0.35406   0.47318   0.00000  Uiso   1.00
O178   O     0.12845   0.39677   0.38952   0.00000  Uiso   1.00
N179   N     0.63422   0.85143   0.20499   0.00000  Uiso   1.00
N180   N     0.00639   0.23490   0.40602   0.00000  Uiso   1.00
N181   N     0.07516   0.55275   0.34641   0.00000  Uiso   1.00
N182   N     0.60379   0.80318   0.26921   0.00000  Uiso   1.00
N183   N     0.97596   0.18666   0.47025   0.00000  Uiso   1.00
N184   N     0.04472   0.50451   0.41064   0.00000  Uiso   1.00
C185   C     0.40791   0.61611   0.81347   0.00000  Uiso   1.00
C186   C     0.32505   0.63686   0.79927   0.00000  Uiso   1.00
C187   C     0.27233   0.62742   0.75155   0.00000  Uiso   1.00
C188   C     0.19939   0.64991   0.74630   0.00000  Uiso   1.00
C189   C     0.07367   0.67740   0.71801   0.00000  Uiso   1.00
C190   C     0.42761   0.53116   0.85467   0.00000  Uiso   1.00
C191   C     0.46113   0.43286   0.85354   0.00000  Uiso   1.00
C192   C     0.47454   0.36638   0.89493   0.00000  Uiso   1.00
C193   C     0.50810   0.22980   0.95267   0.00000  Uiso   1.00
C194   C     0.44655   0.71917   0.83824   0.00000  Uiso   1.00
C195   C     0.49602   0.77893   0.82330   0.00000  Uiso   1.00
C196   C     0.52538   0.87073   0.85086   0.00000  Uiso   1.00
C197   C     0.58835   0.02605   0.88309   0.00000  Uiso   1.00
C198   C     0.37212   0.67284   0.88900   0.00000  Uiso   1.00
C199   C     0.30561   0.66767   0.84030   0.00000  Uiso   1.00
C200   C     0.23273   0.69019   0.83512   0.00000  Uiso   1.00
C201   C     0.17991   0.68079   0.78740   0.00000  Uiso   1.00
C202   C     0.40817   0.56197   0.89570   0.00000  Uiso   1.00
C203   C     0.42153   0.49563   0.93710   0.00000  Uiso   1.00
C204   C     0.45506   0.39725   0.93603   0.00000  Uiso   1.00
C205   C     0.42711   0.74998   0.87926   0.00000  Uiso   1.00
C206   C     0.45641   0.84170   0.90686   0.00000  Uiso   1.00
C207   C     0.50591   0.90160   0.89196   0.00000  Uiso   1.00
H208   H     0.42305   0.59211   0.78154   0.00000  Uiso   1.00
H209   H     0.28739   0.60356   0.71981   0.00000  Uiso   1.00
H210   H     0.47617   0.40904   0.82179   0.00000  Uiso   1.00
H211   H     0.51105   0.75506   0.79155   0.00000  Uiso   1.00
H212   H     0.12842   0.62981   0.66948   0.00000  Uiso   1.00
H213   H     0.52650   0.21966   0.88450   0.00000  Uiso   1.00
H214   H     0.60003   0.94931   0.82074   0.00000  Uiso   1.00
H215   H     0.35699   0.69683   0.92094   0.00000  Uiso   1.00
H216   H     0.21770   0.71403   0.86687   0.00000  Uiso   1.00
H217   H     0.40649   0.51950   0.96884   0.00000  Uiso   1.00
H218   H     0.44136   0.86552   0.93861   0.00000  Uiso   1.00
H219   H     0.07185   0.71947   0.78884   0.00000  Uiso   1.00
H220   H     0.46994   0.30931   0.00386   0.00000  Uiso   1.00
H221   H     0.54347   0.03897   0.94010   0.00000  Uiso   1.00
O222   O     0.00970   0.68403   0.69108   0.00000  Uiso   1.00
O223   O     0.53198   0.14594   0.97318   0.00000  Uiso   1.00
O224   O     0.62845   0.10323   0.88952   0.00000  Uiso   1.00
N225   N     0.13422   0.64857   0.70499   0.00000  Uiso   1.00
N226   N     0.50639   0.26510   0.90602   0.00000  Uiso   1.00
N227   N     0.57516   0.94725   0.84641   0.00000  Uiso   1.00
N228   N     0.10379   0.69682   0.76921   0.00000  Uiso   1.00
N229   N     0.47596   0.31334   0.97025   0.00000  Uiso   1.00
N230   N     0.54472   0.99549   0.91064   0.00000  Uiso   1.00
C231   C     0.90791   0.11611   0.81347   0.00000  Uiso   1.00
C232   C     0.82505   0.13686   0.79927   0.00000  Uiso   1.00
C233   C     0.77233   0.12742   0.75155   0.00000  Uiso   1.00
C234   C     0.69939   0.14991   0.74630   0.00000  Uiso   1.00
C235   C     0.57367   0.17740   0.71801   0.00000  Uiso   1.00
C236   C     0.92761   0.03116   0.85467   0.00000  Uiso   1.00
C237   C     0.96113   0.93286   0.85354   0.00000  Uiso   1.00
C238   C     0.97454   0.86638   0.89493   0.00000  Uiso   1.00
C239   C     0.00810   0.72980   0.95267   0.00000  Uiso   1.00
C240   C     0.94655   0.21917   0.83824   0.00000  Uiso   1.00
C241   C     0.99602   0.27893   0.82330   0.00000  Uiso   1.00
C242   C     0.02538   0.37073   0.85086   0.00000  Uiso   1.00
C243   C     0.08835   0.52605   0.88309   0.00000  Uiso   1.00
C244   C     0.87212   0.17284   0.88900   0.00000  Uiso   1.00
C245   C     0.80561   0.16767   0.84030   0.00000  Uiso   1.00
C246   C     0.73273   0.19019   0.83512   0.00000  Uiso   1.00
C247   C     0.67991   0.18079   0.78740   0.00000  Uiso   1.00
C248   C     0.90817   0.06197   0.89570   0.00000  Uiso   1.00
C249   C     0.92153   0.99563   0.93710   0.00000  Uiso   1.00
C250   C     0.95506   0.89725   0.93603   0.00000  Uiso   1.00
C251   C     0.92711   0.24998   0.87926   0.00000  Uiso   1.00
C252   C     0.95641   0.34170   0.90686   0.00000  Uiso   1.00
C253   C     0.00591   0.40160   0.89196   0.00000  Uiso   1.00
H254   H     0.92305   0.09211   0.78154   0.00000  Uiso   1.00
H255   H     0.78739   0.10356   0.71981   0.00000  Uiso   1.00
H256   H     0.97617   0.90904   0.82179   0.00000  Uiso   1.00
H257   H     0.01105   0.25506   0.79155   0.00000  Uiso   1.00
H258   H     0.62842   0.12981   0.66948   0.00000  Uiso   1.00
H259   H     0.02650   0.71966   0.88450   0.00000  Uiso   1.00
H260   H     0.10003   0.44931   0.82074   0.00000  Uiso   1.00
H261   H     0.85699   0.19683   0.92094   0.00000  Uiso   1.00
H262   H     0.71770   0.21403   0.86687   0.00000  Uiso   1.00
H263   H     0.90649   0.01950   0.96884   0.00000  Uiso   1.00
H264   H     0.94136   0.36552   0.93861   0.00000  Uiso   1.00
H265   H     0.57185   0.21947   0.78884   0.00000  Uiso   1.00
H266   H     0.96994   0.80931   0.00386   0.00000  Uiso   1.00
H267   H     0.04347   0.53897   0.94010   0.00000  Uiso   1.00
O268   O     0.50970   0.18403   0.69108   0.00000  Uiso   1.00
O269   O     0.03198   0.64594   0.97318   0.00000  Uiso   1.00
O270   O     0.12845   0.60323   0.88952   0.00000  Uiso   1.00
N271   N     0.63422   0.14857   0.70499   0.00000  Uiso   1.00
N272   N     0.00639   0.76510   0.90602   0.00000  Uiso   1.00
N273   N     0.07516   0.44725   0.84641   0.00000  Uiso   1.00
N274   N     0.60379   0.19682   0.76921   0.00000  Uiso   1.00
N275   N     0.97596   0.81334   0.97025   0.00000  Uiso   1.00
N276   N     0.04472   0.49549   0.91064   0.00000  Uiso   1.00
C277   C     0.59209   0.61611   0.68653   0.00000  Uiso   1.00
C278   C     0.67495   0.63686   0.70073   0.00000  Uiso   1.00
C279   C     0.72767   0.62742   0.74845   0.00000  Uiso   1.00
C280   C     0.80061   0.64991   0.75370   0.00000  Uiso   1.00
C281   C     0.92633   0.67740   0.78199   0.00000  Uiso   1.00
C282   C     0.57239   0.53116   0.64533   0.00000  Uiso   1.00
C283   C     0.53887   0.43286   0.64646   0.00000  Uiso   1.00
C284   C     0.52546   0.36638   0.60507   0.00000  Uiso   1.00
C285   C     0.49190   0.22980   0.54733   0.00000  Uiso   1.00
C286   C     0.55345   0.71917   0.66176   0.00000  Uiso   1.00
C287   C     0.50398   0.77893   0.67670   0.00000  Uiso   1.00
C288   C     0.47462   0.87073   0.64914   0.00000  Uiso   1.00
C289   C     0.41165   0.02605   0.61691   0.00000  Uiso   1.00
C290   C     0.62788   0.67284   0.61100   0.00000  Uiso   1.00
C291   C     0.69439   0.66767   0.65970   0.00000  Uiso   1.00
C292   C     0.76727   0.69019   0.66488   0.00000  Uiso   1.00
C293   C     0.82009   0.68079   0.71260   0.00000  Uiso   1.00
C294   C     0.59183   0.56197   0.60430   0.00000  Uiso   1.00
C295   C     0.57847   0.49563   0.56290   0.00000  Uiso   1.00
C296   C     0.54494   0.39725   0.56397   0.00000  Uiso   1.00
C297   C     0.57289   0.74998   0.62074   0.00000  Uiso   1.00
C298   C     0.54359   0.84170   0.59314   0.00000  Uiso   1.00
C299   C     0.49409   0.90160   0.60804   0.00000  Uiso   1.00
H300   H     0.57695   0.59211   0.71846   0.00000  Uiso   1.00
H301   H     0.71261   0.60356   0.78019   0.00000  Uiso   1.00
H302   H     0.52383   0.40904   0.67821   0.00000  Uiso   1.00
H303   H     0.48895   0.75506   0.70845   0.00000  Uiso   1.00
H304   H     0.87158   0.62981   0.83052   0.00000  Uiso   1.00
H305   H     0.47350   0.21966   0.61550   0.00000  Uiso   1.00
H306   H     0.39997   0.94931   0.67926   0.00000  Uiso   1.00
H307   H     0.64301   0.69683   0.57906   0.00000  Uiso   1.00
H308   H     0.78230   0.71403   0.63313   0.00000  Uiso   1.00
H309   H     0.59351   0.51950   0.53116   0.00000  Uiso   1.00
H310   H     0.55864   0.86552   0.56139   0.00000  Uiso   1.00
H311   H     0.92815   0.71947   0.71116   0.00000  Uiso   1.00
H312   H     0.53006   0.30931   0.49614   0.00000  Uiso   1.00
H313   H     0.45653   0.03897   0.55990   0.00000  Uiso   1.00
O314   O     0.99030   0.68403   0.80892   0.00000  Uiso   1.00
O315   O     0.46802   0.14594   0.52682   0.00000  Uiso   1.00
O316   O     0.37155   0.10323   0.61048   0.00000  Uiso   1.00
N317   N     0.86578   0.64857   0.79501   0.00000  Uiso   1.00
N318   N     0.49361   0.26510   0.59398   0.00000  Uiso   1.00
N319   N     0.42484   0.94725   0.65359   0.00000  Uiso   1.00
N320   N     0.89621   0.69682   0.73079   0.00000  Uiso   1.00
N321   N     0.52404   0.31334   0.52975   0.00000  Uiso   1.00
N322   N     0.45528   0.99549   0.58936   0.00000  Uiso   1.00
C323   C     0.09209   0.11611   0.68653   0.00000  Uiso   1.00
C324   C     0.17495   0.13686   0.70073   0.00000  Uiso   1.00
C325   C     0.22767   0.12742   0.74845   0.00000  Uiso   1.00
C326   C     0.30061   0.14991   0.75370   0.00000  Uiso   1.00
C327   C     0.42633   0.17740   0.78199   0.00000  Uiso   1.00
C328   C     0.07239   0.03116   0.64533   0.00000  Uiso   1.00
C329   C     0.03887   0.93286   0.64646   0.00000  Uiso   1.00
C330   C     0.02546   0.86638   0.60507   0.00000  Uiso   1.00
C331   C     0.99190   0.72980   0.54733   0.00000  Uiso   1.00
C332   C     0.05345   0.21917   0.66176   0.00000  Uiso   1.00
C333   C     0.00398   0.27893   0.67670   0.00000  Uiso   1.00
C334   C     0.97462   0.37073   0.64914   0.00000  Uiso   1.00
C335   C     0.91165   0.52605   0.61691   0.00000  Uiso   1.00
C336   C     0.12788   0.17284   0.61100   0.00000  Uiso   1.00
C337   C     0.19439   0.16767   0.65970   0.00000  Uiso   1.00
C338   C     0.26727   0.19019   0.66488   0.00000  Uiso   1.00
C339   C     0.32009   0.18079   0.71260   0.00000  Uiso   1.00
C340   C     0.09183   0.06197   0.60430   0.00000  Uiso   1.00
C341   C     0.07847   0.99563   0.56290   0.00000  Uiso   1.00
C342   C     0.04494   0.89725   0.56397   0.00000  Uiso   1.00
C343   C     0.07289   0.24998   0.62074   0.00000  Uiso   1.00
C344   C     0.04359   0.34170   0.59314   0.00000  Uiso   1.00
C345   C     0.99409   0.40160   0.60804   0.00000  Uiso   1.00
H346   H     0.07695   0.09211   0.71846   0.00000  Uiso   1.00
H347   H     0.21261   0.10356   0.78019   0.00000  Uiso   1.00
H348   H     0.02383   0.90904   0.67821   0.00000  Uiso   1.00
H349   H     0.98895   0.25506   0.70845   0.00000  Uiso   1.00
H350   H     0.37158   0.12981   0.83052   0.00000  Uiso   1.00
H351   H     0.97350   0.71966   0.61550   0.00000  Uiso   1.00
H352   H     0.89997   0.44931   0.67926   0.00000  Uiso   1.00
H353   H     0.14301   0.19683   0.57906   0.00000  Uiso   1.00
H354   H     0.28230   0.21403   0.63313   0.00000  Uiso   1.00
H355   H     0.09351   0.01950   0.53116   0.00000  Uiso   1.00
H356   H     0.05864   0.36552   0.56139   0.00000  Uiso   1.00
H357   H     0.42815   0.21947   0.71116   0.00000  Uiso   1.00
H358   H     0.03006   0.80931   0.49614   0.00000  Uiso   1.00
H359   H     0.95653   0.53897   0.55990   0.00000  Uiso   1.00
O360   O     0.49030   0.18403   0.80892   0.00000  Uiso   1.00
O361   O     0.96802   0.64594   0.52682   0.00000  Uiso   1.00
O362   O     0.87155   0.60323   0.61048   0.00000  Uiso   1.00
N363   N     0.36578   0.14857   0.79501   0.00000  Uiso   1.00
N364   N     0.99361   0.76510   0.59398   0.00000  Uiso   1.00
N365   N     0.92484   0.44725   0.65359   0.00000  Uiso   1.00
N366   N     0.39621   0.19682   0.73079   0.00000  Uiso   1.00
N367   N     0.02404   0.81334   0.52975   0.00000  Uiso   1.00
N368   N     0.95528   0.49549   0.58936   0.00000  Uiso   1.00
