data_job_03218
_audit_creation_date              2018-12-19
_audit_creation_method            'Materials Studio'
_symmetry_space_group_name_H-M    'P1'
_symmetry_Int_Tables_number       1
_symmetry_cell_setting            triclinic
loop_
_symmetry_equiv_pos_as_xyz
  x,y,z
_cell_length_a                    16.9833
_cell_length_b                    11.6674
_cell_length_c                    26.9272
_cell_angle_alpha                 90.0000
_cell_angle_beta                  99.7948
_cell_angle_gamma                 90.0000
loop_
_atom_site_label
_atom_site_type_symbol
_atom_site_fract_x
_atom_site_fract_y
_atom_site_fract_z
_atom_site_U_iso_or_equiv
_atom_site_adp_type
_atom_site_occupancy
C1     C     0.15971   0.50728   0.35593   0.00000  Uiso   1.00
C2     C     0.21135   0.49832   0.40797   0.00000  Uiso   1.00
C3     C     0.28932   0.45804   0.41808   0.00000  Uiso   1.00
C4     C     0.32631   0.45661   0.46820   0.00000  Uiso   1.00
C5     C     0.41251   0.43692   0.54314   0.00000  Uiso   1.00
C6     C     0.08418   0.43860   0.35869   0.00000  Uiso   1.00
C7     C     0.05523   0.34813   0.32737   0.00000  Uiso   1.00
C8     C     0.98516   0.29645   0.33600   0.00000  Uiso   1.00
C9     C     0.87390   0.18411   0.33441   0.00000  Uiso   1.00
C10    C     0.13359   0.63226   0.34980   0.00000  Uiso   1.00
C11    C     0.14617   0.70461   0.31099   0.00000  Uiso   1.00
C12    C     0.11768   0.81596   0.31213   0.00000  Uiso   1.00
C13    C     0.08314   0.00431   0.29672   0.00000  Uiso   1.00
C14    C     0.08675   0.57637   0.42694   0.00000  Uiso   1.00
C15    C     0.17171   0.53584   0.44654   0.00000  Uiso   1.00
C16    C     0.20860   0.53447   0.49665   0.00000  Uiso   1.00
C17    C     0.28661   0.49420   0.50684   0.00000  Uiso   1.00
C18    C     0.04455   0.47612   0.39726   0.00000  Uiso   1.00
C19    C     0.97450   0.42457   0.40594   0.00000  Uiso   1.00
C20    C     0.94546   0.33404   0.37464   0.00000  Uiso   1.00
C21    C     0.09396   0.66979   0.38837   0.00000  Uiso   1.00
C22    C     0.06545   0.78104   0.38956   0.00000  Uiso   1.00
C23    C     0.07798   0.85355   0.35077   0.00000  Uiso   1.00
H24    H     0.19055   0.47806   0.32590   0.00000  Uiso   1.00
H25    H     0.31996   0.42900   0.38822   0.00000  Uiso   1.00
H26    H     0.08590   0.31912   0.29752   0.00000  Uiso   1.00
H27    H     0.17683   0.67554   0.28115   0.00000  Uiso   1.00
H28    H     0.44595   0.39111   0.47433   0.00000  Uiso   1.00
H29    H     0.95241   0.15945   0.28307   0.00000  Uiso   1.00
H30    H     0.14415   0.91103   0.24854   0.00000  Uiso   1.00
H31    H     0.05589   0.60558   0.45697   0.00000  Uiso   1.00
H32    H     0.17792   0.56352   0.52649   0.00000  Uiso   1.00
H33    H     0.94385   0.45363   0.43579   0.00000  Uiso   1.00
H34    H     0.03479   0.81005   0.41941   0.00000  Uiso   1.00
H35    H     0.33066   0.50028   0.58656   0.00000  Uiso   1.00
H36    H     0.83711   0.26862   0.39529   0.00000  Uiso   1.00
H37    H     0.02886   0.02021   0.36077   0.00000  Uiso   1.00
O38    O     0.47100   0.41569   0.57382   0.00000  Uiso   1.00
O39    O     0.82348   0.11177   0.32288   0.00000  Uiso   1.00
O40    O     0.07505   0.09783   0.27758   0.00000  Uiso   1.00
N41    N     0.40208   0.42260   0.49120   0.00000  Uiso   1.00
N42    N     0.94065   0.20600   0.31239   0.00000  Uiso   1.00
N43    N     0.11990   0.90866   0.28010   0.00000  Uiso   1.00
N44    N     0.34004   0.48134   0.55159   0.00000  Uiso   1.00
N45    N     0.87861   0.26474   0.37278   0.00000  Uiso   1.00
N46    N     0.05786   0.96740   0.34049   0.00000  Uiso   1.00
C47    C     0.65971   0.00728   0.35593   0.00000  Uiso   1.00
C48    C     0.71135   0.99832   0.40797   0.00000  Uiso   1.00
C49    C     0.78932   0.95804   0.41808   0.00000  Uiso   1.00
C50    C     0.82631   0.95661   0.46820   0.00000  Uiso   1.00
C51    C     0.91251   0.93692   0.54314   0.00000  Uiso   1.00
C52    C     0.58418   0.93860   0.35869   0.00000  Uiso   1.00
C53    C     0.55523   0.84813   0.32737   0.00000  Uiso   1.00
C54    C     0.48516   0.79645   0.33600   0.00000  Uiso   1.00
C55    C     0.37390   0.68411   0.33441   0.00000  Uiso   1.00
C56    C     0.63359   0.13226   0.34980   0.00000  Uiso   1.00
C57    C     0.64617   0.20461   0.31099   0.00000  Uiso   1.00
C58    C     0.61768   0.31596   0.31213   0.00000  Uiso   1.00
C59    C     0.58314   0.50431   0.29672   0.00000  Uiso   1.00
C60    C     0.58675   0.07637   0.42694   0.00000  Uiso   1.00
C61    C     0.67171   0.03584   0.44654   0.00000  Uiso   1.00
C62    C     0.70860   0.03447   0.49665   0.00000  Uiso   1.00
C63    C     0.78661   0.99420   0.50684   0.00000  Uiso   1.00
C64    C     0.54455   0.97612   0.39726   0.00000  Uiso   1.00
C65    C     0.47450   0.92457   0.40594   0.00000  Uiso   1.00
C66    C     0.44546   0.83404   0.37464   0.00000  Uiso   1.00
C67    C     0.59396   0.16979   0.38837   0.00000  Uiso   1.00
C68    C     0.56545   0.28104   0.38956   0.00000  Uiso   1.00
C69    C     0.57798   0.35355   0.35077   0.00000  Uiso   1.00
H70    H     0.69055   0.97806   0.32590   0.00000  Uiso   1.00
H71    H     0.81996   0.92900   0.38822   0.00000  Uiso   1.00
H72    H     0.58590   0.81912   0.29752   0.00000  Uiso   1.00
H73    H     0.67683   0.17554   0.28115   0.00000  Uiso   1.00
H74    H     0.94595   0.89111   0.47433   0.00000  Uiso   1.00
H75    H     0.45241   0.65945   0.28307   0.00000  Uiso   1.00
H76    H     0.64415   0.41103   0.24854   0.00000  Uiso   1.00
H77    H     0.55589   0.10558   0.45697   0.00000  Uiso   1.00
H78    H     0.67792   0.06352   0.52649   0.00000  Uiso   1.00
H79    H     0.44385   0.95363   0.43579   0.00000  Uiso   1.00
H80    H     0.53479   0.31005   0.41941   0.00000  Uiso   1.00
H81    H     0.83066   0.00028   0.58656   0.00000  Uiso   1.00
H82    H     0.33711   0.76862   0.39529   0.00000  Uiso   1.00
H83    H     0.52886   0.52021   0.36077   0.00000  Uiso   1.00
O84    O     0.97100   0.91569   0.57382   0.00000  Uiso   1.00
O85    O     0.32348   0.61177   0.32288   0.00000  Uiso   1.00
O86    O     0.57505   0.59783   0.27758   0.00000  Uiso   1.00
N87    N     0.90208   0.92260   0.49120   0.00000  Uiso   1.00
N88    N     0.44065   0.70600   0.31239   0.00000  Uiso   1.00
N89    N     0.61990   0.40866   0.28010   0.00000  Uiso   1.00
N90    N     0.84004   0.98134   0.55159   0.00000  Uiso   1.00
N91    N     0.37861   0.76474   0.37278   0.00000  Uiso   1.00
N92    N     0.55786   0.46740   0.34049   0.00000  Uiso   1.00
C93    C     0.84029   0.50728   0.14407   0.00000  Uiso   1.00
C94    C     0.78865   0.49832   0.09203   0.00000  Uiso   1.00
C95    C     0.71068   0.45804   0.08192   0.00000  Uiso   1.00
C96    C     0.67369   0.45661   0.03180   0.00000  Uiso   1.00
C97    C     0.58749   0.43692   0.95686   0.00000  Uiso   1.00
C98    C     0.91582   0.43860   0.14131   0.00000  Uiso   1.00
C99    C     0.94477   0.34813   0.17263   0.00000  Uiso   1.00
C100   C     0.01484   0.29645   0.16400   0.00000  Uiso   1.00
C101   C     0.12610   0.18411   0.16559   0.00000  Uiso   1.00
C102   C     0.86641   0.63226   0.15020   0.00000  Uiso   1.00
C103   C     0.85383   0.70461   0.18901   0.00000  Uiso   1.00
C104   C     0.88232   0.81596   0.18787   0.00000  Uiso   1.00
C105   C     0.91686   0.00431   0.20328   0.00000  Uiso   1.00
C106   C     0.91325   0.57637   0.07306   0.00000  Uiso   1.00
C107   C     0.82829   0.53584   0.05346   0.00000  Uiso   1.00
C108   C     0.79140   0.53447   0.00335   0.00000  Uiso   1.00
C109   C     0.71339   0.49420   0.99316   0.00000  Uiso   1.00
C110   C     0.95545   0.47612   0.10274   0.00000  Uiso   1.00
C111   C     0.02550   0.42457   0.09406   0.00000  Uiso   1.00
C112   C     0.05454   0.33404   0.12536   0.00000  Uiso   1.00
C113   C     0.90604   0.66979   0.11163   0.00000  Uiso   1.00
C114   C     0.93455   0.78104   0.11044   0.00000  Uiso   1.00
C115   C     0.92202   0.85355   0.14923   0.00000  Uiso   1.00
H116   H     0.80945   0.47806   0.17410   0.00000  Uiso   1.00
H117   H     0.68004   0.42900   0.11178   0.00000  Uiso   1.00
H118   H     0.91410   0.31912   0.20248   0.00000  Uiso   1.00
H119   H     0.82317   0.67554   0.21885   0.00000  Uiso   1.00
H120   H     0.55405   0.39111   0.02567   0.00000  Uiso   1.00
H121   H     0.04759   0.15945   0.21693   0.00000  Uiso   1.00
H122   H     0.85585   0.91103   0.25146   0.00000  Uiso   1.00
H123   H     0.94411   0.60558   0.04303   0.00000  Uiso   1.00
H124   H     0.82208   0.56352   0.97351   0.00000  Uiso   1.00
H125   H     0.05615   0.45363   0.06421   0.00000  Uiso   1.00
H126   H     0.96521   0.81005   0.08059   0.00000  Uiso   1.00
H127   H     0.66934   0.50028   0.91344   0.00000  Uiso   1.00
H128   H     0.16289   0.26862   0.10471   0.00000  Uiso   1.00
H129   H     0.97114   0.02021   0.13923   0.00000  Uiso   1.00
O130   O     0.52900   0.41569   0.92618   0.00000  Uiso   1.00
O131   O     0.17652   0.11177   0.17712   0.00000  Uiso   1.00
O132   O     0.92495   0.09783   0.22242   0.00000  Uiso   1.00
N133   N     0.59792   0.42260   0.00880   0.00000  Uiso   1.00
N134   N     0.05935   0.20600   0.18761   0.00000  Uiso   1.00
N135   N     0.88010   0.90866   0.21990   0.00000  Uiso   1.00
N136   N     0.65996   0.48134   0.94841   0.00000  Uiso   1.00
N137   N     0.12139   0.26474   0.12722   0.00000  Uiso   1.00
N138   N     0.94214   0.96740   0.15951   0.00000  Uiso   1.00
C139   C     0.34029   0.00728   0.14407   0.00000  Uiso   1.00
C140   C     0.28865   0.99832   0.09203   0.00000  Uiso   1.00
C141   C     0.21068   0.95804   0.08192   0.00000  Uiso   1.00
C142   C     0.17369   0.95661   0.03180   0.00000  Uiso   1.00
C143   C     0.08749   0.93692   0.95686   0.00000  Uiso   1.00
C144   C     0.41582   0.93860   0.14131   0.00000  Uiso   1.00
C145   C     0.44477   0.84813   0.17263   0.00000  Uiso   1.00
C146   C     0.51484   0.79645   0.16400   0.00000  Uiso   1.00
C147   C     0.62610   0.68411   0.16559   0.00000  Uiso   1.00
C148   C     0.36641   0.13226   0.15020   0.00000  Uiso   1.00
C149   C     0.35383   0.20461   0.18901   0.00000  Uiso   1.00
C150   C     0.38232   0.31596   0.18787   0.00000  Uiso   1.00
C151   C     0.41686   0.50431   0.20328   0.00000  Uiso   1.00
C152   C     0.41325   0.07637   0.07306   0.00000  Uiso   1.00
C153   C     0.32829   0.03584   0.05346   0.00000  Uiso   1.00
C154   C     0.29140   0.03447   0.00335   0.00000  Uiso   1.00
C155   C     0.21339   0.99420   0.99316   0.00000  Uiso   1.00
C156   C     0.45545   0.97612   0.10274   0.00000  Uiso   1.00
C157   C     0.52550   0.92457   0.09406   0.00000  Uiso   1.00
C158   C     0.55454   0.83404   0.12536   0.00000  Uiso   1.00
C159   C     0.40604   0.16979   0.11163   0.00000  Uiso   1.00
C160   C     0.43455   0.28104   0.11044   0.00000  Uiso   1.00
C161   C     0.42202   0.35355   0.14923   0.00000  Uiso   1.00
H162   H     0.30945   0.97806   0.17410   0.00000  Uiso   1.00
H163   H     0.18004   0.92900   0.11178   0.00000  Uiso   1.00
H164   H     0.41410   0.81912   0.20248   0.00000  Uiso   1.00
H165   H     0.32317   0.17554   0.21885   0.00000  Uiso   1.00
H166   H     0.05405   0.89111   0.02567   0.00000  Uiso   1.00
H167   H     0.54759   0.65945   0.21693   0.00000  Uiso   1.00
H168   H     0.35585   0.41103   0.25146   0.00000  Uiso   1.00
H169   H     0.44411   0.10558   0.04303   0.00000  Uiso   1.00
H170   H     0.32208   0.06352   0.97351   0.00000  Uiso   1.00
H171   H     0.55615   0.95363   0.06421   0.00000  Uiso   1.00
H172   H     0.46521   0.31005   0.08059   0.00000  Uiso   1.00
H173   H     0.16934   0.00028   0.91344   0.00000  Uiso   1.00
H174   H     0.66289   0.76862   0.10471   0.00000  Uiso   1.00
H175   H     0.47114   0.52021   0.13923   0.00000  Uiso   1.00
O176   O     0.02900   0.91569   0.92618   0.00000  Uiso   1.00
O177   O     0.67652   0.61177   0.17712   0.00000  Uiso   1.00
O178   O     0.42495   0.59783   0.22242   0.00000  Uiso   1.00
N179   N     0.09792   0.92260   0.00880   0.00000  Uiso   1.00
N180   N     0.55935   0.70600   0.18761   0.00000  Uiso   1.00
N181   N     0.38010   0.40866   0.21990   0.00000  Uiso   1.00
N182   N     0.15996   0.98134   0.94841   0.00000  Uiso   1.00
N183   N     0.62139   0.76474   0.12722   0.00000  Uiso   1.00
N184   N     0.44214   0.46740   0.15951   0.00000  Uiso   1.00
C185   C     0.84029   0.49272   0.64407   0.00000  Uiso   1.00
C186   C     0.78865   0.50168   0.59203   0.00000  Uiso   1.00
C187   C     0.71068   0.54196   0.58192   0.00000  Uiso   1.00
C188   C     0.67369   0.54339   0.53180   0.00000  Uiso   1.00
C189   C     0.58749   0.56308   0.45686   0.00000  Uiso   1.00
C190   C     0.91582   0.56140   0.64131   0.00000  Uiso   1.00
C191   C     0.94477   0.65187   0.67263   0.00000  Uiso   1.00
C192   C     0.01484   0.70355   0.66400   0.00000  Uiso   1.00
C193   C     0.12610   0.81589   0.66559   0.00000  Uiso   1.00
C194   C     0.86641   0.36774   0.65020   0.00000  Uiso   1.00
C195   C     0.85383   0.29539   0.68901   0.00000  Uiso   1.00
C196   C     0.88232   0.18404   0.68787   0.00000  Uiso   1.00
C197   C     0.91686   0.99569   0.70328   0.00000  Uiso   1.00
C198   C     0.91325   0.42363   0.57306   0.00000  Uiso   1.00
C199   C     0.82829   0.46416   0.55346   0.00000  Uiso   1.00
C200   C     0.79140   0.46553   0.50335   0.00000  Uiso   1.00
C201   C     0.71339   0.50580   0.49316   0.00000  Uiso   1.00
C202   C     0.95545   0.52388   0.60274   0.00000  Uiso   1.00
C203   C     0.02550   0.57543   0.59406   0.00000  Uiso   1.00
C204   C     0.05454   0.66596   0.62536   0.00000  Uiso   1.00
C205   C     0.90604   0.33021   0.61163   0.00000  Uiso   1.00
C206   C     0.93455   0.21896   0.61044   0.00000  Uiso   1.00
C207   C     0.92202   0.14645   0.64923   0.00000  Uiso   1.00
H208   H     0.80945   0.52194   0.67410   0.00000  Uiso   1.00
H209   H     0.68004   0.57100   0.61178   0.00000  Uiso   1.00
H210   H     0.91410   0.68088   0.70248   0.00000  Uiso   1.00
H211   H     0.82317   0.32446   0.71885   0.00000  Uiso   1.00
H212   H     0.55405   0.60889   0.52567   0.00000  Uiso   1.00
H213   H     0.04759   0.84055   0.71693   0.00000  Uiso   1.00
H214   H     0.85585   0.08897   0.75146   0.00000  Uiso   1.00
H215   H     0.94411   0.39442   0.54303   0.00000  Uiso   1.00
H216   H     0.82208   0.43648   0.47351   0.00000  Uiso   1.00
H217   H     0.05615   0.54637   0.56421   0.00000  Uiso   1.00
H218   H     0.96521   0.18995   0.58059   0.00000  Uiso   1.00
H219   H     0.66934   0.49972   0.41344   0.00000  Uiso   1.00
H220   H     0.16289   0.73138   0.60471   0.00000  Uiso   1.00
H221   H     0.97114   0.97979   0.63923   0.00000  Uiso   1.00
O222   O     0.52900   0.58431   0.42618   0.00000  Uiso   1.00
O223   O     0.17652   0.88823   0.67712   0.00000  Uiso   1.00
O224   O     0.92495   0.90217   0.72242   0.00000  Uiso   1.00
N225   N     0.59792   0.57740   0.50880   0.00000  Uiso   1.00
N226   N     0.05935   0.79400   0.68761   0.00000  Uiso   1.00
N227   N     0.88010   0.09134   0.71990   0.00000  Uiso   1.00
N228   N     0.65996   0.51866   0.44841   0.00000  Uiso   1.00
N229   N     0.12139   0.73526   0.62722   0.00000  Uiso   1.00
N230   N     0.94214   0.03260   0.65951   0.00000  Uiso   1.00
C231   C     0.34029   0.99272   0.64407   0.00000  Uiso   1.00
C232   C     0.28865   0.00168   0.59203   0.00000  Uiso   1.00
C233   C     0.21068   0.04196   0.58192   0.00000  Uiso   1.00
C234   C     0.17369   0.04339   0.53180   0.00000  Uiso   1.00
C235   C     0.08749   0.06308   0.45686   0.00000  Uiso   1.00
C236   C     0.41582   0.06140   0.64131   0.00000  Uiso   1.00
C237   C     0.44477   0.15187   0.67263   0.00000  Uiso   1.00
C238   C     0.51484   0.20355   0.66400   0.00000  Uiso   1.00
C239   C     0.62610   0.31589   0.66559   0.00000  Uiso   1.00
C240   C     0.36641   0.86774   0.65020   0.00000  Uiso   1.00
C241   C     0.35383   0.79539   0.68901   0.00000  Uiso   1.00
C242   C     0.38232   0.68404   0.68787   0.00000  Uiso   1.00
C243   C     0.41686   0.49569   0.70328   0.00000  Uiso   1.00
C244   C     0.41325   0.92363   0.57306   0.00000  Uiso   1.00
C245   C     0.32829   0.96416   0.55346   0.00000  Uiso   1.00
C246   C     0.29140   0.96553   0.50335   0.00000  Uiso   1.00
C247   C     0.21339   0.00580   0.49316   0.00000  Uiso   1.00
C248   C     0.45545   0.02388   0.60274   0.00000  Uiso   1.00
C249   C     0.52550   0.07543   0.59406   0.00000  Uiso   1.00
C250   C     0.55454   0.16596   0.62536   0.00000  Uiso   1.00
C251   C     0.40604   0.83021   0.61163   0.00000  Uiso   1.00
C252   C     0.43455   0.71896   0.61044   0.00000  Uiso   1.00
C253   C     0.42202   0.64645   0.64923   0.00000  Uiso   1.00
H254   H     0.30945   0.02194   0.67410   0.00000  Uiso   1.00
H255   H     0.18004   0.07100   0.61178   0.00000  Uiso   1.00
H256   H     0.41410   0.18088   0.70248   0.00000  Uiso   1.00
H257   H     0.32317   0.82446   0.71885   0.00000  Uiso   1.00
H258   H     0.05405   0.10889   0.52567   0.00000  Uiso   1.00
H259   H     0.54759   0.34055   0.71693   0.00000  Uiso   1.00
H260   H     0.35585   0.58897   0.75146   0.00000  Uiso   1.00
H261   H     0.44411   0.89442   0.54303   0.00000  Uiso   1.00
H262   H     0.32208   0.93648   0.47351   0.00000  Uiso   1.00
H263   H     0.55615   0.04637   0.56421   0.00000  Uiso   1.00
H264   H     0.46521   0.68995   0.58059   0.00000  Uiso   1.00
H265   H     0.16934   0.99972   0.41344   0.00000  Uiso   1.00
H266   H     0.66289   0.23138   0.60471   0.00000  Uiso   1.00
H267   H     0.47114   0.47979   0.63923   0.00000  Uiso   1.00
O268   O     0.02900   0.08431   0.42618   0.00000  Uiso   1.00
O269   O     0.67652   0.38823   0.67712   0.00000  Uiso   1.00
O270   O     0.42495   0.40217   0.72242   0.00000  Uiso   1.00
N271   N     0.09792   0.07740   0.50880   0.00000  Uiso   1.00
N272   N     0.55935   0.29400   0.68761   0.00000  Uiso   1.00
N273   N     0.38010   0.59134   0.71990   0.00000  Uiso   1.00
N274   N     0.15996   0.01866   0.44841   0.00000  Uiso   1.00
N275   N     0.62139   0.23526   0.62722   0.00000  Uiso   1.00
N276   N     0.44214   0.53260   0.65951   0.00000  Uiso   1.00
C277   C     0.15971   0.49272   0.85593   0.00000  Uiso   1.00
C278   C     0.21135   0.50168   0.90797   0.00000  Uiso   1.00
C279   C     0.28932   0.54196   0.91808   0.00000  Uiso   1.00
C280   C     0.32631   0.54339   0.96820   0.00000  Uiso   1.00
C281   C     0.41251   0.56308   0.04314   0.00000  Uiso   1.00
C282   C     0.08418   0.56140   0.85869   0.00000  Uiso   1.00
C283   C     0.05523   0.65187   0.82737   0.00000  Uiso   1.00
C284   C     0.98516   0.70355   0.83600   0.00000  Uiso   1.00
C285   C     0.87390   0.81589   0.83441   0.00000  Uiso   1.00
C286   C     0.13359   0.36774   0.84980   0.00000  Uiso   1.00
C287   C     0.14617   0.29539   0.81099   0.00000  Uiso   1.00
C288   C     0.11768   0.18404   0.81213   0.00000  Uiso   1.00
C289   C     0.08314   0.99569   0.79672   0.00000  Uiso   1.00
C290   C     0.08675   0.42363   0.92694   0.00000  Uiso   1.00
C291   C     0.17171   0.46416   0.94654   0.00000  Uiso   1.00
C292   C     0.20860   0.46553   0.99665   0.00000  Uiso   1.00
C293   C     0.28661   0.50580   0.00684   0.00000  Uiso   1.00
C294   C     0.04455   0.52388   0.89726   0.00000  Uiso   1.00
C295   C     0.97450   0.57543   0.90594   0.00000  Uiso   1.00
C296   C     0.94546   0.66596   0.87464   0.00000  Uiso   1.00
C297   C     0.09396   0.33021   0.88837   0.00000  Uiso   1.00
C298   C     0.06545   0.21896   0.88956   0.00000  Uiso   1.00
C299   C     0.07798   0.14645   0.85077   0.00000  Uiso   1.00
H300   H     0.19055   0.52194   0.82590   0.00000  Uiso   1.00
H301   H     0.31996   0.57100   0.88822   0.00000  Uiso   1.00
H302   H     0.08590   0.68088   0.79752   0.00000  Uiso   1.00
H303   H     0.17683   0.32446   0.78115   0.00000  Uiso   1.00
H304   H     0.44595   0.60889   0.97433   0.00000  Uiso   1.00
H305   H     0.95241   0.84055   0.78307   0.00000  Uiso   1.00
H306   H     0.14415   0.08897   0.74854   0.00000  Uiso   1.00
H307   H     0.05589   0.39442   0.95697   0.00000  Uiso   1.00
H308   H     0.17792   0.43648   0.02649   0.00000  Uiso   1.00
H309   H     0.94385   0.54637   0.93579   0.00000  Uiso   1.00
H310   H     0.03479   0.18995   0.91941   0.00000  Uiso   1.00
H311   H     0.33066   0.49972   0.08656   0.00000  Uiso   1.00
H312   H     0.83711   0.73138   0.89529   0.00000  Uiso   1.00
H313   H     0.02886   0.97979   0.86077   0.00000  Uiso   1.00
O314   O     0.47100   0.58431   0.07382   0.00000  Uiso   1.00
O315   O     0.82348   0.88823   0.82288   0.00000  Uiso   1.00
O316   O     0.07505   0.90217   0.77758   0.00000  Uiso   1.00
N317   N     0.40208   0.57740   0.99120   0.00000  Uiso   1.00
N318   N     0.94065   0.79400   0.81239   0.00000  Uiso   1.00
N319   N     0.11990   0.09134   0.78010   0.00000  Uiso   1.00
N320   N     0.34004   0.51866   0.05159   0.00000  Uiso   1.00
N321   N     0.87861   0.73526   0.87278   0.00000  Uiso   1.00
N322   N     0.05786   0.03260   0.84049   0.00000  Uiso   1.00
C323   C     0.65971   0.99272   0.85593   0.00000  Uiso   1.00
C324   C     0.71135   0.00168   0.90797   0.00000  Uiso   1.00
C325   C     0.78932   0.04196   0.91808   0.00000  Uiso   1.00
C326   C     0.82631   0.04339   0.96820   0.00000  Uiso   1.00
C327   C     0.91251   0.06308   0.04314   0.00000  Uiso   1.00
C328   C     0.58418   0.06140   0.85869   0.00000  Uiso   1.00
C329   C     0.55523   0.15187   0.82737   0.00000  Uiso   1.00
C330   C     0.48516   0.20355   0.83600   0.00000  Uiso   1.00
C331   C     0.37390   0.31589   0.83441   0.00000  Uiso   1.00
C332   C     0.63359   0.86774   0.84980   0.00000  Uiso   1.00
C333   C     0.64617   0.79539   0.81099   0.00000  Uiso   1.00
C334   C     0.61768   0.68404   0.81213   0.00000  Uiso   1.00
C335   C     0.58314   0.49569   0.79672   0.00000  Uiso   1.00
C336   C     0.58675   0.92363   0.92694   0.00000  Uiso   1.00
C337   C     0.67171   0.96416   0.94654   0.00000  Uiso   1.00
C338   C     0.70860   0.96553   0.99665   0.00000  Uiso   1.00
C339   C     0.78661   0.00580   0.00684   0.00000  Uiso   1.00
C340   C     0.54455   0.02388   0.89726   0.00000  Uiso   1.00
C341   C     0.47450   0.07543   0.90594   0.00000  Uiso   1.00
C342   C     0.44546   0.16596   0.87464   0.00000  Uiso   1.00
C343   C     0.59396   0.83021   0.88837   0.00000  Uiso   1.00
C344   C     0.56545   0.71896   0.88956   0.00000  Uiso   1.00
C345   C     0.57798   0.64645   0.85077   0.00000  Uiso   1.00
H346   H     0.69055   0.02194   0.82590   0.00000  Uiso   1.00
H347   H     0.81996   0.07100   0.88822   0.00000  Uiso   1.00
H348   H     0.58590   0.18088   0.79752   0.00000  Uiso   1.00
H349   H     0.67683   0.82446   0.78115   0.00000  Uiso   1.00
H350   H     0.94595   0.10889   0.97433   0.00000  Uiso   1.00
H351   H     0.45241   0.34055   0.78307   0.00000  Uiso   1.00
H352   H     0.64415   0.58897   0.74854   0.00000  Uiso   1.00
H353   H     0.55589   0.89442   0.95697   0.00000  Uiso   1.00
H354   H     0.67792   0.93648   0.02649   0.00000  Uiso   1.00
H355   H     0.44385   0.04637   0.93579   0.00000  Uiso   1.00
H356   H     0.53479   0.68995   0.91941   0.00000  Uiso   1.00
H357   H     0.83066   0.99972   0.08656   0.00000  Uiso   1.00
H358   H     0.33711   0.23138   0.89529   0.00000  Uiso   1.00
H359   H     0.52886   0.47979   0.86077   0.00000  Uiso   1.00
O360   O     0.97100   0.08431   0.07382   0.00000  Uiso   1.00
O361   O     0.32348   0.38823   0.82288   0.00000  Uiso   1.00
O362   O     0.57505   0.40217   0.77758   0.00000  Uiso   1.00
N363   N     0.90208   0.07740   0.99120   0.00000  Uiso   1.00
N364   N     0.44065   0.29400   0.81239   0.00000  Uiso   1.00
N365   N     0.61990   0.59134   0.78010   0.00000  Uiso   1.00
N366   N     0.84004   0.01866   0.05159   0.00000  Uiso   1.00
N367   N     0.37861   0.23526   0.87278   0.00000  Uiso   1.00
N368   N     0.55786   0.53260   0.84049   0.00000  Uiso   1.00
