data_job_04130
_audit_creation_date              2018-12-19
_audit_creation_method            'Materials Studio'
_symmetry_space_group_name_H-M    'P1'
_symmetry_Int_Tables_number       1
_symmetry_cell_setting            triclinic
loop_
_symmetry_equiv_pos_as_xyz
  x,y,z
_cell_length_a                    15.3547
_cell_length_b                    32.7827
_cell_length_c                    12.4171
_cell_angle_alpha                 90.0000
_cell_angle_beta                  80.6559
_cell_angle_gamma                 90.0000
loop_
_atom_site_label
_atom_site_type_symbol
_atom_site_fract_x
_atom_site_fract_y
_atom_site_fract_z
_atom_site_U_iso_or_equiv
_atom_site_adp_type
_atom_site_occupancy
C1     C     0.20249   0.18795   0.24934   0.00000  Uiso   1.00
C2     C     0.28067   0.19552   0.30836   0.00000  Uiso   1.00
C3     C     0.29642   0.23104   0.36286   0.00000  Uiso   1.00
C4     C     0.37162   0.23195   0.41162   0.00000  Uiso   1.00
C5     C     0.48431   0.24879   0.50407   0.00000  Uiso   1.00
C6     C     0.24182   0.17663   0.13242   0.00000  Uiso   1.00
C7     C     0.22490   0.19627   0.03898   0.00000  Uiso   1.00
C8     C     0.26738   0.18127   0.93963   0.00000  Uiso   1.00
C9     C     0.31971   0.16878   0.75893   0.00000  Uiso   1.00
C10    C     0.15730   0.14951   0.30016   0.00000  Uiso   1.00
C11    C     0.06930   0.14635   0.34774   0.00000  Uiso   1.00
C12    C     0.04062   0.10852   0.38960   0.00000  Uiso   1.00
C13    C     0.96173   0.05392   0.46935   0.00000  Uiso   1.00
C14    C     0.30801   0.12638   0.23904   0.00000  Uiso   1.00
C15    C     0.33798   0.16208   0.30276   0.00000  Uiso   1.00
C16    C     0.41317   0.16293   0.35146   0.00000  Uiso   1.00
C17    C     0.42904   0.19845   0.40602   0.00000  Uiso   1.00
C18    C     0.29913   0.14319   0.12682   0.00000  Uiso   1.00
C19    C     0.34164   0.12816   0.02759   0.00000  Uiso   1.00
C20    C     0.32480   0.14777   0.93403   0.00000  Uiso   1.00
C21    C     0.21461   0.11607   0.29457   0.00000  Uiso   1.00
C22    C     0.18606   0.07824   0.33635   0.00000  Uiso   1.00
C23    C     0.09804   0.07502   0.38400   0.00000  Uiso   1.00
H24    H     0.15787   0.21398   0.25369   0.00000  Uiso   1.00
H25    H     0.25205   0.25692   0.36716   0.00000  Uiso   1.00
H26    H     0.18053   0.22215   0.04334   0.00000  Uiso   1.00
H27    H     0.02497   0.17223   0.35206   0.00000  Uiso   1.00
H28    H     0.38177   0.28977   0.49046   0.00000  Uiso   1.00
H29    H     0.23094   0.21645   0.80767   0.00000  Uiso   1.00
H30    H     0.90291   0.11120   0.45866   0.00000  Uiso   1.00
H31    H     0.35263   0.10035   0.23468   0.00000  Uiso   1.00
H32    H     0.45751   0.13705   0.34712   0.00000  Uiso   1.00
H33    H     0.38599   0.10228   0.02329   0.00000  Uiso   1.00
H34    H     0.23043   0.05237   0.33201   0.00000  Uiso   1.00
H35    H     0.54854   0.19249   0.47419   0.00000  Uiso   1.00
H36    H     0.39770   0.11916   0.79139   0.00000  Uiso   1.00
H37    H     0.06967   0.01392   0.44239   0.00000  Uiso   1.00
O38    O     0.53065   0.26733   0.55660   0.00000  Uiso   1.00
O39    O     0.33275   0.17113   0.66080   0.00000  Uiso   1.00
O40    O     0.90238   0.03305   0.51489   0.00000  Uiso   1.00
N41    N     0.40662   0.26184   0.47122   0.00000  Uiso   1.00
N42    N     0.26561   0.19329   0.83285   0.00000  Uiso   1.00
N43    N     0.95892   0.09489   0.44145   0.00000  Uiso   1.00
N44    N     0.49635   0.20949   0.46247   0.00000  Uiso   1.00
N45    N     0.35534   0.14094   0.82409   0.00000  Uiso   1.00
N46    N     0.04865   0.04254   0.43269   0.00000  Uiso   1.00
C47    C     0.70249   0.68795   0.24934   0.00000  Uiso   1.00
C48    C     0.78067   0.69552   0.30836   0.00000  Uiso   1.00
C49    C     0.79642   0.73104   0.36286   0.00000  Uiso   1.00
C50    C     0.87162   0.73195   0.41162   0.00000  Uiso   1.00
C51    C     0.98431   0.74879   0.50407   0.00000  Uiso   1.00
C52    C     0.74182   0.67663   0.13242   0.00000  Uiso   1.00
C53    C     0.72490   0.69627   0.03898   0.00000  Uiso   1.00
C54    C     0.76738   0.68127   0.93963   0.00000  Uiso   1.00
C55    C     0.81971   0.66878   0.75893   0.00000  Uiso   1.00
C56    C     0.65730   0.64951   0.30016   0.00000  Uiso   1.00
C57    C     0.56930   0.64635   0.34774   0.00000  Uiso   1.00
C58    C     0.54062   0.60852   0.38960   0.00000  Uiso   1.00
C59    C     0.46173   0.55392   0.46935   0.00000  Uiso   1.00
C60    C     0.80801   0.62638   0.23904   0.00000  Uiso   1.00
C61    C     0.83798   0.66208   0.30276   0.00000  Uiso   1.00
C62    C     0.91317   0.66293   0.35146   0.00000  Uiso   1.00
C63    C     0.92904   0.69845   0.40602   0.00000  Uiso   1.00
C64    C     0.79913   0.64319   0.12682   0.00000  Uiso   1.00
C65    C     0.84164   0.62816   0.02759   0.00000  Uiso   1.00
C66    C     0.82480   0.64777   0.93403   0.00000  Uiso   1.00
C67    C     0.71461   0.61607   0.29457   0.00000  Uiso   1.00
C68    C     0.68606   0.57824   0.33635   0.00000  Uiso   1.00
C69    C     0.59804   0.57502   0.38400   0.00000  Uiso   1.00
H70    H     0.65787   0.71398   0.25369   0.00000  Uiso   1.00
H71    H     0.75205   0.75692   0.36716   0.00000  Uiso   1.00
H72    H     0.68053   0.72215   0.04334   0.00000  Uiso   1.00
H73    H     0.52497   0.67223   0.35206   0.00000  Uiso   1.00
H74    H     0.88177   0.78977   0.49046   0.00000  Uiso   1.00
H75    H     0.73094   0.71645   0.80767   0.00000  Uiso   1.00
H76    H     0.40291   0.61120   0.45866   0.00000  Uiso   1.00
H77    H     0.85263   0.60035   0.23468   0.00000  Uiso   1.00
H78    H     0.95751   0.63705   0.34712   0.00000  Uiso   1.00
H79    H     0.88599   0.60228   0.02329   0.00000  Uiso   1.00
H80    H     0.73043   0.55237   0.33201   0.00000  Uiso   1.00
H81    H     0.04854   0.69249   0.47419   0.00000  Uiso   1.00
H82    H     0.89770   0.61916   0.79139   0.00000  Uiso   1.00
H83    H     0.56967   0.51392   0.44239   0.00000  Uiso   1.00
O84    O     0.03065   0.76733   0.55660   0.00000  Uiso   1.00
O85    O     0.83275   0.67113   0.66080   0.00000  Uiso   1.00
O86    O     0.40238   0.53305   0.51489   0.00000  Uiso   1.00
N87    N     0.90662   0.76184   0.47122   0.00000  Uiso   1.00
N88    N     0.76561   0.69329   0.83285   0.00000  Uiso   1.00
N89    N     0.45892   0.59489   0.44145   0.00000  Uiso   1.00
N90    N     0.99635   0.70949   0.46247   0.00000  Uiso   1.00
N91    N     0.85534   0.64094   0.82409   0.00000  Uiso   1.00
N92    N     0.54865   0.54254   0.43269   0.00000  Uiso   1.00
C93    C     0.79751   0.18795   0.25066   0.00000  Uiso   1.00
C94    C     0.71933   0.19552   0.19164   0.00000  Uiso   1.00
C95    C     0.70358   0.23104   0.13714   0.00000  Uiso   1.00
C96    C     0.62838   0.23195   0.08838   0.00000  Uiso   1.00
C97    C     0.51569   0.24879   0.99593   0.00000  Uiso   1.00
C98    C     0.75818   0.17663   0.36758   0.00000  Uiso   1.00
C99    C     0.77510   0.19627   0.46102   0.00000  Uiso   1.00
C100   C     0.73262   0.18127   0.56037   0.00000  Uiso   1.00
C101   C     0.68029   0.16878   0.74107   0.00000  Uiso   1.00
C102   C     0.84270   0.14951   0.19984   0.00000  Uiso   1.00
C103   C     0.93070   0.14635   0.15226   0.00000  Uiso   1.00
C104   C     0.95938   0.10852   0.11040   0.00000  Uiso   1.00
C105   C     0.03827   0.05392   0.03065   0.00000  Uiso   1.00
C106   C     0.69199   0.12638   0.26096   0.00000  Uiso   1.00
C107   C     0.66202   0.16208   0.19724   0.00000  Uiso   1.00
C108   C     0.58683   0.16293   0.14854   0.00000  Uiso   1.00
C109   C     0.57096   0.19845   0.09398   0.00000  Uiso   1.00
C110   C     0.70087   0.14319   0.37318   0.00000  Uiso   1.00
C111   C     0.65836   0.12816   0.47241   0.00000  Uiso   1.00
C112   C     0.67520   0.14777   0.56597   0.00000  Uiso   1.00
C113   C     0.78539   0.11607   0.20543   0.00000  Uiso   1.00
C114   C     0.81394   0.07824   0.16365   0.00000  Uiso   1.00
C115   C     0.90196   0.07502   0.11600   0.00000  Uiso   1.00
H116   H     0.84213   0.21398   0.24631   0.00000  Uiso   1.00
H117   H     0.74795   0.25692   0.13284   0.00000  Uiso   1.00
H118   H     0.81947   0.22215   0.45666   0.00000  Uiso   1.00
H119   H     0.97503   0.17223   0.14794   0.00000  Uiso   1.00
H120   H     0.61823   0.28977   0.00954   0.00000  Uiso   1.00
H121   H     0.76906   0.21645   0.69233   0.00000  Uiso   1.00
H122   H     0.09709   0.11120   0.04134   0.00000  Uiso   1.00
H123   H     0.64737   0.10035   0.26532   0.00000  Uiso   1.00
H124   H     0.54249   0.13705   0.15288   0.00000  Uiso   1.00
H125   H     0.61401   0.10228   0.47671   0.00000  Uiso   1.00
H126   H     0.76957   0.05237   0.16799   0.00000  Uiso   1.00
H127   H     0.45146   0.19249   0.02581   0.00000  Uiso   1.00
H128   H     0.60230   0.11916   0.70861   0.00000  Uiso   1.00
H129   H     0.93033   0.01392   0.05761   0.00000  Uiso   1.00
O130   O     0.46935   0.26733   0.94340   0.00000  Uiso   1.00
O131   O     0.66725   0.17113   0.83920   0.00000  Uiso   1.00
O132   O     0.09762   0.03305   0.98511   0.00000  Uiso   1.00
N133   N     0.59338   0.26184   0.02878   0.00000  Uiso   1.00
N134   N     0.73439   0.19329   0.66715   0.00000  Uiso   1.00
N135   N     0.04108   0.09489   0.05855   0.00000  Uiso   1.00
N136   N     0.50365   0.20949   0.03753   0.00000  Uiso   1.00
N137   N     0.64466   0.14094   0.67591   0.00000  Uiso   1.00
N138   N     0.95135   0.04254   0.06731   0.00000  Uiso   1.00
C139   C     0.29751   0.68795   0.25066   0.00000  Uiso   1.00
C140   C     0.21933   0.69552   0.19164   0.00000  Uiso   1.00
C141   C     0.20358   0.73104   0.13714   0.00000  Uiso   1.00
C142   C     0.12838   0.73195   0.08838   0.00000  Uiso   1.00
C143   C     0.01569   0.74879   0.99593   0.00000  Uiso   1.00
C144   C     0.25818   0.67663   0.36758   0.00000  Uiso   1.00
C145   C     0.27510   0.69627   0.46102   0.00000  Uiso   1.00
C146   C     0.23262   0.68127   0.56037   0.00000  Uiso   1.00
C147   C     0.18029   0.66878   0.74107   0.00000  Uiso   1.00
C148   C     0.34270   0.64951   0.19984   0.00000  Uiso   1.00
C149   C     0.43070   0.64635   0.15226   0.00000  Uiso   1.00
C150   C     0.45938   0.60852   0.11040   0.00000  Uiso   1.00
C151   C     0.53827   0.55392   0.03065   0.00000  Uiso   1.00
C152   C     0.19199   0.62638   0.26096   0.00000  Uiso   1.00
C153   C     0.16202   0.66208   0.19724   0.00000  Uiso   1.00
C154   C     0.08683   0.66293   0.14854   0.00000  Uiso   1.00
C155   C     0.07096   0.69845   0.09398   0.00000  Uiso   1.00
C156   C     0.20087   0.64319   0.37318   0.00000  Uiso   1.00
C157   C     0.15836   0.62816   0.47241   0.00000  Uiso   1.00
C158   C     0.17520   0.64777   0.56597   0.00000  Uiso   1.00
C159   C     0.28539   0.61607   0.20543   0.00000  Uiso   1.00
C160   C     0.31394   0.57824   0.16365   0.00000  Uiso   1.00
C161   C     0.40196   0.57502   0.11600   0.00000  Uiso   1.00
H162   H     0.34213   0.71398   0.24631   0.00000  Uiso   1.00
H163   H     0.24795   0.75692   0.13284   0.00000  Uiso   1.00
H164   H     0.31947   0.72215   0.45666   0.00000  Uiso   1.00
H165   H     0.47503   0.67223   0.14794   0.00000  Uiso   1.00
H166   H     0.11823   0.78977   0.00954   0.00000  Uiso   1.00
H167   H     0.26906   0.71645   0.69233   0.00000  Uiso   1.00
H168   H     0.59709   0.61120   0.04134   0.00000  Uiso   1.00
H169   H     0.14737   0.60035   0.26532   0.00000  Uiso   1.00
H170   H     0.04249   0.63705   0.15288   0.00000  Uiso   1.00
H171   H     0.11401   0.60228   0.47671   0.00000  Uiso   1.00
H172   H     0.26957   0.55237   0.16799   0.00000  Uiso   1.00
H173   H     0.95146   0.69249   0.02581   0.00000  Uiso   1.00
H174   H     0.10230   0.61916   0.70861   0.00000  Uiso   1.00
H175   H     0.43033   0.51392   0.05761   0.00000  Uiso   1.00
O176   O     0.96935   0.76733   0.94340   0.00000  Uiso   1.00
O177   O     0.16725   0.67113   0.83920   0.00000  Uiso   1.00
O178   O     0.59762   0.53305   0.98511   0.00000  Uiso   1.00
N179   N     0.09338   0.76184   0.02878   0.00000  Uiso   1.00
N180   N     0.23439   0.69329   0.66715   0.00000  Uiso   1.00
N181   N     0.54108   0.59489   0.05855   0.00000  Uiso   1.00
N182   N     0.00365   0.70949   0.03753   0.00000  Uiso   1.00
N183   N     0.14466   0.64094   0.67591   0.00000  Uiso   1.00
N184   N     0.45135   0.54254   0.06731   0.00000  Uiso   1.00
C185   C     0.79751   0.81205   0.75066   0.00000  Uiso   1.00
C186   C     0.71933   0.80448   0.69164   0.00000  Uiso   1.00
C187   C     0.70358   0.76896   0.63714   0.00000  Uiso   1.00
C188   C     0.62838   0.76805   0.58838   0.00000  Uiso   1.00
C189   C     0.51569   0.75121   0.49593   0.00000  Uiso   1.00
C190   C     0.75818   0.82337   0.86758   0.00000  Uiso   1.00
C191   C     0.77510   0.80373   0.96102   0.00000  Uiso   1.00
C192   C     0.73262   0.81873   0.06037   0.00000  Uiso   1.00
C193   C     0.68029   0.83122   0.24107   0.00000  Uiso   1.00
C194   C     0.84270   0.85049   0.69984   0.00000  Uiso   1.00
C195   C     0.93070   0.85365   0.65226   0.00000  Uiso   1.00
C196   C     0.95938   0.89148   0.61040   0.00000  Uiso   1.00
C197   C     0.03827   0.94608   0.53065   0.00000  Uiso   1.00
C198   C     0.69199   0.87362   0.76096   0.00000  Uiso   1.00
C199   C     0.66202   0.83792   0.69724   0.00000  Uiso   1.00
C200   C     0.58683   0.83707   0.64854   0.00000  Uiso   1.00
C201   C     0.57096   0.80155   0.59398   0.00000  Uiso   1.00
C202   C     0.70087   0.85681   0.87318   0.00000  Uiso   1.00
C203   C     0.65836   0.87184   0.97241   0.00000  Uiso   1.00
C204   C     0.67520   0.85223   0.06597   0.00000  Uiso   1.00
C205   C     0.78539   0.88393   0.70543   0.00000  Uiso   1.00
C206   C     0.81394   0.92176   0.66365   0.00000  Uiso   1.00
C207   C     0.90196   0.92498   0.61600   0.00000  Uiso   1.00
H208   H     0.84213   0.78602   0.74631   0.00000  Uiso   1.00
H209   H     0.74795   0.74308   0.63284   0.00000  Uiso   1.00
H210   H     0.81947   0.77785   0.95666   0.00000  Uiso   1.00
H211   H     0.97503   0.82777   0.64794   0.00000  Uiso   1.00
H212   H     0.61823   0.71023   0.50954   0.00000  Uiso   1.00
H213   H     0.76906   0.78355   0.19233   0.00000  Uiso   1.00
H214   H     0.09709   0.88880   0.54134   0.00000  Uiso   1.00
H215   H     0.64737   0.89965   0.76532   0.00000  Uiso   1.00
H216   H     0.54249   0.86295   0.65288   0.00000  Uiso   1.00
H217   H     0.61401   0.89772   0.97671   0.00000  Uiso   1.00
H218   H     0.76957   0.94763   0.66799   0.00000  Uiso   1.00
H219   H     0.45146   0.80751   0.52581   0.00000  Uiso   1.00
H220   H     0.60230   0.88084   0.20861   0.00000  Uiso   1.00
H221   H     0.93033   0.98608   0.55761   0.00000  Uiso   1.00
O222   O     0.46935   0.73267   0.44340   0.00000  Uiso   1.00
O223   O     0.66725   0.82887   0.33920   0.00000  Uiso   1.00
O224   O     0.09762   0.96695   0.48511   0.00000  Uiso   1.00
N225   N     0.59338   0.73816   0.52878   0.00000  Uiso   1.00
N226   N     0.73439   0.80671   0.16715   0.00000  Uiso   1.00
N227   N     0.04108   0.90511   0.55855   0.00000  Uiso   1.00
N228   N     0.50365   0.79051   0.53753   0.00000  Uiso   1.00
N229   N     0.64466   0.85906   0.17591   0.00000  Uiso   1.00
N230   N     0.95135   0.95746   0.56731   0.00000  Uiso   1.00
C231   C     0.29751   0.31205   0.75066   0.00000  Uiso   1.00
C232   C     0.21933   0.30448   0.69164   0.00000  Uiso   1.00
C233   C     0.20358   0.26896   0.63714   0.00000  Uiso   1.00
C234   C     0.12838   0.26805   0.58838   0.00000  Uiso   1.00
C235   C     0.01569   0.25121   0.49593   0.00000  Uiso   1.00
C236   C     0.25818   0.32337   0.86758   0.00000  Uiso   1.00
C237   C     0.27510   0.30373   0.96102   0.00000  Uiso   1.00
C238   C     0.23262   0.31873   0.06037   0.00000  Uiso   1.00
C239   C     0.18029   0.33122   0.24107   0.00000  Uiso   1.00
C240   C     0.34270   0.35049   0.69984   0.00000  Uiso   1.00
C241   C     0.43070   0.35365   0.65226   0.00000  Uiso   1.00
C242   C     0.45938   0.39148   0.61040   0.00000  Uiso   1.00
C243   C     0.53827   0.44608   0.53065   0.00000  Uiso   1.00
C244   C     0.19199   0.37362   0.76096   0.00000  Uiso   1.00
C245   C     0.16202   0.33792   0.69724   0.00000  Uiso   1.00
C246   C     0.08683   0.33707   0.64854   0.00000  Uiso   1.00
C247   C     0.07096   0.30155   0.59398   0.00000  Uiso   1.00
C248   C     0.20087   0.35681   0.87318   0.00000  Uiso   1.00
C249   C     0.15836   0.37184   0.97241   0.00000  Uiso   1.00
C250   C     0.17520   0.35223   0.06597   0.00000  Uiso   1.00
C251   C     0.28539   0.38393   0.70543   0.00000  Uiso   1.00
C252   C     0.31394   0.42176   0.66365   0.00000  Uiso   1.00
C253   C     0.40196   0.42498   0.61600   0.00000  Uiso   1.00
H254   H     0.34213   0.28602   0.74631   0.00000  Uiso   1.00
H255   H     0.24795   0.24308   0.63284   0.00000  Uiso   1.00
H256   H     0.31947   0.27785   0.95666   0.00000  Uiso   1.00
H257   H     0.47503   0.32777   0.64794   0.00000  Uiso   1.00
H258   H     0.11823   0.21023   0.50954   0.00000  Uiso   1.00
H259   H     0.26906   0.28355   0.19233   0.00000  Uiso   1.00
H260   H     0.59709   0.38880   0.54134   0.00000  Uiso   1.00
H261   H     0.14737   0.39965   0.76532   0.00000  Uiso   1.00
H262   H     0.04249   0.36295   0.65288   0.00000  Uiso   1.00
H263   H     0.11401   0.39772   0.97671   0.00000  Uiso   1.00
H264   H     0.26957   0.44763   0.66799   0.00000  Uiso   1.00
H265   H     0.95146   0.30751   0.52581   0.00000  Uiso   1.00
H266   H     0.10230   0.38084   0.20861   0.00000  Uiso   1.00
H267   H     0.43033   0.48608   0.55761   0.00000  Uiso   1.00
O268   O     0.96935   0.23267   0.44340   0.00000  Uiso   1.00
O269   O     0.16725   0.32887   0.33920   0.00000  Uiso   1.00
O270   O     0.59762   0.46695   0.48511   0.00000  Uiso   1.00
N271   N     0.09338   0.23816   0.52878   0.00000  Uiso   1.00
N272   N     0.23439   0.30671   0.16715   0.00000  Uiso   1.00
N273   N     0.54108   0.40511   0.55855   0.00000  Uiso   1.00
N274   N     0.00365   0.29051   0.53753   0.00000  Uiso   1.00
N275   N     0.14466   0.35906   0.17591   0.00000  Uiso   1.00
N276   N     0.45135   0.45746   0.56731   0.00000  Uiso   1.00
C277   C     0.20249   0.81205   0.74934   0.00000  Uiso   1.00
C278   C     0.28067   0.80448   0.80836   0.00000  Uiso   1.00
C279   C     0.29642   0.76896   0.86286   0.00000  Uiso   1.00
C280   C     0.37162   0.76805   0.91162   0.00000  Uiso   1.00
C281   C     0.48431   0.75121   0.00407   0.00000  Uiso   1.00
C282   C     0.24182   0.82337   0.63242   0.00000  Uiso   1.00
C283   C     0.22490   0.80373   0.53898   0.00000  Uiso   1.00
C284   C     0.26738   0.81873   0.43963   0.00000  Uiso   1.00
C285   C     0.31971   0.83122   0.25893   0.00000  Uiso   1.00
C286   C     0.15730   0.85049   0.80016   0.00000  Uiso   1.00
C287   C     0.06930   0.85365   0.84774   0.00000  Uiso   1.00
C288   C     0.04062   0.89148   0.88960   0.00000  Uiso   1.00
C289   C     0.96173   0.94608   0.96935   0.00000  Uiso   1.00
C290   C     0.30801   0.87362   0.73904   0.00000  Uiso   1.00
C291   C     0.33798   0.83792   0.80276   0.00000  Uiso   1.00
C292   C     0.41317   0.83707   0.85146   0.00000  Uiso   1.00
C293   C     0.42904   0.80155   0.90602   0.00000  Uiso   1.00
C294   C     0.29913   0.85681   0.62682   0.00000  Uiso   1.00
C295   C     0.34164   0.87184   0.52759   0.00000  Uiso   1.00
C296   C     0.32480   0.85223   0.43403   0.00000  Uiso   1.00
C297   C     0.21461   0.88393   0.79457   0.00000  Uiso   1.00
C298   C     0.18606   0.92176   0.83635   0.00000  Uiso   1.00
C299   C     0.09804   0.92498   0.88400   0.00000  Uiso   1.00
H300   H     0.15787   0.78602   0.75369   0.00000  Uiso   1.00
H301   H     0.25205   0.74308   0.86716   0.00000  Uiso   1.00
H302   H     0.18053   0.77785   0.54334   0.00000  Uiso   1.00
H303   H     0.02497   0.82777   0.85206   0.00000  Uiso   1.00
H304   H     0.38177   0.71023   0.99046   0.00000  Uiso   1.00
H305   H     0.23094   0.78355   0.30767   0.00000  Uiso   1.00
H306   H     0.90291   0.88880   0.95866   0.00000  Uiso   1.00
H307   H     0.35263   0.89965   0.73468   0.00000  Uiso   1.00
H308   H     0.45751   0.86295   0.84712   0.00000  Uiso   1.00
H309   H     0.38599   0.89772   0.52329   0.00000  Uiso   1.00
H310   H     0.23043   0.94763   0.83201   0.00000  Uiso   1.00
H311   H     0.54854   0.80751   0.97419   0.00000  Uiso   1.00
H312   H     0.39770   0.88084   0.29139   0.00000  Uiso   1.00
H313   H     0.06967   0.98608   0.94239   0.00000  Uiso   1.00
O314   O     0.53065   0.73267   0.05660   0.00000  Uiso   1.00
O315   O     0.33275   0.82887   0.16080   0.00000  Uiso   1.00
O316   O     0.90238   0.96695   0.01489   0.00000  Uiso   1.00
N317   N     0.40662   0.73816   0.97122   0.00000  Uiso   1.00
N318   N     0.26561   0.80671   0.33285   0.00000  Uiso   1.00
N319   N     0.95892   0.90511   0.94145   0.00000  Uiso   1.00
N320   N     0.49635   0.79051   0.96247   0.00000  Uiso   1.00
N321   N     0.35534   0.85906   0.32409   0.00000  Uiso   1.00
N322   N     0.04865   0.95746   0.93269   0.00000  Uiso   1.00
C323   C     0.70249   0.31205   0.74934   0.00000  Uiso   1.00
C324   C     0.78067   0.30448   0.80836   0.00000  Uiso   1.00
C325   C     0.79642   0.26896   0.86286   0.00000  Uiso   1.00
C326   C     0.87162   0.26805   0.91162   0.00000  Uiso   1.00
C327   C     0.98431   0.25121   0.00407   0.00000  Uiso   1.00
C328   C     0.74182   0.32337   0.63242   0.00000  Uiso   1.00
C329   C     0.72490   0.30373   0.53898   0.00000  Uiso   1.00
C330   C     0.76738   0.31873   0.43963   0.00000  Uiso   1.00
C331   C     0.81971   0.33122   0.25893   0.00000  Uiso   1.00
C332   C     0.65730   0.35049   0.80016   0.00000  Uiso   1.00
C333   C     0.56930   0.35365   0.84774   0.00000  Uiso   1.00
C334   C     0.54062   0.39148   0.88960   0.00000  Uiso   1.00
C335   C     0.46173   0.44608   0.96935   0.00000  Uiso   1.00
C336   C     0.80801   0.37362   0.73904   0.00000  Uiso   1.00
C337   C     0.83798   0.33792   0.80276   0.00000  Uiso   1.00
C338   C     0.91317   0.33707   0.85146   0.00000  Uiso   1.00
C339   C     0.92904   0.30155   0.90602   0.00000  Uiso   1.00
C340   C     0.79913   0.35681   0.62682   0.00000  Uiso   1.00
C341   C     0.84164   0.37184   0.52759   0.00000  Uiso   1.00
C342   C     0.82480   0.35223   0.43403   0.00000  Uiso   1.00
C343   C     0.71461   0.38393   0.79457   0.00000  Uiso   1.00
C344   C     0.68606   0.42176   0.83635   0.00000  Uiso   1.00
C345   C     0.59804   0.42498   0.88400   0.00000  Uiso   1.00
H346   H     0.65787   0.28602   0.75369   0.00000  Uiso   1.00
H347   H     0.75205   0.24308   0.86716   0.00000  Uiso   1.00
H348   H     0.68053   0.27785   0.54334   0.00000  Uiso   1.00
H349   H     0.52497   0.32777   0.85206   0.00000  Uiso   1.00
H350   H     0.88177   0.21023   0.99046   0.00000  Uiso   1.00
H351   H     0.73094   0.28355   0.30767   0.00000  Uiso   1.00
H352   H     0.40291   0.38880   0.95866   0.00000  Uiso   1.00
H353   H     0.85263   0.39965   0.73468   0.00000  Uiso   1.00
H354   H     0.95751   0.36295   0.84712   0.00000  Uiso   1.00
H355   H     0.88599   0.39772   0.52329   0.00000  Uiso   1.00
H356   H     0.73043   0.44763   0.83201   0.00000  Uiso   1.00
H357   H     0.04854   0.30751   0.97419   0.00000  Uiso   1.00
H358   H     0.89770   0.38084   0.29139   0.00000  Uiso   1.00
H359   H     0.56967   0.48608   0.94239   0.00000  Uiso   1.00
O360   O     0.03065   0.23267   0.05660   0.00000  Uiso   1.00
O361   O     0.83275   0.32887   0.16080   0.00000  Uiso   1.00
O362   O     0.40238   0.46695   0.01489   0.00000  Uiso   1.00
N363   N     0.90662   0.23816   0.97122   0.00000  Uiso   1.00
N364   N     0.76561   0.30671   0.33285   0.00000  Uiso   1.00
N365   N     0.45892   0.40511   0.94145   0.00000  Uiso   1.00
N366   N     0.99635   0.29051   0.96247   0.00000  Uiso   1.00
N367   N     0.85534   0.35906   0.32409   0.00000  Uiso   1.00
N368   N     0.54865   0.45746   0.93269   0.00000  Uiso   1.00
