data_job_02464
_audit_creation_date              2018-12-19
_audit_creation_method            'Materials Studio'
_symmetry_space_group_name_H-M    'P1'
_symmetry_Int_Tables_number       1
_symmetry_cell_setting            triclinic
loop_
_symmetry_equiv_pos_as_xyz
  x,y,z
_cell_length_a                    19.1809
_cell_length_b                    19.1809
_cell_length_c                    14.5474
_cell_angle_alpha                 90.0000
_cell_angle_beta                  90.0000
_cell_angle_gamma                 90.0000
loop_
_atom_site_label
_atom_site_type_symbol
_atom_site_fract_x
_atom_site_fract_y
_atom_site_fract_z
_atom_site_U_iso_or_equiv
_atom_site_adp_type
_atom_site_occupancy
C1     C     0.71072   0.61987   0.92135   0.00000  Uiso   1.00
C2     C     0.67043   0.56844   0.86162   0.00000  Uiso   1.00
C3     C     0.62886   0.51439   0.89350   0.00000  Uiso   1.00
C4     C     0.59639   0.47311   0.82782   0.00000  Uiso   1.00
C5     C     0.53251   0.39134   0.74939   0.00000  Uiso   1.00
C6     C     0.78666   0.61452   0.89112   0.00000  Uiso   1.00
C7     C     0.84281   0.59922   0.94782   0.00000  Uiso   1.00
C8     C     0.90818   0.59674   0.90697   0.00000  Uiso   1.00
C9     C     0.02476   0.58657   0.87436   0.00000  Uiso   1.00
C10    C     0.68623   0.69227   0.89252   0.00000  Uiso   1.00
C11    C     0.65796   0.74236   0.95039   0.00000  Uiso   1.00
C12    C     0.63880   0.80535   0.91073   0.00000  Uiso   1.00
C13    C     0.59944   0.91591   0.88029   0.00000  Uiso   1.00
C14    C     0.72699   0.64267   0.74801   0.00000  Uiso   1.00
C15    C     0.67927   0.58083   0.76746   0.00000  Uiso   1.00
C16    C     0.64686   0.53962   0.70172   0.00000  Uiso   1.00
C17    C     0.60524   0.48552   0.73350   0.00000  Uiso   1.00
C18    C     0.79550   0.62690   0.79697   0.00000  Uiso   1.00
C19    C     0.86081   0.62445   0.75603   0.00000  Uiso   1.00
C20    C     0.91704   0.60915   0.81265   0.00000  Uiso   1.00
C21    C     0.69507   0.70466   0.79836   0.00000  Uiso   1.00
C22    C     0.67596   0.76759   0.75861   0.00000  Uiso   1.00
C23    C     0.64765   0.81776   0.81641   0.00000  Uiso   1.00
H24    H     0.70385   0.61022   0.99465   0.00000  Uiso   1.00
H25    H     0.62203   0.50481   0.96637   0.00000  Uiso   1.00
H26    H     0.83595   0.58964   0.02068   0.00000  Uiso   1.00
H27    H     0.65113   0.73276   0.02325   0.00000  Uiso   1.00
H28    H     0.53525   0.39339   0.89350   0.00000  Uiso   1.00
H29    H     0.98631   0.57228   0.00801   0.00000  Uiso   1.00
H30    H     0.59657   0.87407   0.01344   0.00000  Uiso   1.00
H31    H     0.73388   0.65232   0.67470   0.00000  Uiso   1.00
H32    H     0.65371   0.54922   0.62886   0.00000  Uiso   1.00
H33    H     0.86763   0.63404   0.68317   0.00000  Uiso   1.00
H34    H     0.68280   0.77716   0.68574   0.00000  Uiso   1.00
H35    H     0.56096   0.42943   0.61956   0.00000  Uiso   1.00
H36    H     0.01202   0.60832   0.73408   0.00000  Uiso   1.00
H37    H     0.62228   0.91011   0.73950   0.00000  Uiso   1.00
O38    O     0.49485   0.34281   0.73215   0.00000  Uiso   1.00
O39    O     0.08661   0.57753   0.88239   0.00000  Uiso   1.00
O40    O     0.57529   0.97346   0.88951   0.00000  Uiso   1.00
N41    N     0.55229   0.41603   0.83531   0.00000  Uiso   1.00
N42    N     0.97400   0.58327   0.94238   0.00000  Uiso   1.00
N43    N     0.60965   0.86543   0.94746   0.00000  Uiso   1.00
N44    N     0.56612   0.43542   0.68791   0.00000  Uiso   1.00
N45    N     0.98784   0.60267   0.79497   0.00000  Uiso   1.00
N46    N     0.62348   0.88482   0.80006   0.00000  Uiso   1.00
C47    C     0.28928   0.38013   0.92135   0.00000  Uiso   1.00
C48    C     0.32957   0.43156   0.86162   0.00000  Uiso   1.00
C49    C     0.37114   0.48561   0.89350   0.00000  Uiso   1.00
C50    C     0.40361   0.52689   0.82782   0.00000  Uiso   1.00
C51    C     0.46749   0.60866   0.74939   0.00000  Uiso   1.00
C52    C     0.21334   0.38548   0.89112   0.00000  Uiso   1.00
C53    C     0.15719   0.40078   0.94782   0.00000  Uiso   1.00
C54    C     0.09182   0.40326   0.90697   0.00000  Uiso   1.00
C55    C     0.97524   0.41343   0.87436   0.00000  Uiso   1.00
C56    C     0.31377   0.30773   0.89252   0.00000  Uiso   1.00
C57    C     0.34204   0.25764   0.95039   0.00000  Uiso   1.00
C58    C     0.36120   0.19465   0.91073   0.00000  Uiso   1.00
C59    C     0.40056   0.08409   0.88029   0.00000  Uiso   1.00
C60    C     0.27301   0.35733   0.74801   0.00000  Uiso   1.00
C61    C     0.32073   0.41917   0.76746   0.00000  Uiso   1.00
C62    C     0.35314   0.46038   0.70172   0.00000  Uiso   1.00
C63    C     0.39476   0.51448   0.73350   0.00000  Uiso   1.00
C64    C     0.20450   0.37310   0.79697   0.00000  Uiso   1.00
C65    C     0.13919   0.37555   0.75603   0.00000  Uiso   1.00
C66    C     0.08296   0.39085   0.81265   0.00000  Uiso   1.00
C67    C     0.30493   0.29534   0.79836   0.00000  Uiso   1.00
C68    C     0.32404   0.23241   0.75861   0.00000  Uiso   1.00
C69    C     0.35235   0.18224   0.81641   0.00000  Uiso   1.00
H70    H     0.29615   0.38978   0.99465   0.00000  Uiso   1.00
H71    H     0.37797   0.49519   0.96637   0.00000  Uiso   1.00
H72    H     0.16405   0.41036   0.02068   0.00000  Uiso   1.00
H73    H     0.34887   0.26724   0.02325   0.00000  Uiso   1.00
H74    H     0.46475   0.60661   0.89350   0.00000  Uiso   1.00
H75    H     0.01369   0.42772   0.00801   0.00000  Uiso   1.00
H76    H     0.40343   0.12593   0.01344   0.00000  Uiso   1.00
H77    H     0.26612   0.34768   0.67470   0.00000  Uiso   1.00
H78    H     0.34629   0.45078   0.62886   0.00000  Uiso   1.00
H79    H     0.13237   0.36596   0.68317   0.00000  Uiso   1.00
H80    H     0.31720   0.22284   0.68574   0.00000  Uiso   1.00
H81    H     0.43904   0.57057   0.61956   0.00000  Uiso   1.00
H82    H     0.98798   0.39168   0.73408   0.00000  Uiso   1.00
H83    H     0.37772   0.08989   0.73950   0.00000  Uiso   1.00
O84    O     0.50515   0.65719   0.73215   0.00000  Uiso   1.00
O85    O     0.91339   0.42247   0.88239   0.00000  Uiso   1.00
O86    O     0.42471   0.02654   0.88951   0.00000  Uiso   1.00
N87    N     0.44771   0.58397   0.83531   0.00000  Uiso   1.00
N88    N     0.02600   0.41673   0.94238   0.00000  Uiso   1.00
N89    N     0.39035   0.13457   0.94746   0.00000  Uiso   1.00
N90    N     0.43388   0.56458   0.68791   0.00000  Uiso   1.00
N91    N     0.01216   0.39733   0.79497   0.00000  Uiso   1.00
N92    N     0.37652   0.11518   0.80006   0.00000  Uiso   1.00
C93    C     0.61987   0.28928   0.07865   0.00000  Uiso   1.00
C94    C     0.56844   0.32957   0.13838   0.00000  Uiso   1.00
C95    C     0.51439   0.37114   0.10650   0.00000  Uiso   1.00
C96    C     0.47311   0.40361   0.17218   0.00000  Uiso   1.00
C97    C     0.39134   0.46749   0.25061   0.00000  Uiso   1.00
C98    C     0.61452   0.21334   0.10888   0.00000  Uiso   1.00
C99    C     0.59922   0.15719   0.05218   0.00000  Uiso   1.00
C100   C     0.59674   0.09182   0.09303   0.00000  Uiso   1.00
C101   C     0.58657   0.97524   0.12564   0.00000  Uiso   1.00
C102   C     0.69227   0.31377   0.10748   0.00000  Uiso   1.00
C103   C     0.74236   0.34204   0.04961   0.00000  Uiso   1.00
C104   C     0.80535   0.36120   0.08927   0.00000  Uiso   1.00
C105   C     0.91591   0.40056   0.11971   0.00000  Uiso   1.00
C106   C     0.64267   0.27301   0.25199   0.00000  Uiso   1.00
C107   C     0.58083   0.32073   0.23254   0.00000  Uiso   1.00
C108   C     0.53962   0.35314   0.29828   0.00000  Uiso   1.00
C109   C     0.48552   0.39476   0.26650   0.00000  Uiso   1.00
C110   C     0.62690   0.20450   0.20303   0.00000  Uiso   1.00
C111   C     0.62445   0.13919   0.24397   0.00000  Uiso   1.00
C112   C     0.60915   0.08296   0.18735   0.00000  Uiso   1.00
C113   C     0.70466   0.30493   0.20164   0.00000  Uiso   1.00
C114   C     0.76759   0.32404   0.24139   0.00000  Uiso   1.00
C115   C     0.81776   0.35235   0.18359   0.00000  Uiso   1.00
H116   H     0.61022   0.29615   0.00535   0.00000  Uiso   1.00
H117   H     0.50481   0.37797   0.03363   0.00000  Uiso   1.00
H118   H     0.58964   0.16405   0.97932   0.00000  Uiso   1.00
H119   H     0.73276   0.34887   0.97675   0.00000  Uiso   1.00
H120   H     0.39339   0.46475   0.10650   0.00000  Uiso   1.00
H121   H     0.57228   0.01369   0.99199   0.00000  Uiso   1.00
H122   H     0.87407   0.40343   0.98656   0.00000  Uiso   1.00
H123   H     0.65232   0.26612   0.32530   0.00000  Uiso   1.00
H124   H     0.54922   0.34629   0.37114   0.00000  Uiso   1.00
H125   H     0.63404   0.13237   0.31683   0.00000  Uiso   1.00
H126   H     0.77716   0.31720   0.31426   0.00000  Uiso   1.00
H127   H     0.42943   0.43904   0.38044   0.00000  Uiso   1.00
H128   H     0.60832   0.98798   0.26592   0.00000  Uiso   1.00
H129   H     0.91011   0.37772   0.26050   0.00000  Uiso   1.00
O130   O     0.34281   0.50515   0.26785   0.00000  Uiso   1.00
O131   O     0.57753   0.91339   0.11761   0.00000  Uiso   1.00
O132   O     0.97346   0.42471   0.11049   0.00000  Uiso   1.00
N133   N     0.41603   0.44771   0.16469   0.00000  Uiso   1.00
N134   N     0.58327   0.02600   0.05762   0.00000  Uiso   1.00
N135   N     0.86543   0.39035   0.05254   0.00000  Uiso   1.00
N136   N     0.43542   0.43388   0.31209   0.00000  Uiso   1.00
N137   N     0.60267   0.01216   0.20503   0.00000  Uiso   1.00
N138   N     0.88482   0.37652   0.19994   0.00000  Uiso   1.00
C139   C     0.38013   0.71072   0.07865   0.00000  Uiso   1.00
C140   C     0.43156   0.67043   0.13838   0.00000  Uiso   1.00
C141   C     0.48561   0.62886   0.10650   0.00000  Uiso   1.00
C142   C     0.52689   0.59639   0.17218   0.00000  Uiso   1.00
C143   C     0.60866   0.53251   0.25061   0.00000  Uiso   1.00
C144   C     0.38548   0.78666   0.10888   0.00000  Uiso   1.00
C145   C     0.40078   0.84281   0.05218   0.00000  Uiso   1.00
C146   C     0.40326   0.90818   0.09303   0.00000  Uiso   1.00
C147   C     0.41343   0.02476   0.12564   0.00000  Uiso   1.00
C148   C     0.30773   0.68623   0.10748   0.00000  Uiso   1.00
C149   C     0.25764   0.65796   0.04961   0.00000  Uiso   1.00
C150   C     0.19465   0.63880   0.08927   0.00000  Uiso   1.00
C151   C     0.08409   0.59944   0.11971   0.00000  Uiso   1.00
C152   C     0.35733   0.72699   0.25199   0.00000  Uiso   1.00
C153   C     0.41917   0.67927   0.23254   0.00000  Uiso   1.00
C154   C     0.46038   0.64686   0.29828   0.00000  Uiso   1.00
C155   C     0.51448   0.60524   0.26650   0.00000  Uiso   1.00
C156   C     0.37310   0.79550   0.20303   0.00000  Uiso   1.00
C157   C     0.37555   0.86081   0.24397   0.00000  Uiso   1.00
C158   C     0.39085   0.91704   0.18735   0.00000  Uiso   1.00
C159   C     0.29534   0.69507   0.20164   0.00000  Uiso   1.00
C160   C     0.23241   0.67596   0.24139   0.00000  Uiso   1.00
C161   C     0.18224   0.64765   0.18359   0.00000  Uiso   1.00
H162   H     0.38978   0.70385   0.00535   0.00000  Uiso   1.00
H163   H     0.49519   0.62203   0.03363   0.00000  Uiso   1.00
H164   H     0.41036   0.83595   0.97932   0.00000  Uiso   1.00
H165   H     0.26724   0.65113   0.97675   0.00000  Uiso   1.00
H166   H     0.60661   0.53525   0.10650   0.00000  Uiso   1.00
H167   H     0.42772   0.98631   0.99199   0.00000  Uiso   1.00
H168   H     0.12593   0.59657   0.98656   0.00000  Uiso   1.00
H169   H     0.34768   0.73388   0.32530   0.00000  Uiso   1.00
H170   H     0.45078   0.65371   0.37114   0.00000  Uiso   1.00
H171   H     0.36596   0.86763   0.31683   0.00000  Uiso   1.00
H172   H     0.22284   0.68280   0.31426   0.00000  Uiso   1.00
H173   H     0.57057   0.56096   0.38044   0.00000  Uiso   1.00
H174   H     0.39168   0.01202   0.26592   0.00000  Uiso   1.00
H175   H     0.08989   0.62228   0.26050   0.00000  Uiso   1.00
O176   O     0.65719   0.49485   0.26785   0.00000  Uiso   1.00
O177   O     0.42247   0.08661   0.11761   0.00000  Uiso   1.00
O178   O     0.02654   0.57529   0.11049   0.00000  Uiso   1.00
N179   N     0.58397   0.55229   0.16469   0.00000  Uiso   1.00
N180   N     0.41673   0.97400   0.05762   0.00000  Uiso   1.00
N181   N     0.13457   0.60965   0.05254   0.00000  Uiso   1.00
N182   N     0.56458   0.56612   0.31209   0.00000  Uiso   1.00
N183   N     0.39733   0.98784   0.20503   0.00000  Uiso   1.00
N184   N     0.11518   0.62348   0.19994   0.00000  Uiso   1.00
C185   C     0.78928   0.11987   0.57865   0.00000  Uiso   1.00
C186   C     0.82957   0.06844   0.63838   0.00000  Uiso   1.00
C187   C     0.87114   0.01439   0.60650   0.00000  Uiso   1.00
C188   C     0.90361   0.97311   0.67218   0.00000  Uiso   1.00
C189   C     0.96749   0.89134   0.75061   0.00000  Uiso   1.00
C190   C     0.71334   0.11452   0.60888   0.00000  Uiso   1.00
C191   C     0.65719   0.09922   0.55218   0.00000  Uiso   1.00
C192   C     0.59182   0.09674   0.59303   0.00000  Uiso   1.00
C193   C     0.47524   0.08657   0.62564   0.00000  Uiso   1.00
C194   C     0.81377   0.19227   0.60748   0.00000  Uiso   1.00
C195   C     0.84204   0.24236   0.54961   0.00000  Uiso   1.00
C196   C     0.86120   0.30535   0.58927   0.00000  Uiso   1.00
C197   C     0.90056   0.41591   0.61971   0.00000  Uiso   1.00
C198   C     0.77301   0.14267   0.75199   0.00000  Uiso   1.00
C199   C     0.82073   0.08083   0.73254   0.00000  Uiso   1.00
C200   C     0.85314   0.03962   0.79828   0.00000  Uiso   1.00
C201   C     0.89476   0.98552   0.76650   0.00000  Uiso   1.00
C202   C     0.70450   0.12690   0.70303   0.00000  Uiso   1.00
C203   C     0.63919   0.12445   0.74397   0.00000  Uiso   1.00
C204   C     0.58296   0.10915   0.68735   0.00000  Uiso   1.00
C205   C     0.80493   0.20466   0.70164   0.00000  Uiso   1.00
C206   C     0.82404   0.26759   0.74139   0.00000  Uiso   1.00
C207   C     0.85235   0.31776   0.68359   0.00000  Uiso   1.00
H208   H     0.79615   0.11022   0.50535   0.00000  Uiso   1.00
H209   H     0.87797   0.00481   0.53363   0.00000  Uiso   1.00
H210   H     0.66405   0.08964   0.47932   0.00000  Uiso   1.00
H211   H     0.84887   0.23276   0.47675   0.00000  Uiso   1.00
H212   H     0.96475   0.89339   0.60650   0.00000  Uiso   1.00
H213   H     0.51369   0.07228   0.49199   0.00000  Uiso   1.00
H214   H     0.90343   0.37407   0.48656   0.00000  Uiso   1.00
H215   H     0.76612   0.15232   0.82530   0.00000  Uiso   1.00
H216   H     0.84629   0.04922   0.87114   0.00000  Uiso   1.00
H217   H     0.63237   0.13404   0.81683   0.00000  Uiso   1.00
H218   H     0.81720   0.27716   0.81426   0.00000  Uiso   1.00
H219   H     0.93904   0.92943   0.88044   0.00000  Uiso   1.00
H220   H     0.48798   0.10832   0.76592   0.00000  Uiso   1.00
H221   H     0.87772   0.41011   0.76050   0.00000  Uiso   1.00
O222   O     0.00515   0.84281   0.76785   0.00000  Uiso   1.00
O223   O     0.41339   0.07753   0.61761   0.00000  Uiso   1.00
O224   O     0.92471   0.47346   0.61049   0.00000  Uiso   1.00
N225   N     0.94771   0.91603   0.66469   0.00000  Uiso   1.00
N226   N     0.52600   0.08327   0.55762   0.00000  Uiso   1.00
N227   N     0.89035   0.36543   0.55254   0.00000  Uiso   1.00
N228   N     0.93388   0.93542   0.81209   0.00000  Uiso   1.00
N229   N     0.51216   0.10267   0.70503   0.00000  Uiso   1.00
N230   N     0.87652   0.38482   0.69994   0.00000  Uiso   1.00
C231   C     0.21072   0.88013   0.57865   0.00000  Uiso   1.00
C232   C     0.17043   0.93156   0.63838   0.00000  Uiso   1.00
C233   C     0.12886   0.98561   0.60650   0.00000  Uiso   1.00
C234   C     0.09639   0.02689   0.67218   0.00000  Uiso   1.00
C235   C     0.03251   0.10866   0.75061   0.00000  Uiso   1.00
C236   C     0.28666   0.88548   0.60888   0.00000  Uiso   1.00
C237   C     0.34281   0.90078   0.55218   0.00000  Uiso   1.00
C238   C     0.40818   0.90326   0.59303   0.00000  Uiso   1.00
C239   C     0.52476   0.91343   0.62564   0.00000  Uiso   1.00
C240   C     0.18623   0.80773   0.60748   0.00000  Uiso   1.00
C241   C     0.15796   0.75764   0.54961   0.00000  Uiso   1.00
C242   C     0.13880   0.69465   0.58927   0.00000  Uiso   1.00
C243   C     0.09944   0.58409   0.61971   0.00000  Uiso   1.00
C244   C     0.22699   0.85733   0.75199   0.00000  Uiso   1.00
C245   C     0.17927   0.91917   0.73254   0.00000  Uiso   1.00
C246   C     0.14686   0.96038   0.79828   0.00000  Uiso   1.00
C247   C     0.10524   0.01448   0.76650   0.00000  Uiso   1.00
C248   C     0.29550   0.87310   0.70303   0.00000  Uiso   1.00
C249   C     0.36081   0.87555   0.74397   0.00000  Uiso   1.00
C250   C     0.41704   0.89085   0.68735   0.00000  Uiso   1.00
C251   C     0.19507   0.79534   0.70164   0.00000  Uiso   1.00
C252   C     0.17596   0.73241   0.74139   0.00000  Uiso   1.00
C253   C     0.14765   0.68224   0.68359   0.00000  Uiso   1.00
H254   H     0.20385   0.88978   0.50535   0.00000  Uiso   1.00
H255   H     0.12203   0.99519   0.53363   0.00000  Uiso   1.00
H256   H     0.33595   0.91036   0.47932   0.00000  Uiso   1.00
H257   H     0.15113   0.76724   0.47675   0.00000  Uiso   1.00
H258   H     0.03525   0.10661   0.60650   0.00000  Uiso   1.00
H259   H     0.48631   0.92772   0.49199   0.00000  Uiso   1.00
H260   H     0.09657   0.62593   0.48656   0.00000  Uiso   1.00
H261   H     0.23388   0.84768   0.82530   0.00000  Uiso   1.00
H262   H     0.15371   0.95078   0.87114   0.00000  Uiso   1.00
H263   H     0.36763   0.86596   0.81683   0.00000  Uiso   1.00
H264   H     0.18280   0.72284   0.81426   0.00000  Uiso   1.00
H265   H     0.06096   0.07057   0.88044   0.00000  Uiso   1.00
H266   H     0.51202   0.89168   0.76592   0.00000  Uiso   1.00
H267   H     0.12228   0.58989   0.76050   0.00000  Uiso   1.00
O268   O     0.99485   0.15719   0.76785   0.00000  Uiso   1.00
O269   O     0.58661   0.92247   0.61761   0.00000  Uiso   1.00
O270   O     0.07529   0.52654   0.61049   0.00000  Uiso   1.00
N271   N     0.05229   0.08397   0.66469   0.00000  Uiso   1.00
N272   N     0.47400   0.91673   0.55762   0.00000  Uiso   1.00
N273   N     0.10965   0.63457   0.55254   0.00000  Uiso   1.00
N274   N     0.06612   0.06458   0.81209   0.00000  Uiso   1.00
N275   N     0.48784   0.89733   0.70503   0.00000  Uiso   1.00
N276   N     0.12348   0.61518   0.69994   0.00000  Uiso   1.00
C277   C     0.88013   0.78928   0.42135   0.00000  Uiso   1.00
C278   C     0.93156   0.82957   0.36162   0.00000  Uiso   1.00
C279   C     0.98561   0.87114   0.39350   0.00000  Uiso   1.00
C280   C     0.02689   0.90361   0.32782   0.00000  Uiso   1.00
C281   C     0.10866   0.96749   0.24939   0.00000  Uiso   1.00
C282   C     0.88548   0.71334   0.39112   0.00000  Uiso   1.00
C283   C     0.90078   0.65719   0.44782   0.00000  Uiso   1.00
C284   C     0.90326   0.59182   0.40697   0.00000  Uiso   1.00
C285   C     0.91343   0.47524   0.37436   0.00000  Uiso   1.00
C286   C     0.80773   0.81377   0.39252   0.00000  Uiso   1.00
C287   C     0.75764   0.84204   0.45039   0.00000  Uiso   1.00
C288   C     0.69465   0.86120   0.41073   0.00000  Uiso   1.00
C289   C     0.58409   0.90056   0.38029   0.00000  Uiso   1.00
C290   C     0.85733   0.77301   0.24801   0.00000  Uiso   1.00
C291   C     0.91917   0.82073   0.26746   0.00000  Uiso   1.00
C292   C     0.96038   0.85314   0.20172   0.00000  Uiso   1.00
C293   C     0.01448   0.89476   0.23350   0.00000  Uiso   1.00
C294   C     0.87310   0.70450   0.29697   0.00000  Uiso   1.00
C295   C     0.87555   0.63919   0.25603   0.00000  Uiso   1.00
C296   C     0.89085   0.58296   0.31265   0.00000  Uiso   1.00
C297   C     0.79534   0.80493   0.29836   0.00000  Uiso   1.00
C298   C     0.73241   0.82404   0.25861   0.00000  Uiso   1.00
C299   C     0.68224   0.85235   0.31641   0.00000  Uiso   1.00
H300   H     0.88978   0.79615   0.49465   0.00000  Uiso   1.00
H301   H     0.99519   0.87797   0.46637   0.00000  Uiso   1.00
H302   H     0.91036   0.66405   0.52068   0.00000  Uiso   1.00
H303   H     0.76724   0.84887   0.52325   0.00000  Uiso   1.00
H304   H     0.10661   0.96475   0.39350   0.00000  Uiso   1.00
H305   H     0.92772   0.51369   0.50801   0.00000  Uiso   1.00
H306   H     0.62593   0.90343   0.51344   0.00000  Uiso   1.00
H307   H     0.84768   0.76612   0.17470   0.00000  Uiso   1.00
H308   H     0.95078   0.84629   0.12886   0.00000  Uiso   1.00
H309   H     0.86596   0.63237   0.18317   0.00000  Uiso   1.00
H310   H     0.72284   0.81720   0.18574   0.00000  Uiso   1.00
H311   H     0.07057   0.93904   0.11956   0.00000  Uiso   1.00
H312   H     0.89168   0.48798   0.23408   0.00000  Uiso   1.00
H313   H     0.58989   0.87772   0.23950   0.00000  Uiso   1.00
O314   O     0.15719   0.00515   0.23215   0.00000  Uiso   1.00
O315   O     0.92247   0.41339   0.38239   0.00000  Uiso   1.00
O316   O     0.52654   0.92471   0.38951   0.00000  Uiso   1.00
N317   N     0.08397   0.94771   0.33531   0.00000  Uiso   1.00
N318   N     0.91673   0.52600   0.44238   0.00000  Uiso   1.00
N319   N     0.63457   0.89035   0.44746   0.00000  Uiso   1.00
N320   N     0.06458   0.93388   0.18791   0.00000  Uiso   1.00
N321   N     0.89733   0.51216   0.29497   0.00000  Uiso   1.00
N322   N     0.61518   0.87652   0.30006   0.00000  Uiso   1.00
C323   C     0.11987   0.21072   0.42135   0.00000  Uiso   1.00
C324   C     0.06844   0.17043   0.36162   0.00000  Uiso   1.00
C325   C     0.01439   0.12886   0.39350   0.00000  Uiso   1.00
C326   C     0.97311   0.09639   0.32782   0.00000  Uiso   1.00
C327   C     0.89134   0.03251   0.24939   0.00000  Uiso   1.00
C328   C     0.11452   0.28666   0.39112   0.00000  Uiso   1.00
C329   C     0.09922   0.34281   0.44782   0.00000  Uiso   1.00
C330   C     0.09674   0.40818   0.40697   0.00000  Uiso   1.00
C331   C     0.08657   0.52476   0.37436   0.00000  Uiso   1.00
C332   C     0.19227   0.18623   0.39252   0.00000  Uiso   1.00
C333   C     0.24236   0.15796   0.45039   0.00000  Uiso   1.00
C334   C     0.30535   0.13880   0.41073   0.00000  Uiso   1.00
C335   C     0.41591   0.09944   0.38029   0.00000  Uiso   1.00
C336   C     0.14267   0.22699   0.24801   0.00000  Uiso   1.00
C337   C     0.08083   0.17927   0.26746   0.00000  Uiso   1.00
C338   C     0.03962   0.14686   0.20172   0.00000  Uiso   1.00
C339   C     0.98552   0.10524   0.23350   0.00000  Uiso   1.00
C340   C     0.12690   0.29550   0.29697   0.00000  Uiso   1.00
C341   C     0.12445   0.36081   0.25603   0.00000  Uiso   1.00
C342   C     0.10915   0.41704   0.31265   0.00000  Uiso   1.00
C343   C     0.20466   0.19507   0.29836   0.00000  Uiso   1.00
C344   C     0.26759   0.17596   0.25861   0.00000  Uiso   1.00
C345   C     0.31776   0.14765   0.31641   0.00000  Uiso   1.00
H346   H     0.11022   0.20385   0.49465   0.00000  Uiso   1.00
H347   H     0.00481   0.12203   0.46637   0.00000  Uiso   1.00
H348   H     0.08964   0.33595   0.52068   0.00000  Uiso   1.00
H349   H     0.23276   0.15113   0.52325   0.00000  Uiso   1.00
H350   H     0.89339   0.03525   0.39350   0.00000  Uiso   1.00
H351   H     0.07228   0.48631   0.50801   0.00000  Uiso   1.00
H352   H     0.37407   0.09657   0.51344   0.00000  Uiso   1.00
H353   H     0.15232   0.23388   0.17470   0.00000  Uiso   1.00
H354   H     0.04922   0.15371   0.12886   0.00000  Uiso   1.00
H355   H     0.13404   0.36763   0.18317   0.00000  Uiso   1.00
H356   H     0.27716   0.18280   0.18574   0.00000  Uiso   1.00
H357   H     0.92943   0.06096   0.11956   0.00000  Uiso   1.00
H358   H     0.10832   0.51202   0.23408   0.00000  Uiso   1.00
H359   H     0.41011   0.12228   0.23950   0.00000  Uiso   1.00
O360   O     0.84281   0.99485   0.23215   0.00000  Uiso   1.00
O361   O     0.07753   0.58661   0.38239   0.00000  Uiso   1.00
O362   O     0.47346   0.07529   0.38951   0.00000  Uiso   1.00
N363   N     0.91603   0.05229   0.33531   0.00000  Uiso   1.00
N364   N     0.08327   0.47400   0.44238   0.00000  Uiso   1.00
N365   N     0.36543   0.10965   0.44746   0.00000  Uiso   1.00
N366   N     0.93542   0.06612   0.18791   0.00000  Uiso   1.00
N367   N     0.10267   0.48784   0.29497   0.00000  Uiso   1.00
N368   N     0.38482   0.12348   0.30006   0.00000  Uiso   1.00
