data_job_03803
_audit_creation_date              2018-12-19
_audit_creation_method            'Materials Studio'
_symmetry_space_group_name_H-M    'P1'
_symmetry_Int_Tables_number       1
_symmetry_cell_setting            triclinic
loop_
_symmetry_equiv_pos_as_xyz
  x,y,z
_cell_length_a                    18.4465
_cell_length_b                    11.9458
_cell_length_c                    11.1425
_cell_angle_alpha                 63.1245
_cell_angle_beta                  93.2165
_cell_angle_gamma                 78.3109
loop_
_atom_site_label
_atom_site_type_symbol
_atom_site_fract_x
_atom_site_fract_y
_atom_site_fract_z
_atom_site_U_iso_or_equiv
_atom_site_adp_type
_atom_site_occupancy
C1     C     0.39654   0.23154   0.34187   0.00000  Uiso   1.00
C2     C     0.31496   0.28429   0.27019   0.00000  Uiso   1.00
C3     C     0.28033   0.23877   0.19384   0.00000  Uiso   1.00
C4     C     0.20528   0.30005   0.13649   0.00000  Uiso   1.00
C5     C     0.08454   0.36632   0.02234   0.00000  Uiso   1.00
C6     C     0.43136   0.34687   0.28698   0.00000  Uiso   1.00
C7     C     0.49459   0.35394   0.22476   0.00000  Uiso   1.00
C8     C     0.51753   0.46790   0.18156   0.00000  Uiso   1.00
C9     C     0.57753   0.63129   0.09355   0.00000  Uiso   1.00
C10    C     0.39419   0.19352   0.49168   0.00000  Uiso   1.00
C11    C     0.42618   0.07167   0.60158   0.00000  Uiso   1.00
C12    C     0.41785   0.05652   0.73073   0.00000  Uiso   1.00
C13    C     0.42013   0.98181   0.96055   0.00000  Uiso   1.00
C14    C     0.32486   0.42133   0.37580   0.00000  Uiso   1.00
C15    C     0.27603   0.38738   0.28862   0.00000  Uiso   1.00
C16    C     0.20102   0.44874   0.23138   0.00000  Uiso   1.00
C17    C     0.16628   0.40331   0.15496   0.00000  Uiso   1.00
C18    C     0.39242   0.44995   0.30541   0.00000  Uiso   1.00
C19    C     0.41528   0.56392   0.26230   0.00000  Uiso   1.00
C20    C     0.47853   0.57117   0.20002   0.00000  Uiso   1.00
C21    C     0.35525   0.29661   0.51011   0.00000  Uiso   1.00
C22    C     0.34687   0.28165   0.63911   0.00000  Uiso   1.00
C23    C     0.37885   0.15979   0.74919   0.00000  Uiso   1.00
H24    H     0.42686   0.15129   0.32752   0.00000  Uiso   1.00
H25    H     0.31048   0.15900   0.17959   0.00000  Uiso   1.00
H26    H     0.52471   0.27415   0.21052   0.00000  Uiso   1.00
H27    H     0.45631   0.99192   0.58728   0.00000  Uiso   1.00
H28    H     0.16429   0.21303   0.02367   0.00000  Uiso   1.00
H29    H     0.61603   0.45582   0.08893   0.00000  Uiso   1.00
H30    H     0.47179   0.86068   0.88340   0.00000  Uiso   1.00
H31    H     0.29455   0.50159   0.39015   0.00000  Uiso   1.00
H32    H     0.17090   0.52852   0.24566   0.00000  Uiso   1.00
H33    H     0.38514   0.64367   0.27658   0.00000  Uiso   1.00
H34    H     0.31674   0.36144   0.65334   0.00000  Uiso   1.00
H35    H     0.05101   0.51295   0.07729   0.00000  Uiso   1.00
H36    H     0.50275   0.75574   0.14255   0.00000  Uiso   1.00
H37    H     0.35851   0.16060   0.93701   0.00000  Uiso   1.00
O38    O     0.02871   0.37441   0.95426   0.00000  Uiso   1.00
O39    O     0.62138   0.69293   0.03990   0.00000  Uiso   1.00
O40    O     0.43214   0.91212   0.08222   0.00000  Uiso   1.00
N41    N     0.15459   0.27991   0.05615   0.00000  Uiso   1.00
N42    N     0.57694   0.50691   0.11714   0.00000  Uiso   1.00
N43    N     0.44210   0.95051   0.85990   0.00000  Uiso   1.00
N44    N     0.09363   0.44129   0.08499   0.00000  Uiso   1.00
N45    N     0.51598   0.66829   0.14599   0.00000  Uiso   1.00
N46    N     0.38115   0.11189   0.88875   0.00000  Uiso   1.00
C47    C     0.60346   0.76846   0.65813   0.00000  Uiso   1.00
C48    C     0.68504   0.71571   0.72981   0.00000  Uiso   1.00
C49    C     0.71967   0.76123   0.80616   0.00000  Uiso   1.00
C50    C     0.79472   0.69995   0.86351   0.00000  Uiso   1.00
C51    C     0.91546   0.63368   0.97766   0.00000  Uiso   1.00
C52    C     0.56864   0.65313   0.71302   0.00000  Uiso   1.00
C53    C     0.50541   0.64606   0.77524   0.00000  Uiso   1.00
C54    C     0.48247   0.53210   0.81844   0.00000  Uiso   1.00
C55    C     0.42247   0.36871   0.90645   0.00000  Uiso   1.00
C56    C     0.60581   0.80648   0.50832   0.00000  Uiso   1.00
C57    C     0.57382   0.92833   0.39842   0.00000  Uiso   1.00
C58    C     0.58215   0.94348   0.26927   0.00000  Uiso   1.00
C59    C     0.57987   0.01819   0.03945   0.00000  Uiso   1.00
C60    C     0.67514   0.57867   0.62420   0.00000  Uiso   1.00
C61    C     0.72397   0.61262   0.71138   0.00000  Uiso   1.00
C62    C     0.79898   0.55126   0.76862   0.00000  Uiso   1.00
C63    C     0.83372   0.59669   0.84504   0.00000  Uiso   1.00
C64    C     0.60758   0.55005   0.69459   0.00000  Uiso   1.00
C65    C     0.58472   0.43608   0.73770   0.00000  Uiso   1.00
C66    C     0.52147   0.42883   0.79998   0.00000  Uiso   1.00
C67    C     0.64475   0.70339   0.48989   0.00000  Uiso   1.00
C68    C     0.65313   0.71835   0.36089   0.00000  Uiso   1.00
C69    C     0.62115   0.84021   0.25081   0.00000  Uiso   1.00
H70    H     0.57314   0.84871   0.67248   0.00000  Uiso   1.00
H71    H     0.68952   0.84100   0.82041   0.00000  Uiso   1.00
H72    H     0.47529   0.72585   0.78948   0.00000  Uiso   1.00
H73    H     0.54369   0.00808   0.41272   0.00000  Uiso   1.00
H74    H     0.83571   0.78697   0.97633   0.00000  Uiso   1.00
H75    H     0.38397   0.54418   0.91107   0.00000  Uiso   1.00
H76    H     0.52821   0.13932   0.11660   0.00000  Uiso   1.00
H77    H     0.70545   0.49841   0.60985   0.00000  Uiso   1.00
H78    H     0.82910   0.47148   0.75434   0.00000  Uiso   1.00
H79    H     0.61486   0.35633   0.72342   0.00000  Uiso   1.00
H80    H     0.68326   0.63856   0.34666   0.00000  Uiso   1.00
H81    H     0.94899   0.48705   0.92271   0.00000  Uiso   1.00
H82    H     0.49725   0.24426   0.85745   0.00000  Uiso   1.00
H83    H     0.64149   0.83940   0.06299   0.00000  Uiso   1.00
O84    O     0.97129   0.62559   0.04574   0.00000  Uiso   1.00
O85    O     0.37862   0.30707   0.96010   0.00000  Uiso   1.00
O86    O     0.56786   0.08788   0.91778   0.00000  Uiso   1.00
N87    N     0.84541   0.72009   0.94385   0.00000  Uiso   1.00
N88    N     0.42306   0.49309   0.88286   0.00000  Uiso   1.00
N89    N     0.55790   0.04949   0.14010   0.00000  Uiso   1.00
N90    N     0.90637   0.55871   0.91501   0.00000  Uiso   1.00
N91    N     0.48402   0.33171   0.85401   0.00000  Uiso   1.00
N92    N     0.61885   0.88811   0.11125   0.00000  Uiso   1.00
