data_job_01071
_audit_creation_date              2018-12-19
_audit_creation_method            'Materials Studio'
_symmetry_space_group_name_H-M    'P1'
_symmetry_Int_Tables_number       1
_symmetry_cell_setting            triclinic
loop_
_symmetry_equiv_pos_as_xyz
  x,y,z
_cell_length_a                    21.5931
_cell_length_b                    13.0534
_cell_length_c                    14.2169
_cell_angle_alpha                 90.0000
_cell_angle_beta                  131.8790
_cell_angle_gamma                 90.0000
loop_
_atom_site_label
_atom_site_type_symbol
_atom_site_fract_x
_atom_site_fract_y
_atom_site_fract_z
_atom_site_U_iso_or_equiv
_atom_site_adp_type
_atom_site_occupancy
C1     C     0.66664   0.96031   0.05951   0.00000  Uiso   1.00
C2     C     0.70280   0.92790   0.00157   0.00000  Uiso   1.00
C3     C     0.77582   0.96470   0.03603   0.00000  Uiso   1.00
C4     C     0.79826   0.92542   0.97164   0.00000  Uiso   1.00
C5     C     0.86181   0.88631   0.89614   0.00000  Uiso   1.00
C6     C     0.57874   0.99821   0.95006   0.00000  Uiso   1.00
C7     C     0.54746   0.09412   0.94124   0.00000  Uiso   1.00
C8     C     0.46546   0.11402   0.83350   0.00000  Uiso   1.00
C9     C     0.33639   0.18403   0.67808   0.00000  Uiso   1.00
C10    C     0.65670   0.86218   0.10652   0.00000  Uiso   1.00
C11    C     0.69096   0.84372   0.22924   0.00000  Uiso   1.00
C12    C     0.67458   0.74910   0.25322   0.00000  Uiso   1.00
C13    C     0.66656   0.60791   0.34074   0.00000  Uiso   1.00
C14    C     0.57663   0.82511   0.88388   0.00000  Uiso   1.00
C15    C     0.65390   0.85446   0.90617   0.00000  Uiso   1.00
C16    C     0.67623   0.81511   0.84171   0.00000  Uiso   1.00
C17    C     0.74928   0.85185   0.87608   0.00000  Uiso   1.00
C18    C     0.52984   0.92478   0.85467   0.00000  Uiso   1.00
C19    C     0.44787   0.94453   0.74692   0.00000  Uiso   1.00
C20    C     0.41648   0.04045   0.73793   0.00000  Uiso   1.00
C21    C     0.60781   0.78874   0.01113   0.00000  Uiso   1.00
C22    C     0.59137   0.69413   0.03492   0.00000  Uiso   1.00
C23    C     0.62560   0.67553   0.15765   0.00000  Uiso   1.00
H24    H     0.70470   0.01749   0.13377   0.00000  Uiso   1.00
H25    H     0.81364   0.02154   0.10985   0.00000  Uiso   1.00
H26    H     0.58531   0.15093   0.01508   0.00000  Uiso   1.00
H27    H     0.72879   0.90057   0.30304   0.00000  Uiso   1.00
H28    H     0.91284   0.99368   0.04123   0.00000  Uiso   1.00
H29    H     0.43139   0.26649   0.84142   0.00000  Uiso   1.00
H30    H     0.73394   0.73856   0.44863   0.00000  Uiso   1.00
H31    H     0.53856   0.76793   0.80960   0.00000  Uiso   1.00
H32    H     0.63838   0.75828   0.76790   0.00000  Uiso   1.00
H33    H     0.41005   0.88768   0.67312   0.00000  Uiso   1.00
H34    H     0.55353   0.63732   0.96108   0.00000  Uiso   1.00
H35    H     0.77059   0.78001   0.76368   0.00000  Uiso   1.00
H36    H     0.28913   0.05283   0.56387   0.00000  Uiso   1.00
H37    H     0.59169   0.52489   0.17109   0.00000  Uiso   1.00
O38    O     0.91036   0.88503   0.88084   0.00000  Uiso   1.00
O39    O     0.27871   0.24294   0.61871   0.00000  Uiso   1.00
O40    O     0.67566   0.55031   0.41536   0.00000  Uiso   1.00
N41    N     0.86567   0.94470   0.98165   0.00000  Uiso   1.00
N42    N     0.41554   0.19977   0.79483   0.00000  Uiso   1.00
N43    N     0.69839   0.70621   0.36252   0.00000  Uiso   1.00
N44    N     0.78913   0.82973   0.83231   0.00000  Uiso   1.00
N45    N     0.33900   0.08480   0.64548   0.00000  Uiso   1.00
N46    N     0.62184   0.59124   0.21317   0.00000  Uiso   1.00
C47    C     0.16664   0.46031   0.05951   0.00000  Uiso   1.00
C48    C     0.20280   0.42790   0.00157   0.00000  Uiso   1.00
C49    C     0.27582   0.46470   0.03603   0.00000  Uiso   1.00
C50    C     0.29826   0.42542   0.97164   0.00000  Uiso   1.00
C51    C     0.36181   0.38631   0.89614   0.00000  Uiso   1.00
C52    C     0.07874   0.49821   0.95006   0.00000  Uiso   1.00
C53    C     0.04746   0.59412   0.94124   0.00000  Uiso   1.00
C54    C     0.96546   0.61402   0.83350   0.00000  Uiso   1.00
C55    C     0.83639   0.68403   0.67808   0.00000  Uiso   1.00
C56    C     0.15670   0.36218   0.10652   0.00000  Uiso   1.00
C57    C     0.19096   0.34372   0.22924   0.00000  Uiso   1.00
C58    C     0.17458   0.24910   0.25322   0.00000  Uiso   1.00
C59    C     0.16656   0.10791   0.34074   0.00000  Uiso   1.00
C60    C     0.07663   0.32511   0.88388   0.00000  Uiso   1.00
C61    C     0.15390   0.35446   0.90617   0.00000  Uiso   1.00
C62    C     0.17623   0.31511   0.84171   0.00000  Uiso   1.00
C63    C     0.24928   0.35185   0.87608   0.00000  Uiso   1.00
C64    C     0.02984   0.42478   0.85467   0.00000  Uiso   1.00
C65    C     0.94787   0.44453   0.74692   0.00000  Uiso   1.00
C66    C     0.91648   0.54045   0.73793   0.00000  Uiso   1.00
C67    C     0.10781   0.28874   0.01113   0.00000  Uiso   1.00
C68    C     0.09137   0.19413   0.03492   0.00000  Uiso   1.00
C69    C     0.12560   0.17553   0.15765   0.00000  Uiso   1.00
H70    H     0.20470   0.51749   0.13377   0.00000  Uiso   1.00
H71    H     0.31364   0.52154   0.10985   0.00000  Uiso   1.00
H72    H     0.08531   0.65093   0.01508   0.00000  Uiso   1.00
H73    H     0.22879   0.40057   0.30304   0.00000  Uiso   1.00
H74    H     0.41284   0.49368   0.04123   0.00000  Uiso   1.00
H75    H     0.93139   0.76649   0.84142   0.00000  Uiso   1.00
H76    H     0.23394   0.23856   0.44863   0.00000  Uiso   1.00
H77    H     0.03856   0.26793   0.80960   0.00000  Uiso   1.00
H78    H     0.13838   0.25828   0.76790   0.00000  Uiso   1.00
H79    H     0.91005   0.38768   0.67312   0.00000  Uiso   1.00
H80    H     0.05353   0.13732   0.96108   0.00000  Uiso   1.00
H81    H     0.27059   0.28001   0.76368   0.00000  Uiso   1.00
H82    H     0.78913   0.55283   0.56387   0.00000  Uiso   1.00
H83    H     0.09169   0.02489   0.17109   0.00000  Uiso   1.00
O84    O     0.41036   0.38503   0.88084   0.00000  Uiso   1.00
O85    O     0.77871   0.74294   0.61871   0.00000  Uiso   1.00
O86    O     0.17566   0.05031   0.41536   0.00000  Uiso   1.00
N87    N     0.36567   0.44470   0.98165   0.00000  Uiso   1.00
N88    N     0.91554   0.69977   0.79483   0.00000  Uiso   1.00
N89    N     0.19839   0.20621   0.36252   0.00000  Uiso   1.00
N90    N     0.28913   0.32973   0.83231   0.00000  Uiso   1.00
N91    N     0.83900   0.58480   0.64548   0.00000  Uiso   1.00
N92    N     0.12184   0.09124   0.21317   0.00000  Uiso   1.00
C93    C     0.33336   0.96031   0.94049   0.00000  Uiso   1.00
C94    C     0.29720   0.92790   0.99843   0.00000  Uiso   1.00
C95    C     0.22418   0.96470   0.96397   0.00000  Uiso   1.00
C96    C     0.20174   0.92542   0.02836   0.00000  Uiso   1.00
C97    C     0.13819   0.88631   0.10386   0.00000  Uiso   1.00
C98    C     0.42126   0.99821   0.04994   0.00000  Uiso   1.00
C99    C     0.45254   0.09412   0.05876   0.00000  Uiso   1.00
C100   C     0.53454   0.11402   0.16650   0.00000  Uiso   1.00
C101   C     0.66361   0.18403   0.32192   0.00000  Uiso   1.00
C102   C     0.34330   0.86218   0.89348   0.00000  Uiso   1.00
C103   C     0.30904   0.84372   0.77076   0.00000  Uiso   1.00
C104   C     0.32542   0.74910   0.74678   0.00000  Uiso   1.00
C105   C     0.33344   0.60791   0.65926   0.00000  Uiso   1.00
C106   C     0.42337   0.82511   0.11612   0.00000  Uiso   1.00
C107   C     0.34610   0.85446   0.09383   0.00000  Uiso   1.00
C108   C     0.32377   0.81511   0.15829   0.00000  Uiso   1.00
C109   C     0.25072   0.85185   0.12392   0.00000  Uiso   1.00
C110   C     0.47016   0.92478   0.14533   0.00000  Uiso   1.00
C111   C     0.55213   0.94453   0.25308   0.00000  Uiso   1.00
C112   C     0.58352   0.04045   0.26207   0.00000  Uiso   1.00
C113   C     0.39219   0.78874   0.98887   0.00000  Uiso   1.00
C114   C     0.40863   0.69413   0.96508   0.00000  Uiso   1.00
C115   C     0.37440   0.67553   0.84235   0.00000  Uiso   1.00
H116   H     0.29530   0.01749   0.86623   0.00000  Uiso   1.00
H117   H     0.18636   0.02154   0.89015   0.00000  Uiso   1.00
H118   H     0.41469   0.15093   0.98492   0.00000  Uiso   1.00
H119   H     0.27121   0.90057   0.69696   0.00000  Uiso   1.00
H120   H     0.08716   0.99368   0.95877   0.00000  Uiso   1.00
H121   H     0.56861   0.26649   0.15858   0.00000  Uiso   1.00
H122   H     0.26606   0.73856   0.55137   0.00000  Uiso   1.00
H123   H     0.46144   0.76793   0.19040   0.00000  Uiso   1.00
H124   H     0.36162   0.75828   0.23210   0.00000  Uiso   1.00
H125   H     0.58995   0.88768   0.32688   0.00000  Uiso   1.00
H126   H     0.44647   0.63732   0.03892   0.00000  Uiso   1.00
H127   H     0.22941   0.78001   0.23632   0.00000  Uiso   1.00
H128   H     0.71087   0.05283   0.43613   0.00000  Uiso   1.00
H129   H     0.40831   0.52489   0.82891   0.00000  Uiso   1.00
O130   O     0.08964   0.88503   0.11916   0.00000  Uiso   1.00
O131   O     0.72129   0.24294   0.38129   0.00000  Uiso   1.00
O132   O     0.32434   0.55031   0.58464   0.00000  Uiso   1.00
N133   N     0.13433   0.94470   0.01835   0.00000  Uiso   1.00
N134   N     0.58446   0.19977   0.20517   0.00000  Uiso   1.00
N135   N     0.30161   0.70621   0.63748   0.00000  Uiso   1.00
N136   N     0.21087   0.82973   0.16769   0.00000  Uiso   1.00
N137   N     0.66100   0.08480   0.35452   0.00000  Uiso   1.00
N138   N     0.37816   0.59124   0.78683   0.00000  Uiso   1.00
C139   C     0.83336   0.46031   0.94049   0.00000  Uiso   1.00
C140   C     0.79720   0.42790   0.99843   0.00000  Uiso   1.00
C141   C     0.72418   0.46470   0.96397   0.00000  Uiso   1.00
C142   C     0.70174   0.42542   0.02836   0.00000  Uiso   1.00
C143   C     0.63819   0.38631   0.10386   0.00000  Uiso   1.00
C144   C     0.92126   0.49821   0.04994   0.00000  Uiso   1.00
C145   C     0.95254   0.59412   0.05876   0.00000  Uiso   1.00
C146   C     0.03454   0.61402   0.16650   0.00000  Uiso   1.00
C147   C     0.16361   0.68403   0.32192   0.00000  Uiso   1.00
C148   C     0.84330   0.36218   0.89348   0.00000  Uiso   1.00
C149   C     0.80904   0.34372   0.77076   0.00000  Uiso   1.00
C150   C     0.82542   0.24910   0.74678   0.00000  Uiso   1.00
C151   C     0.83344   0.10791   0.65926   0.00000  Uiso   1.00
C152   C     0.92337   0.32511   0.11612   0.00000  Uiso   1.00
C153   C     0.84610   0.35446   0.09383   0.00000  Uiso   1.00
C154   C     0.82377   0.31511   0.15829   0.00000  Uiso   1.00
C155   C     0.75072   0.35185   0.12392   0.00000  Uiso   1.00
C156   C     0.97016   0.42478   0.14533   0.00000  Uiso   1.00
C157   C     0.05213   0.44453   0.25308   0.00000  Uiso   1.00
C158   C     0.08352   0.54045   0.26207   0.00000  Uiso   1.00
C159   C     0.89219   0.28874   0.98887   0.00000  Uiso   1.00
C160   C     0.90863   0.19413   0.96508   0.00000  Uiso   1.00
C161   C     0.87440   0.17553   0.84235   0.00000  Uiso   1.00
H162   H     0.79530   0.51749   0.86623   0.00000  Uiso   1.00
H163   H     0.68636   0.52154   0.89015   0.00000  Uiso   1.00
H164   H     0.91469   0.65093   0.98492   0.00000  Uiso   1.00
H165   H     0.77121   0.40057   0.69696   0.00000  Uiso   1.00
H166   H     0.58716   0.49368   0.95877   0.00000  Uiso   1.00
H167   H     0.06861   0.76649   0.15858   0.00000  Uiso   1.00
H168   H     0.76606   0.23856   0.55137   0.00000  Uiso   1.00
H169   H     0.96144   0.26793   0.19040   0.00000  Uiso   1.00
H170   H     0.86162   0.25828   0.23210   0.00000  Uiso   1.00
H171   H     0.08995   0.38768   0.32688   0.00000  Uiso   1.00
H172   H     0.94647   0.13732   0.03892   0.00000  Uiso   1.00
H173   H     0.72941   0.28001   0.23632   0.00000  Uiso   1.00
H174   H     0.21087   0.55283   0.43613   0.00000  Uiso   1.00
H175   H     0.90831   0.02489   0.82891   0.00000  Uiso   1.00
O176   O     0.58964   0.38503   0.11916   0.00000  Uiso   1.00
O177   O     0.22129   0.74294   0.38129   0.00000  Uiso   1.00
O178   O     0.82434   0.05031   0.58464   0.00000  Uiso   1.00
N179   N     0.63433   0.44470   0.01835   0.00000  Uiso   1.00
N180   N     0.08446   0.69977   0.20517   0.00000  Uiso   1.00
N181   N     0.80161   0.20621   0.63748   0.00000  Uiso   1.00
N182   N     0.71087   0.32973   0.16769   0.00000  Uiso   1.00
N183   N     0.16100   0.58480   0.35452   0.00000  Uiso   1.00
N184   N     0.87816   0.09124   0.78683   0.00000  Uiso   1.00
