data_job_04626
_audit_creation_date              2018-12-19
_audit_creation_method            'Materials Studio'
_symmetry_space_group_name_H-M    'P1'
_symmetry_Int_Tables_number       1
_symmetry_cell_setting            triclinic
loop_
_symmetry_equiv_pos_as_xyz
  x,y,z
_cell_length_a                    12.3144
_cell_length_b                    28.0589
_cell_length_c                    7.5810
_cell_angle_alpha                 90.0000
_cell_angle_beta                  106.8451
_cell_angle_gamma                 90.0000
loop_
_atom_site_label
_atom_site_type_symbol
_atom_site_fract_x
_atom_site_fract_y
_atom_site_fract_z
_atom_site_U_iso_or_equiv
_atom_site_adp_type
_atom_site_occupancy
C1     C     0.04956   0.37038   0.39202   0.00000  Uiso   1.00
C2     C     0.94358   0.38305   0.44756   0.00000  Uiso   1.00
C3     C     0.85646   0.41263   0.35017   0.00000  Uiso   1.00
C4     C     0.76687   0.41975   0.42396   0.00000  Uiso   1.00
C5     C     0.60268   0.44274   0.48511   0.00000  Uiso   1.00
C6     C     0.15016   0.38459   0.55441   0.00000  Uiso   1.00
C7     C     0.23674   0.41547   0.54686   0.00000  Uiso   1.00
C8     C     0.32106   0.42388   0.71060   0.00000  Uiso   1.00
C9     C     0.47764   0.44924   0.93762   0.00000  Uiso   1.00
C10    C     0.05207   0.31612   0.38257   0.00000  Uiso   1.00
C11    C     0.05622   0.28943   0.23054   0.00000  Uiso   1.00
C12    C     0.05799   0.24019   0.24961   0.00000  Uiso   1.00
C13    C     0.06227   0.15924   0.20980   0.00000  Uiso   1.00
C14    C     0.04536   0.33042   0.69623   0.00000  Uiso   1.00
C15    C     0.94130   0.36134   0.61279   0.00000  Uiso   1.00
C16    C     0.85182   0.36842   0.68674   0.00000  Uiso   1.00
C17    C     0.76458   0.39801   0.58948   0.00000  Uiso   1.00
C18    C     0.14788   0.36289   0.71965   0.00000  Uiso   1.00
C19    C     0.23210   0.37125   0.88343   0.00000  Uiso   1.00
C20    C     0.31878   0.40214   0.87614   0.00000  Uiso   1.00
C21    C     0.04979   0.29441   0.54780   0.00000  Uiso   1.00
C22    C     0.05157   0.24521   0.56711   0.00000  Uiso   1.00
C23    C     0.05570   0.21845   0.41514   0.00000  Uiso   1.00
H24    H     0.05134   0.38728   0.26338   0.00000  Uiso   1.00
H25    H     0.85826   0.42943   0.22231   0.00000  Uiso   1.00
H26    H     0.23849   0.43226   0.41897   0.00000  Uiso   1.00
H27    H     0.05798   0.30624   0.10270   0.00000  Uiso   1.00
H28    H     0.64322   0.46659   0.24968   0.00000  Uiso   1.00
H29    H     0.44496   0.47255   0.66433   0.00000  Uiso   1.00
H30    H     0.06434   0.20681   0.99740   0.00000  Uiso   1.00
H31    H     0.04359   0.31352   0.82488   0.00000  Uiso   1.00
H32    H     0.85008   0.35162   0.81461   0.00000  Uiso   1.00
H33    H     0.23031   0.35445   0.01127   0.00000  Uiso   1.00
H34    H     0.04980   0.22843   0.69500   0.00000  Uiso   1.00
H35    H     0.63657   0.40344   0.73042   0.00000  Uiso   1.00
H36    H     0.43833   0.40940   0.14507   0.00000  Uiso   1.00
H37    H     0.05769   0.14366   0.47814   0.00000  Uiso   1.00
O38    O     0.51276   0.46142   0.47320   0.00000  Uiso   1.00
O39    O     0.56463   0.46923   0.01719   0.00000  Uiso   1.00
O40    O     0.06525   0.12059   0.14220   0.00000  Uiso   1.00
N41    N     0.66820   0.44650   0.36421   0.00000  Uiso   1.00
N42    N     0.41777   0.45207   0.75189   0.00000  Uiso   1.00
N43    N     0.06195   0.20363   0.12838   0.00000  Uiso   1.00
N44    N     0.66462   0.41251   0.62289   0.00000  Uiso   1.00
N45    N     0.41420   0.41809   0.01057   0.00000  Uiso   1.00
N46    N     0.05838   0.16964   0.38706   0.00000  Uiso   1.00
C47    C     0.32118   0.61706   0.79892   0.00000  Uiso   1.00
C48    C     0.21789   0.60403   0.63917   0.00000  Uiso   1.00
C49    C     0.12894   0.57496   0.65029   0.00000  Uiso   1.00
C50    C     0.04239   0.56738   0.48852   0.00000  Uiso   1.00
C51    C     0.88167   0.54397   0.26581   0.00000  Uiso   1.00
C52    C     0.42453   0.60199   0.74017   0.00000  Uiso   1.00
C53    C     0.50932   0.57120   0.83623   0.00000  Uiso   1.00
C54    C     0.59672   0.56191   0.75949   0.00000  Uiso   1.00
C55    C     0.75685   0.53536   0.69366   0.00000  Uiso   1.00
C56    C     0.32418   0.67136   0.80700   0.00000  Uiso   1.00
C57    C     0.32464   0.69890   0.95927   0.00000  Uiso   1.00
C58    C     0.32759   0.74802   0.93881   0.00000  Uiso   1.00
C59    C     0.33192   0.82917   0.97674   0.00000  Uiso   1.00
C60    C     0.32564   0.65530   0.49186   0.00000  Uiso   1.00
C61    C     0.22032   0.62480   0.47238   0.00000  Uiso   1.00
C62    C     0.13387   0.61727   0.31055   0.00000  Uiso   1.00
C63    C     0.04481   0.58819   0.32143   0.00000  Uiso   1.00
C64    C     0.42695   0.62276   0.57339   0.00000  Uiso   1.00
C65    C     0.51425   0.61351   0.49650   0.00000  Uiso   1.00
C66    C     0.59915   0.58272   0.59240   0.00000  Uiso   1.00
C67    C     0.32661   0.69213   0.64021   0.00000  Uiso   1.00
C68    C     0.32957   0.74121   0.61952   0.00000  Uiso   1.00
C69    C     0.33002   0.76883   0.77172   0.00000  Uiso   1.00
H70    H     0.31930   0.60088   0.92877   0.00000  Uiso   1.00
H71    H     0.12710   0.55888   0.77938   0.00000  Uiso   1.00
H72    H     0.50743   0.55513   0.96530   0.00000  Uiso   1.00
H73    H     0.32277   0.68281   0.08831   0.00000  Uiso   1.00
H74    H     0.91510   0.52147   0.54019   0.00000  Uiso   1.00
H75    H     0.71706   0.51357   0.93224   0.00000  Uiso   1.00
H76    H     0.32768   0.78281   0.19164   0.00000  Uiso   1.00
H77    H     0.32753   0.67147   0.36200   0.00000  Uiso   1.00
H78    H     0.13577   0.63335   0.18151   0.00000  Uiso   1.00
H79    H     0.51610   0.62960   0.36743   0.00000  Uiso   1.00
H80    H     0.33144   0.75728   0.49044   0.00000  Uiso   1.00
H81    H     0.92215   0.58190   0.05493   0.00000  Uiso   1.00
H82    H     0.72411   0.57401   0.44699   0.00000  Uiso   1.00
H83    H     0.33472   0.84325   0.70638   0.00000  Uiso   1.00
O84    O     0.79235   0.52532   0.18904   0.00000  Uiso   1.00
O85    O     0.84450   0.51497   0.70342   0.00000  Uiso   1.00
O86    O     0.33363   0.86820   0.04373   0.00000  Uiso   1.00
N87    N     0.94307   0.54093   0.45076   0.00000  Uiso   1.00
N88    N     0.69284   0.53354   0.81730   0.00000  Uiso   1.00
N89    N     0.32883   0.78526   0.05982   0.00000  Uiso   1.00
N90    N     0.94685   0.57345   0.18965   0.00000  Uiso   1.00
N91    N     0.69663   0.56606   0.55618   0.00000  Uiso   1.00
N92    N     0.33261   0.81778   0.79871   0.00000  Uiso   1.00
C93    C     0.95044   0.87038   0.60798   0.00000  Uiso   1.00
C94    C     0.05642   0.88305   0.55244   0.00000  Uiso   1.00
C95    C     0.14354   0.91263   0.64983   0.00000  Uiso   1.00
C96    C     0.23313   0.91975   0.57604   0.00000  Uiso   1.00
C97    C     0.39732   0.94274   0.51489   0.00000  Uiso   1.00
C98    C     0.84984   0.88459   0.44559   0.00000  Uiso   1.00
C99    C     0.76326   0.91547   0.45314   0.00000  Uiso   1.00
C100   C     0.67894   0.92388   0.28940   0.00000  Uiso   1.00
C101   C     0.52236   0.94924   0.06238   0.00000  Uiso   1.00
C102   C     0.94793   0.81612   0.61743   0.00000  Uiso   1.00
C103   C     0.94378   0.78943   0.76946   0.00000  Uiso   1.00
C104   C     0.94201   0.74019   0.75039   0.00000  Uiso   1.00
C105   C     0.93773   0.65924   0.79020   0.00000  Uiso   1.00
C106   C     0.95464   0.83042   0.30377   0.00000  Uiso   1.00
C107   C     0.05870   0.86134   0.38721   0.00000  Uiso   1.00
C108   C     0.14818   0.86842   0.31326   0.00000  Uiso   1.00
C109   C     0.23542   0.89801   0.41052   0.00000  Uiso   1.00
C110   C     0.85212   0.86289   0.28035   0.00000  Uiso   1.00
C111   C     0.76790   0.87125   0.11657   0.00000  Uiso   1.00
C112   C     0.68122   0.90214   0.12386   0.00000  Uiso   1.00
C113   C     0.95021   0.79441   0.45220   0.00000  Uiso   1.00
C114   C     0.94843   0.74521   0.43289   0.00000  Uiso   1.00
C115   C     0.94430   0.71845   0.58486   0.00000  Uiso   1.00
H116   H     0.94866   0.88728   0.73662   0.00000  Uiso   1.00
H117   H     0.14174   0.92943   0.77769   0.00000  Uiso   1.00
H118   H     0.76151   0.93226   0.58103   0.00000  Uiso   1.00
H119   H     0.94202   0.80624   0.89730   0.00000  Uiso   1.00
H120   H     0.35678   0.96659   0.75032   0.00000  Uiso   1.00
H121   H     0.55504   0.97255   0.33567   0.00000  Uiso   1.00
H122   H     0.93566   0.70681   0.00260   0.00000  Uiso   1.00
H123   H     0.95641   0.81352   0.17512   0.00000  Uiso   1.00
H124   H     0.14992   0.85162   0.18539   0.00000  Uiso   1.00
H125   H     0.76969   0.85445   0.98873   0.00000  Uiso   1.00
H126   H     0.95020   0.72843   0.30500   0.00000  Uiso   1.00
H127   H     0.36343   0.90344   0.26958   0.00000  Uiso   1.00
H128   H     0.56167   0.90940   0.85493   0.00000  Uiso   1.00
H129   H     0.94231   0.64366   0.52186   0.00000  Uiso   1.00
O130   O     0.48724   0.96142   0.52680   0.00000  Uiso   1.00
O131   O     0.43537   0.96923   0.98281   0.00000  Uiso   1.00
O132   O     0.93475   0.62059   0.85780   0.00000  Uiso   1.00
N133   N     0.33180   0.94650   0.63579   0.00000  Uiso   1.00
N134   N     0.58223   0.95207   0.24811   0.00000  Uiso   1.00
N135   N     0.93805   0.70363   0.87162   0.00000  Uiso   1.00
N136   N     0.33538   0.91251   0.37711   0.00000  Uiso   1.00
N137   N     0.58580   0.91809   0.98943   0.00000  Uiso   1.00
N138   N     0.94162   0.66964   0.61294   0.00000  Uiso   1.00
C139   C     0.67882   0.11706   0.20108   0.00000  Uiso   1.00
C140   C     0.78211   0.10403   0.36083   0.00000  Uiso   1.00
C141   C     0.87106   0.07496   0.34971   0.00000  Uiso   1.00
C142   C     0.95761   0.06738   0.51148   0.00000  Uiso   1.00
C143   C     0.11833   0.04397   0.73419   0.00000  Uiso   1.00
C144   C     0.57547   0.10199   0.25983   0.00000  Uiso   1.00
C145   C     0.49068   0.07120   0.16377   0.00000  Uiso   1.00
C146   C     0.40328   0.06191   0.24051   0.00000  Uiso   1.00
C147   C     0.24315   0.03536   0.30634   0.00000  Uiso   1.00
C148   C     0.67582   0.17136   0.19300   0.00000  Uiso   1.00
C149   C     0.67536   0.19890   0.04073   0.00000  Uiso   1.00
C150   C     0.67241   0.24802   0.06119   0.00000  Uiso   1.00
C151   C     0.66808   0.32917   0.02326   0.00000  Uiso   1.00
C152   C     0.67436   0.15530   0.50814   0.00000  Uiso   1.00
C153   C     0.77968   0.12480   0.52762   0.00000  Uiso   1.00
C154   C     0.86613   0.11727   0.68945   0.00000  Uiso   1.00
C155   C     0.95519   0.08819   0.67857   0.00000  Uiso   1.00
C156   C     0.57305   0.12276   0.42661   0.00000  Uiso   1.00
C157   C     0.48575   0.11351   0.50350   0.00000  Uiso   1.00
C158   C     0.40085   0.08272   0.40760   0.00000  Uiso   1.00
C159   C     0.67339   0.19213   0.35979   0.00000  Uiso   1.00
C160   C     0.67043   0.24121   0.38048   0.00000  Uiso   1.00
C161   C     0.66998   0.26883   0.22828   0.00000  Uiso   1.00
H162   H     0.68070   0.10088   0.07123   0.00000  Uiso   1.00
H163   H     0.87290   0.05888   0.22062   0.00000  Uiso   1.00
H164   H     0.49257   0.05513   0.03470   0.00000  Uiso   1.00
H165   H     0.67723   0.18281   0.91169   0.00000  Uiso   1.00
H166   H     0.08490   0.02147   0.45981   0.00000  Uiso   1.00
H167   H     0.28294   0.01357   0.06776   0.00000  Uiso   1.00
H168   H     0.67232   0.28281   0.80836   0.00000  Uiso   1.00
H169   H     0.67247   0.17147   0.63800   0.00000  Uiso   1.00
H170   H     0.86423   0.13335   0.81849   0.00000  Uiso   1.00
H171   H     0.48390   0.12960   0.63257   0.00000  Uiso   1.00
H172   H     0.66856   0.25728   0.50956   0.00000  Uiso   1.00
H173   H     0.07785   0.08190   0.94507   0.00000  Uiso   1.00
H174   H     0.27589   0.07401   0.55301   0.00000  Uiso   1.00
H175   H     0.66528   0.34325   0.29362   0.00000  Uiso   1.00
O176   O     0.20765   0.02532   0.81096   0.00000  Uiso   1.00
O177   O     0.15550   0.01497   0.29658   0.00000  Uiso   1.00
O178   O     0.66637   0.36820   0.95627   0.00000  Uiso   1.00
N179   N     0.05693   0.04093   0.54924   0.00000  Uiso   1.00
N180   N     0.30716   0.03354   0.18270   0.00000  Uiso   1.00
N181   N     0.67117   0.28526   0.94018   0.00000  Uiso   1.00
N182   N     0.05315   0.07345   0.81035   0.00000  Uiso   1.00
N183   N     0.30337   0.06606   0.44382   0.00000  Uiso   1.00
N184   N     0.66739   0.31778   0.20129   0.00000  Uiso   1.00
