data_job_03173
_audit_creation_date              2018-12-19
_audit_creation_method            'Materials Studio'
_symmetry_space_group_name_H-M    'P1'
_symmetry_Int_Tables_number       1
_symmetry_cell_setting            triclinic
loop_
_symmetry_equiv_pos_as_xyz
  x,y,z
_cell_length_a                    10.8488
_cell_length_b                    22.4169
_cell_length_c                    20.6117
_cell_angle_alpha                 90.0000
_cell_angle_beta                  139.0609
_cell_angle_gamma                 90.0000
loop_
_atom_site_label
_atom_site_type_symbol
_atom_site_fract_x
_atom_site_fract_y
_atom_site_fract_z
_atom_site_U_iso_or_equiv
_atom_site_adp_type
_atom_site_occupancy
C1     C     0.28153   0.80237   0.98718   0.00000  Uiso   1.00
C2     C     0.36369   0.74935   0.98317   0.00000  Uiso   1.00
C3     C     0.28847   0.69224   0.95154   0.00000  Uiso   1.00
C4     C     0.38472   0.64995   0.95348   0.00000  Uiso   1.00
C5     C     0.48718   0.56543   0.94237   0.00000  Uiso   1.00
C6     C     0.43717   0.82449   0.09393   0.00000  Uiso   1.00
C7     C     0.42370   0.83057   0.15542   0.00000  Uiso   1.00
C8     C     0.58179   0.85154   0.25060   0.00000  Uiso   1.00
C9     C     0.79827   0.88371   0.41143   0.00000  Uiso   1.00
C10    C     0.25254   0.85139   0.92534   0.00000  Uiso   1.00
C11    C     0.08385   0.88010   0.84510   0.00000  Uiso   1.00
C12    C     0.08651   0.92373   0.79835   0.00000  Uiso   1.00
C13    C     0.01632   0.99768   0.69742   0.00000  Uiso   1.00
C14    C     0.58622   0.82881   0.04686   0.00000  Uiso   1.00
C15    C     0.52920   0.76371   0.01559   0.00000  Uiso   1.00
C16    C     0.62558   0.72150   0.01758   0.00000  Uiso   1.00
C17    C     0.55051   0.66434   0.98596   0.00000  Uiso   1.00
C18    C     0.60266   0.83885   0.12635   0.00000  Uiso   1.00
C19    C     0.76081   0.85982   0.22146   0.00000  Uiso   1.00
C20    C     0.74759   0.86592   0.28308   0.00000  Uiso   1.00
C21    C     0.41804   0.86575   0.95776   0.00000  Uiso   1.00
C22    C     0.42096   0.90935   0.91113   0.00000  Uiso   1.00
C23    C     0.25231   0.93812   0.83083   0.00000  Uiso   1.00
H24    H     0.15269   0.79119   0.96194   0.00000  Uiso   1.00
H25    H     0.16040   0.68115   0.92646   0.00000  Uiso   1.00
H26    H     0.29560   0.81946   0.13031   0.00000  Uiso   1.00
H27    H     0.95580   0.86898   0.82003   0.00000  Uiso   1.00
H28    H     0.24197   0.56547   0.90146   0.00000  Uiso   1.00
H29    H     0.52703   0.85712   0.33127   0.00000  Uiso   1.00
H30    H     0.81050   0.96155   0.67699   0.00000  Uiso   1.00
H31    H     0.71508   0.83999   0.07211   0.00000  Uiso   1.00
H32    H     0.75365   0.73262   0.04267   0.00000  Uiso   1.00
H33    H     0.88885   0.87093   0.24652   0.00000  Uiso   1.00
H34    H     0.54906   0.92045   0.93624   0.00000  Uiso   1.00
H35    H     0.72349   0.60725   0.99579   0.00000  Uiso   1.00
H36    H     0.00854   0.89890   0.42560   0.00000  Uiso   1.00
H37    H     0.29201   0.00333   0.77131   0.00000  Uiso   1.00
O38    O     0.49799   0.51484   0.92730   0.00000  Uiso   1.00
O39    O     0.87195   0.89748   0.49119   0.00000  Uiso   1.00
O40    O     0.93189   0.03449   0.63278   0.00000  Uiso   1.00
N41    N     0.34998   0.59004   0.92768   0.00000  Uiso   1.00
N42    N     0.61650   0.86271   0.32954   0.00000  Uiso   1.00
N43    N     0.94662   0.96035   0.71785   0.00000  Uiso   1.00
N44    N     0.60908   0.61252   0.97844   0.00000  Uiso   1.00
N45    N     0.87560   0.88518   0.38029   0.00000  Uiso   1.00
N46    N     0.20572   0.98283   0.76860   0.00000  Uiso   1.00
C47    C     0.71847   0.30237   0.51282   0.00000  Uiso   1.00
C48    C     0.63631   0.24935   0.51683   0.00000  Uiso   1.00
C49    C     0.71153   0.19224   0.54846   0.00000  Uiso   1.00
C50    C     0.61528   0.14995   0.54652   0.00000  Uiso   1.00
C51    C     0.51282   0.06543   0.55763   0.00000  Uiso   1.00
C52    C     0.56283   0.32449   0.40607   0.00000  Uiso   1.00
C53    C     0.57630   0.33057   0.34458   0.00000  Uiso   1.00
C54    C     0.41821   0.35154   0.24940   0.00000  Uiso   1.00
C55    C     0.20173   0.38371   0.08857   0.00000  Uiso   1.00
C56    C     0.74746   0.35139   0.57466   0.00000  Uiso   1.00
C57    C     0.91615   0.38010   0.65490   0.00000  Uiso   1.00
C58    C     0.91349   0.42373   0.70165   0.00000  Uiso   1.00
C59    C     0.98368   0.49768   0.80258   0.00000  Uiso   1.00
C60    C     0.41378   0.32881   0.45314   0.00000  Uiso   1.00
C61    C     0.47080   0.26371   0.48441   0.00000  Uiso   1.00
C62    C     0.37442   0.22150   0.48242   0.00000  Uiso   1.00
C63    C     0.44949   0.16434   0.51404   0.00000  Uiso   1.00
C64    C     0.39734   0.33885   0.37365   0.00000  Uiso   1.00
C65    C     0.23919   0.35982   0.27854   0.00000  Uiso   1.00
C66    C     0.25241   0.36592   0.21692   0.00000  Uiso   1.00
C67    C     0.58196   0.36575   0.54224   0.00000  Uiso   1.00
C68    C     0.57904   0.40935   0.58887   0.00000  Uiso   1.00
C69    C     0.74769   0.43812   0.66917   0.00000  Uiso   1.00
H70    H     0.84731   0.29119   0.53806   0.00000  Uiso   1.00
H71    H     0.83960   0.18115   0.57354   0.00000  Uiso   1.00
H72    H     0.70440   0.31946   0.36969   0.00000  Uiso   1.00
H73    H     0.04420   0.36898   0.67997   0.00000  Uiso   1.00
H74    H     0.75803   0.06547   0.59854   0.00000  Uiso   1.00
H75    H     0.47297   0.35712   0.16873   0.00000  Uiso   1.00
H76    H     0.18950   0.46155   0.82301   0.00000  Uiso   1.00
H77    H     0.28492   0.33999   0.42789   0.00000  Uiso   1.00
H78    H     0.24635   0.23262   0.45733   0.00000  Uiso   1.00
H79    H     0.11115   0.37093   0.25348   0.00000  Uiso   1.00
H80    H     0.45094   0.42045   0.56376   0.00000  Uiso   1.00
H81    H     0.27651   0.10725   0.50421   0.00000  Uiso   1.00
H82    H     0.99146   0.39890   0.07440   0.00000  Uiso   1.00
H83    H     0.70799   0.50333   0.72869   0.00000  Uiso   1.00
O84    O     0.50201   0.01484   0.57270   0.00000  Uiso   1.00
O85    O     0.12805   0.39748   0.00881   0.00000  Uiso   1.00
O86    O     0.06811   0.53449   0.86722   0.00000  Uiso   1.00
N87    N     0.65002   0.09004   0.57232   0.00000  Uiso   1.00
N88    N     0.38350   0.36271   0.17046   0.00000  Uiso   1.00
N89    N     0.05338   0.46035   0.78215   0.00000  Uiso   1.00
N90    N     0.39092   0.11252   0.52156   0.00000  Uiso   1.00
N91    N     0.12440   0.38518   0.11971   0.00000  Uiso   1.00
N92    N     0.79428   0.48283   0.73140   0.00000  Uiso   1.00
C93    C     0.71847   0.19763   0.01282   0.00000  Uiso   1.00
C94    C     0.63631   0.25065   0.01683   0.00000  Uiso   1.00
C95    C     0.71153   0.30776   0.04846   0.00000  Uiso   1.00
C96    C     0.61528   0.35005   0.04652   0.00000  Uiso   1.00
C97    C     0.51282   0.43457   0.05763   0.00000  Uiso   1.00
C98    C     0.56283   0.17551   0.90607   0.00000  Uiso   1.00
C99    C     0.57630   0.16943   0.84458   0.00000  Uiso   1.00
C100   C     0.41821   0.14846   0.74940   0.00000  Uiso   1.00
C101   C     0.20173   0.11629   0.58857   0.00000  Uiso   1.00
C102   C     0.74746   0.14861   0.07466   0.00000  Uiso   1.00
C103   C     0.91615   0.11990   0.15490   0.00000  Uiso   1.00
C104   C     0.91349   0.07627   0.20165   0.00000  Uiso   1.00
C105   C     0.98368   0.00232   0.30258   0.00000  Uiso   1.00
C106   C     0.41378   0.17119   0.95314   0.00000  Uiso   1.00
C107   C     0.47080   0.23629   0.98441   0.00000  Uiso   1.00
C108   C     0.37442   0.27850   0.98242   0.00000  Uiso   1.00
C109   C     0.44949   0.33566   0.01404   0.00000  Uiso   1.00
C110   C     0.39734   0.16115   0.87365   0.00000  Uiso   1.00
C111   C     0.23919   0.14018   0.77854   0.00000  Uiso   1.00
C112   C     0.25241   0.13408   0.71692   0.00000  Uiso   1.00
C113   C     0.58196   0.13425   0.04224   0.00000  Uiso   1.00
C114   C     0.57904   0.09065   0.08887   0.00000  Uiso   1.00
C115   C     0.74769   0.06188   0.16917   0.00000  Uiso   1.00
H116   H     0.84731   0.20881   0.03806   0.00000  Uiso   1.00
H117   H     0.83960   0.31885   0.07354   0.00000  Uiso   1.00
H118   H     0.70440   0.18054   0.86969   0.00000  Uiso   1.00
H119   H     0.04420   0.13102   0.17997   0.00000  Uiso   1.00
H120   H     0.75803   0.43453   0.09854   0.00000  Uiso   1.00
H121   H     0.47297   0.14288   0.66873   0.00000  Uiso   1.00
H122   H     0.18950   0.03845   0.32301   0.00000  Uiso   1.00
H123   H     0.28492   0.16001   0.92789   0.00000  Uiso   1.00
H124   H     0.24635   0.26738   0.95733   0.00000  Uiso   1.00
H125   H     0.11115   0.12907   0.75348   0.00000  Uiso   1.00
H126   H     0.45094   0.07955   0.06376   0.00000  Uiso   1.00
H127   H     0.27651   0.39275   0.00421   0.00000  Uiso   1.00
H128   H     0.99146   0.10110   0.57440   0.00000  Uiso   1.00
H129   H     0.70799   0.99667   0.22869   0.00000  Uiso   1.00
O130   O     0.50201   0.48516   0.07270   0.00000  Uiso   1.00
O131   O     0.12805   0.10252   0.50881   0.00000  Uiso   1.00
O132   O     0.06811   0.96551   0.36722   0.00000  Uiso   1.00
N133   N     0.65002   0.40996   0.07232   0.00000  Uiso   1.00
N134   N     0.38350   0.13729   0.67046   0.00000  Uiso   1.00
N135   N     0.05338   0.03965   0.28215   0.00000  Uiso   1.00
N136   N     0.39092   0.38748   0.02156   0.00000  Uiso   1.00
N137   N     0.12440   0.11482   0.61971   0.00000  Uiso   1.00
N138   N     0.79428   0.01717   0.23140   0.00000  Uiso   1.00
C139   C     0.28153   0.69763   0.48718   0.00000  Uiso   1.00
C140   C     0.36369   0.75065   0.48317   0.00000  Uiso   1.00
C141   C     0.28847   0.80776   0.45154   0.00000  Uiso   1.00
C142   C     0.38472   0.85005   0.45348   0.00000  Uiso   1.00
C143   C     0.48718   0.93457   0.44237   0.00000  Uiso   1.00
C144   C     0.43717   0.67551   0.59393   0.00000  Uiso   1.00
C145   C     0.42370   0.66943   0.65542   0.00000  Uiso   1.00
C146   C     0.58179   0.64846   0.75060   0.00000  Uiso   1.00
C147   C     0.79827   0.61629   0.91143   0.00000  Uiso   1.00
C148   C     0.25254   0.64861   0.42534   0.00000  Uiso   1.00
C149   C     0.08385   0.61990   0.34510   0.00000  Uiso   1.00
C150   C     0.08651   0.57627   0.29835   0.00000  Uiso   1.00
C151   C     0.01632   0.50232   0.19742   0.00000  Uiso   1.00
C152   C     0.58622   0.67119   0.54686   0.00000  Uiso   1.00
C153   C     0.52920   0.73629   0.51559   0.00000  Uiso   1.00
C154   C     0.62558   0.77850   0.51758   0.00000  Uiso   1.00
C155   C     0.55051   0.83566   0.48596   0.00000  Uiso   1.00
C156   C     0.60266   0.66115   0.62635   0.00000  Uiso   1.00
C157   C     0.76081   0.64018   0.72146   0.00000  Uiso   1.00
C158   C     0.74759   0.63408   0.78308   0.00000  Uiso   1.00
C159   C     0.41804   0.63425   0.45776   0.00000  Uiso   1.00
C160   C     0.42096   0.59065   0.41113   0.00000  Uiso   1.00
C161   C     0.25231   0.56188   0.33083   0.00000  Uiso   1.00
H162   H     0.15269   0.70881   0.46194   0.00000  Uiso   1.00
H163   H     0.16040   0.81885   0.42646   0.00000  Uiso   1.00
H164   H     0.29560   0.68054   0.63031   0.00000  Uiso   1.00
H165   H     0.95580   0.63102   0.32003   0.00000  Uiso   1.00
H166   H     0.24197   0.93453   0.40146   0.00000  Uiso   1.00
H167   H     0.52703   0.64288   0.83127   0.00000  Uiso   1.00
H168   H     0.81050   0.53845   0.17699   0.00000  Uiso   1.00
H169   H     0.71508   0.66001   0.57211   0.00000  Uiso   1.00
H170   H     0.75365   0.76738   0.54267   0.00000  Uiso   1.00
H171   H     0.88885   0.62907   0.74652   0.00000  Uiso   1.00
H172   H     0.54906   0.57955   0.43624   0.00000  Uiso   1.00
H173   H     0.72349   0.89275   0.49579   0.00000  Uiso   1.00
H174   H     0.00854   0.60110   0.92560   0.00000  Uiso   1.00
H175   H     0.29201   0.49667   0.27131   0.00000  Uiso   1.00
O176   O     0.49799   0.98516   0.42730   0.00000  Uiso   1.00
O177   O     0.87195   0.60252   0.99119   0.00000  Uiso   1.00
O178   O     0.93189   0.46551   0.13278   0.00000  Uiso   1.00
N179   N     0.34998   0.90996   0.42768   0.00000  Uiso   1.00
N180   N     0.61650   0.63729   0.82954   0.00000  Uiso   1.00
N181   N     0.94662   0.53965   0.21785   0.00000  Uiso   1.00
N182   N     0.60908   0.88748   0.47844   0.00000  Uiso   1.00
N183   N     0.87560   0.61482   0.88029   0.00000  Uiso   1.00
N184   N     0.20572   0.51717   0.26860   0.00000  Uiso   1.00
