data_job_06672
_audit_creation_date              2018-12-19
_audit_creation_method            'Materials Studio'
_symmetry_space_group_name_H-M    'P1'
_symmetry_Int_Tables_number       1
_symmetry_cell_setting            triclinic
loop_
_symmetry_equiv_pos_as_xyz
  x,y,z
_cell_length_a                    21.5235
_cell_length_b                    20.0766
_cell_length_c                    23.1183
_cell_angle_alpha                 103.5450
_cell_angle_beta                  108.8260
_cell_angle_gamma                 109.8200
loop_
_atom_site_label
_atom_site_type_symbol
_atom_site_fract_x
_atom_site_fract_y
_atom_site_fract_z
_atom_site_U_iso_or_equiv
_atom_site_adp_type
_atom_site_occupancy
C1     C     0.50412   0.43943   0.85448   0.00000  Uiso   1.00
C2     C     0.47271   0.42465   0.78088   0.00000  Uiso   1.00
C3     C     0.40455   0.36698   0.73252   0.00000  Uiso   1.00
C4     C     0.38593   0.36302   0.66802   0.00000  Uiso   1.00
C5     C     0.32989   0.33216   0.55609   0.00000  Uiso   1.00
C6     C     0.57758   0.43657   0.87227   0.00000  Uiso   1.00
C7     C     0.59760   0.38892   0.90076   0.00000  Uiso   1.00
C8     C     0.66728   0.39499   0.91320   0.00000  Uiso   1.00
C9     C     0.77407   0.38267   0.94319   0.00000  Uiso   1.00
C10    C     0.52249   0.52251   0.89072   0.00000  Uiso   1.00
C11    C     0.49619   0.54714   0.93474   0.00000  Uiso   1.00
C12    C     0.51949   0.62557   0.96273   0.00000  Uiso   1.00
C13    C     0.54074   0.74670   0.02137   0.00000  Uiso   1.00
C14    C     0.59227   0.53495   0.82592   0.00000  Uiso   1.00
C15    C     0.52059   0.47654   0.76537   0.00000  Uiso   1.00
C16    C     0.50207   0.47266   0.70092   0.00000  Uiso   1.00
C17    C     0.43390   0.41500   0.65248   0.00000  Uiso   1.00
C18    C     0.62546   0.48845   0.85675   0.00000  Uiso   1.00
C19    C     0.69513   0.49460   0.86916   0.00000  Uiso   1.00
C20    C     0.71524   0.44697   0.89765   0.00000  Uiso   1.00
C21    C     0.57036   0.57440   0.87520   0.00000  Uiso   1.00
C22    C     0.59372   0.65281   0.90313   0.00000  Uiso   1.00
C23    C     0.56746   0.67755   0.94718   0.00000  Uiso   1.00
H24    H     0.46685   0.39903   0.86656   0.00000  Uiso   1.00
H25    H     0.36751   0.32684   0.74455   0.00000  Uiso   1.00
H26    H     0.56054   0.34878   0.91276   0.00000  Uiso   1.00
H27    H     0.45914   0.50697   0.94673   0.00000  Uiso   1.00
H28    H     0.27851   0.26966   0.60243   0.00000  Uiso   1.00
H29    H     0.68552   0.31594   0.95714   0.00000  Uiso   1.00
H30    H     0.47171   0.64952   0.02878   0.00000  Uiso   1.00
H31    H     0.62955   0.57534   0.81384   0.00000  Uiso   1.00
H32    H     0.53914   0.51282   0.68893   0.00000  Uiso   1.00
H33    H     0.73216   0.53476   0.85715   0.00000  Uiso   1.00
H34    H     0.63077   0.69295   0.89112   0.00000  Uiso   1.00
H35    H     0.41780   0.42061   0.55729   0.00000  Uiso   1.00
H36    H     0.82482   0.46689   0.91201   0.00000  Uiso   1.00
H37    H     0.61101   0.80046   0.98364   0.00000  Uiso   1.00
O38    O     0.28575   0.30081   0.49864   0.00000  Uiso   1.00
O39    O     0.81975   0.36154   0.96402   0.00000  Uiso   1.00
O40    O     0.53922   0.79918   0.05800   0.00000  Uiso   1.00
N41    N     0.32369   0.31377   0.60895   0.00000  Uiso   1.00
N42    N     0.70422   0.35703   0.94058   0.00000  Uiso   1.00
N43    N     0.50434   0.66890   0.00756   0.00000  Uiso   1.00
N44    N     0.39865   0.39500   0.58466   0.00000  Uiso   1.00
N45    N     0.77918   0.43826   0.91629   0.00000  Uiso   1.00
N46    N     0.57929   0.75013   0.98327   0.00000  Uiso   1.00
C47    C     0.82787   0.54549   0.53507   0.00000  Uiso   1.00
C48    C     0.76408   0.55159   0.54721   0.00000  Uiso   1.00
C49    C     0.69127   0.49609   0.51354   0.00000  Uiso   1.00
C50    C     0.64116   0.51259   0.53198   0.00000  Uiso   1.00
C51    C     0.53876   0.51149   0.54316   0.00000  Uiso   1.00
C52    C     0.86271   0.61509   0.51992   0.00000  Uiso   1.00
C53    C     0.87282   0.61297   0.46331   0.00000  Uiso   1.00
C54    C     0.90574   0.68293   0.45878   0.00000  Uiso   1.00
C55    C     0.95650   0.78042   0.42760   0.00000  Uiso   1.00
C56    C     0.88458   0.55752   0.60154   0.00000  Uiso   1.00
C57    C     0.91310   0.50702   0.61356   0.00000  Uiso   1.00
C58    C     0.96445   0.52853   0.67775   0.00000  Uiso   1.00
C59    C     0.04917   0.53664   0.77331   0.00000  Uiso   1.00
C60    C     0.86837   0.67349   0.62768   0.00000  Uiso   1.00
C61    C     0.78608   0.62112   0.59751   0.00000  Uiso   1.00
C62    C     0.73607   0.63771   0.61601   0.00000  Uiso   1.00
C63    C     0.66319   0.58224   0.58238   0.00000  Uiso   1.00
C64    C     0.88470   0.68461   0.57022   0.00000  Uiso   1.00
C65    C     0.91762   0.75459   0.56577   0.00000  Uiso   1.00
C66    C     0.92778   0.75258   0.50917   0.00000  Uiso   1.00
C67    C     0.90657   0.62705   0.65185   0.00000  Uiso   1.00
C68    C     0.95789   0.64864   0.71603   0.00000  Uiso   1.00
C69    C     0.98648   0.59818   0.72815   0.00000  Uiso   1.00
H70    H     0.81075   0.49137   0.49590   0.00000  Uiso   1.00
H71    H     0.67427   0.44229   0.47461   0.00000  Uiso   1.00
H72    H     0.85580   0.55916   0.42439   0.00000  Uiso   1.00
H73    H     0.89606   0.45322   0.57462   0.00000  Uiso   1.00
H74    H     0.53264   0.41855   0.47317   0.00000  Uiso   1.00
H75    H     0.91544   0.66498   0.36728   0.00000  Uiso   1.00
H76    H     0.00035   0.44159   0.68408   0.00000  Uiso   1.00
H77    H     0.88549   0.72763   0.66685   0.00000  Uiso   1.00
H78    H     0.75310   0.69151   0.65494   0.00000  Uiso   1.00
H79    H     0.93464   0.80838   0.60472   0.00000  Uiso   1.00
H80    H     0.97490   0.70245   0.75495   0.00000  Uiso   1.00
H81    H     0.59663   0.62084   0.61954   0.00000  Uiso   1.00
H82    H     0.97943   0.86726   0.51365   0.00000  Uiso   1.00
H83    H     0.06434   0.64387   0.83044   0.00000  Uiso   1.00
O84    O     0.47620   0.49169   0.53542   0.00000  Uiso   1.00
O85    O     0.97842   0.81499   0.39650   0.00000  Uiso   1.00
O86    O     0.08982   0.52191   0.81213   0.00000  Uiso   1.00
N87    N     0.56587   0.47111   0.50926   0.00000  Uiso   1.00
N88    N     0.92375   0.70150   0.41026   0.00000  Uiso   1.00
N89    N     0.00315   0.49266   0.70643   0.00000  Uiso   1.00
N90    N     0.60030   0.57996   0.58802   0.00000  Uiso   1.00
N91    N     0.95818   0.81035   0.48901   0.00000  Uiso   1.00
N92    N     0.03758   0.60151   0.78519   0.00000  Uiso   1.00
C93    C     0.52695   0.90601   0.59050   0.00000  Uiso   1.00
C94    C     0.47312   0.82125   0.55081   0.00000  Uiso   1.00
C95    C     0.39887   0.79205   0.50960   0.00000  Uiso   1.00
C96    C     0.35899   0.71280   0.47767   0.00000  Uiso   1.00
C97    C     0.27035   0.58853   0.41470   0.00000  Uiso   1.00
C98    C     0.56065   0.91483   0.66252   0.00000  Uiso   1.00
C99    C     0.55998   0.96431   0.71524   0.00000  Uiso   1.00
C100   C     0.59379   0.96384   0.77735   0.00000  Uiso   1.00
C101   C     0.64108   0.98488   0.88783   0.00000  Uiso   1.00
C102   C     0.58903   0.92111   0.56951   0.00000  Uiso   1.00
C103   C     0.61225   0.97589   0.54405   0.00000  Uiso   1.00
C104   C     0.66996   0.98072   0.52786   0.00000  Uiso   1.00
C105   C     0.76131   0.01152   0.49392   0.00000  Uiso   1.00
C106   C     0.58817   0.81723   0.60705   0.00000  Uiso   1.00
C107   C     0.50638   0.77303   0.55980   0.00000  Uiso   1.00
C108   C     0.46661   0.69381   0.52792   0.00000  Uiso   1.00
C109   C     0.39230   0.66449   0.48668   0.00000  Uiso   1.00
C110   C     0.59390   0.86661   0.67152   0.00000  Uiso   1.00
C111   C     0.62772   0.86607   0.73356   0.00000  Uiso   1.00
C112   C     0.62711   0.91553   0.78636   0.00000  Uiso   1.00
C113   C     0.62228   0.87289   0.57850   0.00000  Uiso   1.00
C114   C     0.67998   0.87765   0.56236   0.00000  Uiso   1.00
C115   C     0.70328   0.93241   0.53687   0.00000  Uiso   1.00
H116   H     0.50106   0.94356   0.58350   0.00000  Uiso   1.00
H117   H     0.37315   0.82939   0.50266   0.00000  Uiso   1.00
H118   H     0.53425   0.00162   0.70827   0.00000  Uiso   1.00
H119   H     0.58650   0.01319   0.53709   0.00000  Uiso   1.00
H120   H     0.24600   0.68153   0.41702   0.00000  Uiso   1.00
H121   H     0.58571   0.04472   0.85056   0.00000  Uiso   1.00
H122   H     0.69589   0.06913   0.48961   0.00000  Uiso   1.00
H123   H     0.61407   0.77968   0.61406   0.00000  Uiso   1.00
H124   H     0.49236   0.65651   0.53489   0.00000  Uiso   1.00
H125   H     0.65346   0.82875   0.74050   0.00000  Uiso   1.00
H126   H     0.70570   0.84032   0.56933   0.00000  Uiso   1.00
H127   H     0.34275   0.54122   0.44319   0.00000  Uiso   1.00
H128   H     0.68246   0.90441   0.87673   0.00000  Uiso   1.00
H129   H     0.79264   0.92881   0.51577   0.00000  Uiso   1.00
O130   O     0.21227   0.53330   0.37749   0.00000  Uiso   1.00
O131   O     0.65797   0.00981   0.94628   0.00000  Uiso   1.00
O132   O     0.80251   0.04182   0.47271   0.00000  Uiso   1.00
N133   N     0.28548   0.66541   0.43403   0.00000  Uiso   1.00
N134   N     0.60308   0.00497   0.83937   0.00000  Uiso   1.00
N135   N     0.70609   0.02780   0.50192   0.00000  Uiso   1.00
N136   N     0.33754   0.58991   0.44811   0.00000  Uiso   1.00
N137   N     0.65514   0.92946   0.85344   0.00000  Uiso   1.00
N138   N     0.75816   0.95229   0.51600   0.00000  Uiso   1.00
C139   C     0.99344   0.21811   0.91873   0.00000  Uiso   1.00
C140   C     0.96141   0.13300   0.90659   0.00000  Uiso   1.00
C141   C     0.89901   0.07484   0.85148   0.00000  Uiso   1.00
C142   C     0.87871   0.00067   0.84967   0.00000  Uiso   1.00
C143   C     0.82281   0.87085   0.82297   0.00000  Uiso   1.00
C144   C     0.07285   0.24261   0.92938   0.00000  Uiso   1.00
C145   C     0.10414   0.27662   0.89342   0.00000  Uiso   1.00
C146   C     0.17765   0.29474   0.91081   0.00000  Uiso   1.00
C147   C     0.29477   0.33514   0.91951   0.00000  Uiso   1.00
C148   C     0.99739   0.25934   0.98519   0.00000  Uiso   1.00
C149   C     0.96525   0.30742   0.99618   0.00000  Uiso   1.00
C150   C     0.97524   0.33963   0.06055   0.00000  Uiso   1.00
C151   C     0.97520   0.40600   0.15592   0.00000  Uiso   1.00
C152   C     0.06833   0.18983   0.01353   0.00000  Uiso   1.00
C153   C     0.00209   0.11764   0.95809   0.00000  Uiso   1.00
C154   C     0.98187   0.04354   0.95636   0.00000  Uiso   1.00
C155   C     0.91945   0.98528   0.90125   0.00000  Uiso   1.00
C156   C     0.11352   0.22725   0.98087   0.00000  Uiso   1.00
C157   C     0.18700   0.24533   0.99831   0.00000  Uiso   1.00
C158   C     0.21840   0.27935   0.96239   0.00000  Uiso   1.00
C159   C     0.03806   0.24397   0.03669   0.00000  Uiso   1.00
C160   C     0.04811   0.27612   0.10106   0.00000  Uiso   1.00
C161   C     0.01599   0.32424   0.11214   0.00000  Uiso   1.00
H162   H     0.96177   0.23008   0.87865   0.00000  Uiso   1.00
H163   H     0.86755   0.08675   0.81163   0.00000  Uiso   1.00
H164   H     0.07265   0.28851   0.85358   0.00000  Uiso   1.00
H165   H     0.93378   0.31930   0.95632   0.00000  Uiso   1.00
H166   H     0.78105   0.92107   0.76004   0.00000  Uiso   1.00
H167   H     0.21352   0.34651   0.84850   0.00000  Uiso   1.00
H168   H     0.92068   0.41144   0.06514   0.00000  Uiso   1.00
H169   H     0.10000   0.17787   0.05362   0.00000  Uiso   1.00
H170   H     0.01336   0.03167   0.99622   0.00000  Uiso   1.00
H171   H     0.21846   0.23343   0.03816   0.00000  Uiso   1.00
H172   H     0.07959   0.26422   0.14089   0.00000  Uiso   1.00
H173   H     0.89939   0.87637   0.90985   0.00000  Uiso   1.00
H174   H     0.33187   0.30182   0.99831   0.00000  Uiso   1.00
H175   H     0.03902   0.36673   0.21495   0.00000  Uiso   1.00
O176   O     0.78075   0.80349   0.79401   0.00000  Uiso   1.00
O177   O     0.34813   0.36167   0.91008   0.00000  Uiso   1.00
O178   O     0.96393   0.44684   0.19430   0.00000  Uiso   1.00
N179   N     0.82078   0.93061   0.80318   0.00000  Uiso   1.00
N180   N     0.22511   0.32837   0.88588   0.00000  Uiso   1.00
N181   N     0.95135   0.38908   0.08842   0.00000  Uiso   1.00
N182   N     0.88446   0.90656   0.88379   0.00000  Uiso   1.00
N183   N     0.28879   0.30431   0.96650   0.00000  Uiso   1.00
N184   N     0.01503   0.36503   0.16903   0.00000  Uiso   1.00
C185   C     0.48738   0.96578   0.09688   0.00000  Uiso   1.00
C186   C     0.40381   0.93007   0.06005   0.00000  Uiso   1.00
C187   C     0.35744   0.85366   0.01842   0.00000  Uiso   1.00
C188   C     0.28260   0.83229   0.98943   0.00000  Uiso   1.00
C189   C     0.15701   0.76875   0.93041   0.00000  Uiso   1.00
C190   C     0.50683   0.00244   0.16999   0.00000  Uiso   1.00
C191   C     0.54708   0.98688   0.22079   0.00000  Uiso   1.00
C192   C     0.55897   0.02644   0.28435   0.00000  Uiso   1.00
C193   C     0.59336   0.07529   0.39601   0.00000  Uiso   1.00
C194   C     0.51694   0.03193   0.07604   0.00000  Uiso   1.00
C195   C     0.56570   0.04119   0.04787   0.00000  Uiso   1.00
C196   C     0.58612   0.10559   0.03234   0.00000  Uiso   1.00
C197   C     0.63620   0.20024   0.99814   0.00000  Uiso   1.00
C198   C     0.43694   0.06371   0.11941   0.00000  Uiso   1.00
C199   C     0.37642   0.98326   0.07229   0.00000  Uiso   1.00
C200   C     0.30163   0.96200   0.04335   0.00000  Uiso   1.00
C201   C     0.25516   0.88558   0.00169   0.00000  Uiso   1.00
C202   C     0.47943   0.05563   0.18223   0.00000  Uiso   1.00
C203   C     0.49128   0.09523   0.24572   0.00000  Uiso   1.00
C204   C     0.53153   0.07973   0.29661   0.00000  Uiso   1.00
C205   C     0.48954   0.08512   0.08828   0.00000  Uiso   1.00
C206   C     0.50990   0.14953   0.07280   0.00000  Uiso   1.00
C207   C     0.55868   0.15888   0.04460   0.00000  Uiso   1.00
H208   H     0.50871   0.92437   0.08736   0.00000  Uiso   1.00
H209   H     0.37866   0.81252   0.00897   0.00000  Uiso   1.00
H210   H     0.56828   0.94572   0.21131   0.00000  Uiso   1.00
H211   H     0.58689   0.00002   0.03841   0.00000  Uiso   1.00
H212   H     0.22239   0.71195   0.92748   0.00000  Uiso   1.00
H213   H     0.62223   0.99285   0.35412   0.00000  Uiso   1.00
H214   H     0.66149   0.10734   0.98953   0.00000  Uiso   1.00
H215   H     0.41562   0.10512   0.12894   0.00000  Uiso   1.00
H216   H     0.28045   0.00318   0.05283   0.00000  Uiso   1.00
H217   H     0.47007   0.13638   0.25517   0.00000  Uiso   1.00
H218   H     0.48868   0.19068   0.08227   0.00000  Uiso   1.00
H219   H     0.14268   0.86670   0.96309   0.00000  Uiso   1.00
H220   H     0.54252   0.14760   0.38973   0.00000  Uiso   1.00
H221   H     0.58178   0.26209   0.02514   0.00000  Uiso   1.00
O222   O     0.09530   0.71900   0.89449   0.00000  Uiso   1.00
O223   O     0.61988   0.08753   0.45422   0.00000  Uiso   1.00
O224   O     0.67139   0.23774   0.97589   0.00000  Uiso   1.00
N225   N     0.22218   0.76237   0.94630   0.00000  Uiso   1.00
N226   N     0.59600   0.02498   0.34518   0.00000  Uiso   1.00
N227   N     0.63272   0.13203   0.00433   0.00000  Uiso   1.00
N228   N     0.17929   0.84563   0.96545   0.00000  Uiso   1.00
N229   N     0.55311   0.10825   0.36434   0.00000  Uiso   1.00
N230   N     0.58982   0.21530   0.02349   0.00000  Uiso   1.00
C231   C     0.03577   0.99510   0.40965   0.00000  Uiso   1.00
C232   C     0.04739   0.98556   0.34712   0.00000  Uiso   1.00
C233   C     0.00980   0.91913   0.29014   0.00000  Uiso   1.00
C234   C     0.02845   0.92206   0.23831   0.00000  Uiso   1.00
C235   C     0.03822   0.89707   0.14044   0.00000  Uiso   1.00
C236   C     0.01774   0.06277   0.42202   0.00000  Uiso   1.00
C237   C     0.95522   0.06126   0.42802   0.00000  Uiso   1.00
C238   C     0.94892   0.12919   0.43926   0.00000  Uiso   1.00
C239   C     0.91267   0.22409   0.45771   0.00000  Uiso   1.00
C240   C     0.11069   0.02147   0.46617   0.00000  Uiso   1.00
C241   C     0.12632   0.98525   0.50932   0.00000  Uiso   1.00
C242   C     0.19828   0.01842   0.55775   0.00000  Uiso   1.00
C243   C     0.30635   0.04920   0.64476   0.00000  Uiso   1.00
C244   C     0.13576   0.11842   0.41893   0.00000  Uiso   1.00
C245   C     0.10171   0.05255   0.35216   0.00000  Uiso   1.00
C246   C     0.12043   0.05557   0.30041   0.00000  Uiso   1.00
C247   C     0.08287   0.98916   0.24337   0.00000  Uiso   1.00
C248   C     0.07205   0.12975   0.42706   0.00000  Uiso   1.00
C249   C     0.06585   0.19770   0.43829   0.00000  Uiso   1.00
C250   C     0.00333   0.19629   0.44431   0.00000  Uiso   1.00
C251   C     0.16501   0.08846   0.47122   0.00000  Uiso   1.00
C252   C     0.23695   0.12169   0.51959   0.00000  Uiso   1.00
C253   C     0.25269   0.08553   0.56280   0.00000  Uiso   1.00
H254   H     0.99348   0.94295   0.40572   0.00000  Uiso   1.00
H255   H     0.96776   0.86731   0.28625   0.00000  Uiso   1.00
H256   H     0.91320   0.00942   0.42412   0.00000  Uiso   1.00
H257   H     0.08428   0.93342   0.50540   0.00000  Uiso   1.00
H258   H     0.96318   0.81299   0.15601   0.00000  Uiso   1.00
H259   H     0.84814   0.11264   0.44674   0.00000  Uiso   1.00
H260   H     0.20889   0.95239   0.61814   0.00000  Uiso   1.00
H261   H     0.17805   0.17057   0.42286   0.00000  Uiso   1.00
H262   H     0.16246   0.10742   0.30433   0.00000  Uiso   1.00
H263   H     0.10789   0.24953   0.44220   0.00000  Uiso   1.00
H264   H     0.27897   0.17353   0.52348   0.00000  Uiso   1.00
H265   H     0.12120   0.00787   0.17068   0.00000  Uiso   1.00
H266   H     0.00616   0.30753   0.46141   0.00000  Uiso   1.00
H267   H     0.36691   0.14727   0.63281   0.00000  Uiso   1.00
O268   O     0.02859   0.86479   0.08505   0.00000  Uiso   1.00
O269   O     0.87767   0.25792   0.46649   0.00000  Uiso   1.00
O270   O     0.35096   0.04767   0.69136   0.00000  Uiso   1.00
N271   N     0.00252   0.86752   0.17574   0.00000  Uiso   1.00
N272   N     0.89496   0.14767   0.44754   0.00000  Uiso   1.00
N273   N     0.23222   0.99786   0.60779   0.00000  Uiso   1.00
N274   N     0.08755   0.97238   0.18363   0.00000  Uiso   1.00
N275   N     0.97999   0.25254   0.45543   0.00000  Uiso   1.00
N276   N     0.31725   0.10272   0.61569   0.00000  Uiso   1.00
C277   C     0.61521   0.53234   0.22917   0.00000  Uiso   1.00
C278   C     0.65485   0.59192   0.29993   0.00000  Uiso   1.00
C279   C     0.70562   0.66766   0.32103   0.00000  Uiso   1.00
C280   C     0.73571   0.71302   0.38780   0.00000  Uiso   1.00
C281   C     0.80029   0.81003   0.49096   0.00000  Uiso   1.00
C282   C     0.53325   0.50274   0.21025   0.00000  Uiso   1.00
C283   C     0.48178   0.50349   0.15594   0.00000  Uiso   1.00
C284   C     0.40952   0.47377   0.14721   0.00000  Uiso   1.00
C285   C     0.28530   0.43226   0.11112   0.00000  Uiso   1.00
C286   C     0.63228   0.46526   0.23287   0.00000  Uiso   1.00
C287   C     0.66405   0.43447   0.19757   0.00000  Uiso   1.00
C288   C     0.67513   0.37317   0.20788   0.00000  Uiso   1.00
C289   C     0.70466   0.27347   0.20691   0.00000  Uiso   1.00
C290   C     0.57838   0.47821   0.31022   0.00000  Uiso   1.00
C291   C     0.63485   0.56252   0.34395   0.00000  Uiso   1.00
C292   C     0.66488   0.60778   0.41070   0.00000  Uiso   1.00
C293   C     0.71568   0.68357   0.43190   0.00000  Uiso   1.00
C294   C     0.51325   0.47334   0.25427   0.00000  Uiso   1.00
C295   C     0.44104   0.44361   0.24561   0.00000  Uiso   1.00
C296   C     0.38948   0.44431   0.19131   0.00000  Uiso   1.00
C297   C     0.61228   0.43586   0.27689   0.00000  Uiso   1.00
C298   C     0.62331   0.37459   0.28725   0.00000  Uiso   1.00
C299   C     0.65510   0.34372   0.25198   0.00000  Uiso   1.00
H300   H     0.63077   0.55522   0.19489   0.00000  Uiso   1.00
H301   H     0.72108   0.69039   0.28695   0.00000  Uiso   1.00
H302   H     0.49728   0.52624   0.12188   0.00000  Uiso   1.00
H303   H     0.67952   0.45723   0.16351   0.00000  Uiso   1.00
H304   H     0.81235   0.82730   0.40841   0.00000  Uiso   1.00
H305   H     0.34045   0.48114   0.06035   0.00000  Uiso   1.00
H306   H     0.72474   0.33563   0.14813   0.00000  Uiso   1.00
H307   H     0.56281   0.45532   0.34449   0.00000  Uiso   1.00
H308   H     0.64939   0.58501   0.44475   0.00000  Uiso   1.00
H309   H     0.42558   0.42086   0.27969   0.00000  Uiso   1.00
H310   H     0.60782   0.35186   0.32132   0.00000  Uiso   1.00
H311   H     0.75416   0.74177   0.53649   0.00000  Uiso   1.00
H312   H     0.28226   0.39561   0.18843   0.00000  Uiso   1.00
H313   H     0.66655   0.25010   0.27621   0.00000  Uiso   1.00
O314   O     0.84142   0.87166   0.53571   0.00000  Uiso   1.00
O315   O     0.22230   0.41750   0.07905   0.00000  Uiso   1.00
O316   O     0.72649   0.22660   0.19422   0.00000  Uiso   1.00
N317   N     0.78679   0.78937   0.42480   0.00000  Uiso   1.00
N318   N     0.34559   0.46574   0.09939   0.00000  Uiso   1.00
N319   N     0.70485   0.32969   0.18144   0.00000  Uiso   1.00
N320   N     0.75548   0.74335   0.49372   0.00000  Uiso   1.00
N321   N     0.31428   0.41972   0.16831   0.00000  Uiso   1.00
N322   N     0.67354   0.28367   0.25036   0.00000  Uiso   1.00
C323   C     0.20164   0.57822   0.62955   0.00000  Uiso   1.00
C324   C     0.27295   0.58371   0.62673   0.00000  Uiso   1.00
C325   C     0.34230   0.64479   0.66704   0.00000  Uiso   1.00
C326   C     0.40057   0.63882   0.65667   0.00000  Uiso   1.00
C327   C     0.51294   0.65717   0.65976   0.00000  Uiso   1.00
C328   C     0.16841   0.50442   0.64000   0.00000  Uiso   1.00
C329   C     0.14987   0.49884   0.69146   0.00000  Uiso   1.00
C330   C     0.12014   0.42613   0.69226   0.00000  Uiso   1.00
C331   C     0.07017   0.32139   0.71592   0.00000  Uiso   1.00
C332   C     0.14996   0.56482   0.56018   0.00000  Uiso   1.00
C333   C     0.11587   0.61001   0.54453   0.00000  Uiso   1.00
C334   C     0.07059   0.58814   0.47812   0.00000  Uiso   1.00
C335   C     0.99197   0.57718   0.37785   0.00000  Uiso   1.00
C336   C     0.18181   0.45900   0.53945   0.00000  Uiso   1.00
C337   C     0.26218   0.51895   0.57779   0.00000  Uiso   1.00
C338   C     0.32036   0.51289   0.56736   0.00000  Uiso   1.00
C339   C     0.38979   0.57395   0.60765   0.00000  Uiso   1.00
C340   C     0.15765   0.43967   0.59106   0.00000  Uiso   1.00
C341   C     0.12793   0.36695   0.59178   0.00000  Uiso   1.00
C342   C     0.10935   0.36126   0.64323   0.00000  Uiso   1.00
C343   C     0.13919   0.50007   0.51124   0.00000  Uiso   1.00
C344   C     0.09395   0.47812   0.44484   0.00000  Uiso   1.00
C345   C     0.05980   0.52327   0.42910   0.00000  Uiso   1.00
H346   H     0.21002   0.62863   0.66765   0.00000  Uiso   1.00
H347   H     0.35061   0.69488   0.70491   0.00000  Uiso   1.00
H348   H     0.15820   0.54896   0.72932   0.00000  Uiso   1.00
H349   H     0.12422   0.66012   0.58241   0.00000  Uiso   1.00
H350   H     0.50173   0.73977   0.72466   0.00000  Uiso   1.00
H351   H     0.09601   0.43209   0.77612   0.00000  Uiso   1.00
H352   H     0.02435   0.66648   0.46633   0.00000  Uiso   1.00
H353   H     0.17342   0.40859   0.50135   0.00000  Uiso   1.00
H354   H     0.31201   0.46277   0.52949   0.00000  Uiso   1.00
H355   H     0.11960   0.31685   0.55390   0.00000  Uiso   1.00
H356   H     0.08562   0.42801   0.40699   0.00000  Uiso   1.00
H357   H     0.47041   0.55138   0.58228   0.00000  Uiso   1.00
H358   H     0.06468   0.24369   0.63374   0.00000  Uiso   1.00
H359   H     0.99303   0.47809   0.32395   0.00000  Uiso   1.00
O360   O     0.57790   0.68518   0.67499   0.00000  Uiso   1.00
O361   O     0.04559   0.28151   0.74250   0.00000  Uiso   1.00
O362   O     0.95159   0.58903   0.33606   0.00000  Uiso   1.00
N363   N     0.47534   0.68801   0.68728   0.00000  Uiso   1.00
N364   N     0.09602   0.40034   0.73540   0.00000  Uiso   1.00
N365   N     0.02902   0.61947   0.44577   0.00000  Uiso   1.00
N366   N     0.45848   0.58663   0.61067   0.00000  Uiso   1.00
N367   N     0.07917   0.29897   0.65879   0.00000  Uiso   1.00
N368   N     0.01216   0.51809   0.36916   0.00000  Uiso   1.00
C369   C     0.79031   0.37743   0.71852   0.00000  Uiso   1.00
C370   C     0.80123   0.45948   0.74622   0.00000  Uiso   1.00
C371   C     0.86724   0.52275   0.79184   0.00000  Uiso   1.00
C372   C     0.86578   0.59291   0.81097   0.00000  Uiso   1.00
C373   C     0.89265   0.71933   0.85785   0.00000  Uiso   1.00
C374   C     0.75687   0.35236   0.64340   0.00000  Uiso   1.00
C375   C     0.78558   0.32554   0.60258   0.00000  Uiso   1.00
C376   C     0.74677   0.30551   0.53515   0.00000  Uiso   1.00
C377   C     0.70474   0.26556   0.42240   0.00000  Uiso   1.00
C378   C     0.73062   0.32873   0.73361   0.00000  Uiso   1.00
C379   C     0.73725   0.28203   0.76862   0.00000  Uiso   1.00
C380   C     0.67633   0.24210   0.77712   0.00000  Uiso   1.00
C381   C     0.59355   0.16546   0.80443   0.00000  Uiso   1.00
C382   C     0.67034   0.38952   0.67135   0.00000  Uiso   1.00
C383   C     0.73606   0.46605   0.72059   0.00000  Uiso   1.00
C384   C     0.73450   0.53613   0.73965   0.00000  Uiso   1.00
C385   C     0.80050   0.59949   0.78530   0.00000  Uiso   1.00
C386   C     0.69171   0.35892   0.61778   0.00000  Uiso   1.00
C387   C     0.65284   0.33892   0.55039   0.00000  Uiso   1.00
C388   C     0.68149   0.31209   0.50948   0.00000  Uiso   1.00
C389   C     0.66546   0.33530   0.70799   0.00000  Uiso   1.00
C390   C     0.60452   0.29542   0.71643   0.00000  Uiso   1.00
C391   C     0.61105   0.24867   0.75145   0.00000  Uiso   1.00
H392   H     0.84104   0.37231   0.73846   0.00000  Uiso   1.00
H393   H     0.91766   0.51764   0.81166   0.00000  Uiso   1.00
H394   H     0.83600   0.32046   0.62242   0.00000  Uiso   1.00
H395   H     0.78768   0.27697   0.78844   0.00000  Uiso   1.00
H396   H     0.97387   0.68167   0.88149   0.00000  Uiso   1.00
H397   H     0.80168   0.26587   0.48247   0.00000  Uiso   1.00
H398   H     0.69979   0.17415   0.83255   0.00000  Uiso   1.00
H399   H     0.61960   0.39463   0.65140   0.00000  Uiso   1.00
H400   H     0.68407   0.54119   0.71982   0.00000  Uiso   1.00
H401   H     0.60242   0.34401   0.53058   0.00000  Uiso   1.00
H402   H     0.55410   0.30052   0.69660   0.00000  Uiso   1.00
H403   H     0.78428   0.70079   0.80694   0.00000  Uiso   1.00
H404   H     0.61209   0.28498   0.40793   0.00000  Uiso   1.00
H405   H     0.51020   0.19327   0.75801   0.00000  Uiso   1.00
O406   O     0.92548   0.78724   0.89078   0.00000  Uiso   1.00
O407   O     0.69957   0.24171   0.36729   0.00000  Uiso   1.00
O408   O     0.56590   0.12139   0.82658   0.00000  Uiso   1.00
N409   N     0.92040   0.66606   0.85456   0.00000  Uiso   1.00
N410   N     0.75942   0.27732   0.48151   0.00000  Uiso   1.00
N411   N     0.66416   0.19155   0.80879   0.00000  Uiso   1.00
N412   N     0.81838   0.67634   0.81445   0.00000  Uiso   1.00
N413   N     0.65740   0.28760   0.44140   0.00000  Uiso   1.00
N414   N     0.56214   0.20184   0.76868   0.00000  Uiso   1.00
C415   C     0.14309   0.67912   0.18457   0.00000  Uiso   1.00
C416   C     0.18550   0.76485   0.20236   0.00000  Uiso   1.00
C417   C     0.24805   0.81622   0.26057   0.00000  Uiso   1.00
C418   C     0.27871   0.89228   0.26745   0.00000  Uiso   1.00
C419   C     0.34924   0.02179   0.30263   0.00000  Uiso   1.00
C420   C     0.06413   0.66383   0.17012   0.00000  Uiso   1.00
C421   C     0.02463   0.63026   0.20120   0.00000  Uiso   1.00
C422   C     0.95312   0.62127   0.18093   0.00000  Uiso   1.00
C423   C     0.83521   0.59388   0.16602   0.00000  Uiso   1.00
C424   C     0.14071   0.63865   0.11868   0.00000  Uiso   1.00
C425   C     0.16558   0.58389   0.10650   0.00000  Uiso   1.00
C426   C     0.15853   0.55368   0.04292   0.00000  Uiso   1.00
C427   C     0.15952   0.48720   0.94814   0.00000  Uiso   1.00
C428   C     0.08631   0.72284   0.09329   0.00000  Uiso   1.00
C429   C     0.15466   0.78860   0.15278   0.00000  Uiso   1.00
C430   C     0.18524   0.86459   0.15957   0.00000  Uiso   1.00
C431   C     0.24782   0.91607   0.21777   0.00000  Uiso   1.00
C432   C     0.03329   0.68757   0.12054   0.00000  Uiso   1.00
C433   C     0.96182   0.67863   0.10021   0.00000  Uiso   1.00
C434   C     0.92223   0.64505   0.13126   0.00000  Uiso   1.00
C435   C     0.10988   0.66240   0.06910   0.00000  Uiso   1.00
C436   C     0.10277   0.63226   0.00551   0.00000  Uiso   1.00
C437   C     0.12764   0.57747   0.99324   0.00000  Uiso   1.00
H438   H     0.16709   0.66063   0.22317   0.00000  Uiso   1.00
H439   H     0.27189   0.79783   0.29893   0.00000  Uiso   1.00
H440   H     0.04851   0.61188   0.23957   0.00000  Uiso   1.00
H441   H     0.18944   0.56552   0.14489   0.00000  Uiso   1.00
H442   H     0.37448   0.96041   0.36106   0.00000  Uiso   1.00
H443   H     0.90345   0.56831   0.23588   0.00000  Uiso   1.00
H444   H     0.20063   0.47055   0.03622   0.00000  Uiso   1.00
H445   H     0.06230   0.74133   0.05468   0.00000  Uiso   1.00
H446   H     0.16136   0.88295   0.12120   0.00000  Uiso   1.00
H447   H     0.93797   0.69700   0.06184   0.00000  Uiso   1.00
H448   H     0.07891   0.65065   0.96716   0.00000  Uiso   1.00
H449   H     0.28476   0.02950   0.21681   0.00000  Uiso   1.00
H450   H     0.81373   0.63739   0.09163   0.00000  Uiso   1.00
H451   H     0.11092   0.53964   0.89197   0.00000  Uiso   1.00
O452   O     0.39666   0.08667   0.33574   0.00000  Uiso   1.00
O453   O     0.77869   0.57223   0.17150   0.00000  Uiso   1.00
O454   O     0.16859   0.44398   0.90956   0.00000  Uiso   1.00
N455   N     0.33978   0.95723   0.31798   0.00000  Uiso   1.00
N456   N     0.89940   0.59065   0.20095   0.00000  Uiso   1.00
N457   N     0.17722   0.49924   0.01428   0.00000  Uiso   1.00
N458   N     0.29150   0.99441   0.24036   0.00000  Uiso   1.00
N459   N     0.85112   0.62783   0.12333   0.00000  Uiso   1.00
N460   N     0.12895   0.53642   0.93666   0.00000  Uiso   1.00
C461   C     0.90324   0.22496   0.21693   0.00000  Uiso   1.00
C462   C     0.98495   0.24612   0.24847   0.00000  Uiso   1.00
C463   C     0.04105   0.31800   0.29337   0.00000  Uiso   1.00
C464   C     0.11220   0.32568   0.31647   0.00000  Uiso   1.00
C465   C     0.23687   0.36798   0.36862   0.00000  Uiso   1.00
C466   C     0.87774   0.19264   0.14225   0.00000  Uiso   1.00
C467   C     0.84370   0.21956   0.09784   0.00000  Uiso   1.00
C468   C     0.82459   0.18221   0.03151   0.00000  Uiso   1.00
C469   C     0.78277   0.14145   0.91875   0.00000  Uiso   1.00
C470   C     0.86527   0.15786   0.23347   0.00000  Uiso   1.00
C471   C     0.82071   0.15553   0.26574   0.00000  Uiso   1.00
C472   C     0.79109   0.08889   0.27621   0.00000  Uiso   1.00
C473   C     0.72990   0.99413   0.30508   0.00000  Uiso   1.00
C474   C     0.92984   0.11076   0.17812   0.00000  Uiso   1.00
C475   C     0.99939   0.18409   0.22739   0.00000  Uiso   1.00
C476   C     0.07047   0.19165   0.25042   0.00000  Uiso   1.00
C477   C     0.12667   0.26354   0.29535   0.00000  Uiso   1.00
C478   C     0.89219   0.13061   0.12116   0.00000  Uiso   1.00
C479   C     0.87312   0.09321   0.05489   0.00000  Uiso   1.00
C480   C     0.83906   0.12007   0.01039   0.00000  Uiso   1.00
C481   C     0.87971   0.09583   0.21239   0.00000  Uiso   1.00
C482   C     0.85014   0.02918   0.22280   0.00000  Uiso   1.00
C483   C     0.80556   0.02674   0.25508   0.00000  Uiso   1.00
H484   H     0.89200   0.27325   0.23334   0.00000  Uiso   1.00
H485   H     0.02985   0.36600   0.30967   0.00000  Uiso   1.00
H486   H     0.83252   0.26756   0.11417   0.00000  Uiso   1.00
H487   H     0.80955   0.20354   0.28205   0.00000  Uiso   1.00
H488   H     0.18905   0.44147   0.38497   0.00000  Uiso   1.00
H489   H     0.77296   0.23390   0.97274   0.00000  Uiso   1.00
H490   H     0.72451   0.09890   0.32676   0.00000  Uiso   1.00
H491   H     0.94108   0.06246   0.16170   0.00000  Uiso   1.00
H492   H     0.08163   0.14364   0.23410   0.00000  Uiso   1.00
H493   H     0.88430   0.04521   0.03859   0.00000  Uiso   1.00
H494   H     0.86133   0.98119   0.20648   0.00000  Uiso   1.00
H495   H     0.23109   0.26100   0.32364   0.00000  Uiso   1.00
H496   H     0.81498   0.05342   0.91140   0.00000  Uiso   1.00
H497   H     0.76654   0.91843   0.26542   0.00000  Uiso   1.00
O498   O     0.30164   0.40845   0.40321   0.00000  Uiso   1.00
O499   O     0.75573   0.13611   0.86237   0.00000  Uiso   1.00
O500   O     0.69217   0.95900   0.32683   0.00000  Uiso   1.00
N501   N     0.17966   0.38785   0.36061   0.00000  Uiso   1.00
N502   N     0.79064   0.19379   0.97520   0.00000  Uiso   1.00
N503   N     0.74533   0.06757   0.30616   0.00000  Uiso   1.00
N504   N     0.20227   0.29074   0.32761   0.00000  Uiso   1.00
N505   N     0.81326   0.09668   0.94220   0.00000  Uiso   1.00
N506   N     0.76795   0.97046   0.27315   0.00000  Uiso   1.00
C507   C     0.15296   0.05500   0.83324   0.00000  Uiso   1.00
C508   C     0.14692   0.03681   0.89223   0.00000  Uiso   1.00
C509   C     0.19320   0.08363   0.95844   0.00000  Uiso   1.00
C510   C     0.17849   0.05667   0.00498   0.00000  Uiso   1.00
C511   C     0.17809   0.03925   0.09948   0.00000  Uiso   1.00
C512   C     0.15882   0.98842   0.79141   0.00000  Uiso   1.00
C513   C     0.21510   0.99456   0.77285   0.00000  Uiso   1.00
C514   C     0.21041   0.92686   0.73451   0.00000  Uiso   1.00
C515   C     0.22846   0.83431   0.67244   0.00000  Uiso   1.00
C516   C     0.07884   0.04989   0.79204   0.00000  Uiso   1.00
C517   C     0.06788   0.10771   0.77399   0.00000  Uiso   1.00
C518   C     0.99585   0.09176   0.73618   0.00000  Uiso   1.00
C519   C     0.88972   0.09466   0.67509   0.00000  Uiso   1.00
C520   C     0.04453   0.92386   0.79816   0.00000  Uiso   1.00
C521   C     0.08802   0.96558   0.87317   0.00000  Uiso   1.00
C522   C     0.07324   0.93854   0.91963   0.00000  Uiso   1.00
C523   C     0.11949   0.98531   0.98590   0.00000  Uiso   1.00
C524   C     0.09993   0.91719   0.77235   0.00000  Uiso   1.00
C525   C     0.09514   0.84946   0.73404   0.00000  Uiso   1.00
C526   C     0.15141   0.85550   0.71543   0.00000  Uiso   1.00
C527   C     0.01994   0.97866   0.77299   0.00000  Uiso   1.00
C528   C     0.94792   0.96262   0.73519   0.00000  Uiso   1.00
C529   C     0.93685   0.02040   0.71709   0.00000  Uiso   1.00
H530   H     0.19881   0.11045   0.84807   0.00000  Uiso   1.00
H531   H     0.23877   0.13875   0.97316   0.00000  Uiso   1.00
H532   H     0.26067   0.04969   0.78759   0.00000  Uiso   1.00
H533   H     0.11347   0.16282   0.78875   0.00000  Uiso   1.00
H534   H     0.25713   0.13870   0.10345   0.00000  Uiso   1.00
H535   H     0.30328   0.95091   0.71215   0.00000  Uiso   1.00
H536   H     0.99288   0.18947   0.71458   0.00000  Uiso   1.00
H537   H     0.99868   0.86840   0.78332   0.00000  Uiso   1.00
H538   H     0.02766   0.88342   0.90487   0.00000  Uiso   1.00
H539   H     0.04956   0.79435   0.71930   0.00000  Uiso   1.00
H540   H     0.90236   0.90749   0.72045   0.00000  Uiso   1.00
H541   H     0.08578   0.93146   0.04802   0.00000  Uiso   1.00
H542   H     0.13194   0.74367   0.65671   0.00000  Uiso   1.00
H543   H     0.82153   0.98223   0.65915   0.00000  Uiso   1.00
O544   O     0.19415   0.04931   0.15686   0.00000  Uiso   1.00
O545   O     0.25469   0.80294   0.64348   0.00000  Uiso   1.00
O546   O     0.84745   0.11594   0.64667   0.00000  Uiso   1.00
N547   N     0.21282   0.08787   0.07372   0.00000  Uiso   1.00
N548   N     0.25597   0.91230   0.70789   0.00000  Uiso   1.00
N549   N     0.96577   0.13533   0.71015   0.00000  Uiso   1.00
N550   N     0.12062   0.97636   0.04390   0.00000  Uiso   1.00
N551   N     0.16377   0.80078   0.67806   0.00000  Uiso   1.00
N552   N     0.87357   0.02381   0.68032   0.00000  Uiso   1.00
