data_job_01194
_audit_creation_date              2018-12-19
_audit_creation_method            'Materials Studio'
_symmetry_space_group_name_H-M    'P1'
_symmetry_Int_Tables_number       1
_symmetry_cell_setting            triclinic
loop_
_symmetry_equiv_pos_as_xyz
  x,y,z
_cell_length_a                    11.4503
_cell_length_b                    11.8490
_cell_length_c                    12.1761
_cell_angle_alpha                 107.3869
_cell_angle_beta                  113.8331
_cell_angle_gamma                 94.0427
loop_
_atom_site_label
_atom_site_type_symbol
_atom_site_fract_x
_atom_site_fract_y
_atom_site_fract_z
_atom_site_U_iso_or_equiv
_atom_site_adp_type
_atom_site_occupancy
C1     C     0.18255   0.61208   0.85647   0.00000  Uiso   1.00
C2     C     0.23619   0.61564   0.76122   0.00000  Uiso   1.00
C3     C     0.23003   0.51616   0.66182   0.00000  Uiso   1.00
C4     C     0.28482   0.53836   0.58527   0.00000  Uiso   1.00
C5     C     0.35923   0.52601   0.43404   0.00000  Uiso   1.00
C6     C     0.29754   0.67153   0.98988   0.00000  Uiso   1.00
C7     C     0.34294   0.61904   0.08273   0.00000  Uiso   1.00
C8     C     0.44937   0.68830   0.19867   0.00000  Uiso   1.00
C9     C     0.61897   0.76274   0.40247   0.00000  Uiso   1.00
C10    C     0.08812   0.69733   0.84629   0.00000  Uiso   1.00
C11    C     0.95744   0.66655   0.81844   0.00000  Uiso   1.00
C12    C     0.88756   0.75754   0.81352   0.00000  Uiso   1.00
C13    C     0.73199   0.87204   0.79437   0.00000  Uiso   1.00
C14    C     0.29082   0.82842   0.89728   0.00000  Uiso   1.00
C15    C     0.29500   0.73315   0.78339   0.00000  Uiso   1.00
C16    C     0.34982   0.75551   0.70697   0.00000  Uiso   1.00
C17    C     0.34373   0.65608   0.60747   0.00000  Uiso   1.00
C18    C     0.35635   0.78903   0.01205   0.00000  Uiso   1.00
C19    C     0.46273   0.85839   0.12788   0.00000  Uiso   1.00
C20    C     0.50829   0.80601   0.22088   0.00000  Uiso   1.00
C21    C     0.14693   0.81483   0.86845   0.00000  Uiso   1.00
C22    C     0.07724   0.90590   0.86358   0.00000  Uiso   1.00
C23    C     0.94648   0.87526   0.83572   0.00000  Uiso   1.00
H24    H     0.13677   0.52060   0.83922   0.00000  Uiso   1.00
H25    H     0.18452   0.42524   0.64471   0.00000  Uiso   1.00
H26    H     0.29740   0.52811   0.06556   0.00000  Uiso   1.00
H27    H     0.91197   0.57561   0.80130   0.00000  Uiso   1.00
H28    H     0.26343   0.37132   0.43885   0.00000  Uiso   1.00
H29    H     0.50144   0.58824   0.32625   0.00000  Uiso   1.00
H30    H     0.68866   0.68841   0.76901   0.00000  Uiso   1.00
H31    H     0.33661   0.91990   0.91454   0.00000  Uiso   1.00
H32    H     0.39532   0.84645   0.72414   0.00000  Uiso   1.00
H33    H     0.50821   0.94932   0.14500   0.00000  Uiso   1.00
H34    H     0.12278   0.99682   0.88074   0.00000  Uiso   1.00
H35    H     0.43454   0.71319   0.50333   0.00000  Uiso   1.00
H36    H     0.67254   0.93011   0.39074   0.00000  Uiso   1.00
H37    H     0.85977   0.03028   0.83349   0.00000  Uiso   1.00
O38    O     0.38405   0.48673   0.34451   0.00000  Uiso   1.00
O39    O     0.69627   0.77133   0.50875   0.00000  Uiso   1.00
O40    O     0.62994   0.90274   0.77766   0.00000  Uiso   1.00
N41    N     0.29562   0.46187   0.48014   0.00000  Uiso   1.00
N42    N     0.51815   0.66467   0.30980   0.00000  Uiso   1.00
N43    N     0.75829   0.75832   0.78886   0.00000  Uiso   1.00
N44    N     0.38769   0.64582   0.51483   0.00000  Uiso   1.00
N45    N     0.61022   0.84862   0.34449   0.00000  Uiso   1.00
N46    N     0.85035   0.94228   0.82356   0.00000  Uiso   1.00
C47    C     0.81745   0.38792   0.14353   0.00000  Uiso   1.00
C48    C     0.76381   0.38436   0.23878   0.00000  Uiso   1.00
C49    C     0.76997   0.48384   0.33818   0.00000  Uiso   1.00
C50    C     0.71518   0.46164   0.41473   0.00000  Uiso   1.00
C51    C     0.64077   0.47399   0.56596   0.00000  Uiso   1.00
C52    C     0.70246   0.32847   0.01012   0.00000  Uiso   1.00
C53    C     0.65706   0.38096   0.91727   0.00000  Uiso   1.00
C54    C     0.55063   0.31170   0.80133   0.00000  Uiso   1.00
C55    C     0.38103   0.23726   0.59753   0.00000  Uiso   1.00
C56    C     0.91188   0.30267   0.15371   0.00000  Uiso   1.00
C57    C     0.04256   0.33345   0.18156   0.00000  Uiso   1.00
C58    C     0.11244   0.24246   0.18648   0.00000  Uiso   1.00
C59    C     0.26801   0.12796   0.20563   0.00000  Uiso   1.00
C60    C     0.70918   0.17158   0.10272   0.00000  Uiso   1.00
C61    C     0.70500   0.26685   0.21661   0.00000  Uiso   1.00
C62    C     0.65018   0.24449   0.29303   0.00000  Uiso   1.00
C63    C     0.65627   0.34392   0.39253   0.00000  Uiso   1.00
C64    C     0.64365   0.21097   0.98795   0.00000  Uiso   1.00
C65    C     0.53727   0.14161   0.87212   0.00000  Uiso   1.00
C66    C     0.49171   0.19399   0.77912   0.00000  Uiso   1.00
C67    C     0.85307   0.18517   0.13155   0.00000  Uiso   1.00
C68    C     0.92276   0.09410   0.13642   0.00000  Uiso   1.00
C69    C     0.05352   0.12474   0.16428   0.00000  Uiso   1.00
H70    H     0.86323   0.47940   0.16078   0.00000  Uiso   1.00
H71    H     0.81548   0.57476   0.35529   0.00000  Uiso   1.00
H72    H     0.70260   0.47189   0.93444   0.00000  Uiso   1.00
H73    H     0.08803   0.42439   0.19870   0.00000  Uiso   1.00
H74    H     0.73657   0.62868   0.56115   0.00000  Uiso   1.00
H75    H     0.49856   0.41176   0.67375   0.00000  Uiso   1.00
H76    H     0.31134   0.31159   0.23099   0.00000  Uiso   1.00
H77    H     0.66339   0.08010   0.08546   0.00000  Uiso   1.00
H78    H     0.60468   0.15355   0.27586   0.00000  Uiso   1.00
H79    H     0.49179   0.05068   0.85500   0.00000  Uiso   1.00
H80    H     0.87722   0.00318   0.11926   0.00000  Uiso   1.00
H81    H     0.56546   0.28681   0.49667   0.00000  Uiso   1.00
H82    H     0.32746   0.06989   0.60926   0.00000  Uiso   1.00
H83    H     0.14023   0.96972   0.16651   0.00000  Uiso   1.00
O84    O     0.61595   0.51327   0.65549   0.00000  Uiso   1.00
O85    O     0.30373   0.22867   0.49125   0.00000  Uiso   1.00
O86    O     0.37006   0.09726   0.22234   0.00000  Uiso   1.00
N87    N     0.70438   0.53813   0.51986   0.00000  Uiso   1.00
N88    N     0.48185   0.33533   0.69020   0.00000  Uiso   1.00
N89    N     0.24171   0.24168   0.21114   0.00000  Uiso   1.00
N90    N     0.61231   0.35418   0.48517   0.00000  Uiso   1.00
N91    N     0.38978   0.15138   0.65551   0.00000  Uiso   1.00
N92    N     0.14965   0.05772   0.17644   0.00000  Uiso   1.00
