data_job_03882
_audit_creation_date              2018-12-19
_audit_creation_method            'Materials Studio'
_symmetry_space_group_name_H-M    'P1'
_symmetry_Int_Tables_number       1
_symmetry_cell_setting            triclinic
loop_
_symmetry_equiv_pos_as_xyz
  x,y,z
_cell_length_a                    11.5685
_cell_length_b                    12.6426
_cell_length_c                    13.2374
_cell_angle_alpha                 81.2781
_cell_angle_beta                  69.5949
_cell_angle_gamma                 111.2481
loop_
_atom_site_label
_atom_site_type_symbol
_atom_site_fract_x
_atom_site_fract_y
_atom_site_fract_z
_atom_site_U_iso_or_equiv
_atom_site_adp_type
_atom_site_occupancy
C1     C     0.96082   0.20616   0.64410   0.00000  Uiso   1.00
C2     C     0.81329   0.17085   0.65997   0.00000  Uiso   1.00
C3     C     0.76808   0.15727   0.57631   0.00000  Uiso   1.00
C4     C     0.62911   0.12454   0.60785   0.00000  Uiso   1.00
C5     C     0.41380   0.07257   0.61555   0.00000  Uiso   1.00
C6     C     0.00245   0.31737   0.68086   0.00000  Uiso   1.00
C7     C     0.11630   0.42697   0.61476   0.00000  Uiso   1.00
C8     C     0.13656   0.51758   0.66390   0.00000  Uiso   1.00
C9     C     0.21498   0.69306   0.70407   0.00000  Uiso   1.00
C10    C     0.95268   0.10700   0.73180   0.00000  Uiso   1.00
C11    C     0.02471   0.03974   0.70855   0.00000  Uiso   1.00
C12    C     0.00309   0.95325   0.80059   0.00000  Uiso   1.00
C13    C     0.00423   0.80210   0.91986   0.00000  Uiso   1.00
C14    C     0.79441   0.17218   0.84889   0.00000  Uiso   1.00
C15    C     0.72291   0.15240   0.77120   0.00000  Uiso   1.00
C16    C     0.58396   0.11967   0.80288   0.00000  Uiso   1.00
C17    C     0.53855   0.10604   0.71928   0.00000  Uiso   1.00
C18    C     0.91207   0.29892   0.79209   0.00000  Uiso   1.00
C19    C     0.93218   0.38938   0.84133   0.00000  Uiso   1.00
C20    C     0.04601   0.49909   0.77533   0.00000  Uiso   1.00
C21    C     0.86229   0.08854   0.84304   0.00000  Uiso   1.00
C22    C     0.84057   0.00214   0.93512   0.00000  Uiso   1.00
C23    C     0.91254   0.93476   0.91202   0.00000  Uiso   1.00
H24    H     0.03120   0.22054   0.55750   0.00000  Uiso   1.00
H25    H     0.83807   0.17157   0.49023   0.00000  Uiso   1.00
H26    H     0.18623   0.44122   0.52869   0.00000  Uiso   1.00
H27    H     0.09464   0.05405   0.62247   0.00000  Uiso   1.00
H28    H     0.58410   0.10918   0.46470   0.00000  Uiso   1.00
H29    H     0.31825   0.67775   0.54580   0.00000  Uiso   1.00
H30    H     0.12512   0.86132   0.74354   0.00000  Uiso   1.00
H31    H     0.72403   0.15781   0.93549   0.00000  Uiso   1.00
H32    H     0.51404   0.10540   0.88896   0.00000  Uiso   1.00
H33    H     0.86221   0.37506   0.92742   0.00000  Uiso   1.00
H34    H     0.77062   0.98788   0.02119   0.00000  Uiso   1.00
H35    H     0.32110   0.05548   0.78832   0.00000  Uiso   1.00
H36    H     0.05526   0.62405   0.86942   0.00000  Uiso   1.00
H37    H     0.86212   0.80762   0.06716   0.00000  Uiso   1.00
O38    O     0.32001   0.04902   0.58907   0.00000  Uiso   1.00
O39    O     0.28320   0.79495   0.69548   0.00000  Uiso   1.00
O40    O     0.02982   0.72381   0.95491   0.00000  Uiso   1.00
N41    N     0.55102   0.10371   0.54725   0.00000  Uiso   1.00
N42    N     0.23739   0.63530   0.62307   0.00000  Uiso   1.00
N43    N     0.05686   0.87203   0.80795   0.00000  Uiso   1.00
N44    N     0.40950   0.07481   0.72139   0.00000  Uiso   1.00
N45    N     0.09587   0.60640   0.79721   0.00000  Uiso   1.00
N46    N     0.91534   0.84313   0.98209   0.00000  Uiso   1.00
C47    C     0.03918   0.79384   0.35590   0.00000  Uiso   1.00
C48    C     0.18671   0.82915   0.34003   0.00000  Uiso   1.00
C49    C     0.23192   0.84273   0.42369   0.00000  Uiso   1.00
C50    C     0.37089   0.87546   0.39215   0.00000  Uiso   1.00
C51    C     0.58620   0.92743   0.38445   0.00000  Uiso   1.00
C52    C     0.99755   0.68263   0.31914   0.00000  Uiso   1.00
C53    C     0.88370   0.57303   0.38524   0.00000  Uiso   1.00
C54    C     0.86344   0.48242   0.33610   0.00000  Uiso   1.00
C55    C     0.78502   0.30694   0.29593   0.00000  Uiso   1.00
C56    C     0.04732   0.89300   0.26820   0.00000  Uiso   1.00
C57    C     0.97529   0.96026   0.29145   0.00000  Uiso   1.00
C58    C     0.99691   0.04675   0.19941   0.00000  Uiso   1.00
C59    C     0.99577   0.19790   0.08014   0.00000  Uiso   1.00
C60    C     0.20559   0.82782   0.15111   0.00000  Uiso   1.00
C61    C     0.27709   0.84760   0.22880   0.00000  Uiso   1.00
C62    C     0.41604   0.88033   0.19712   0.00000  Uiso   1.00
C63    C     0.46145   0.89396   0.28072   0.00000  Uiso   1.00
C64    C     0.08793   0.70108   0.20791   0.00000  Uiso   1.00
C65    C     0.06782   0.61062   0.15867   0.00000  Uiso   1.00
C66    C     0.95399   0.50091   0.22467   0.00000  Uiso   1.00
C67    C     0.13771   0.91146   0.15696   0.00000  Uiso   1.00
C68    C     0.15943   0.99786   0.06488   0.00000  Uiso   1.00
C69    C     0.08746   0.06524   0.08798   0.00000  Uiso   1.00
H70    H     0.96880   0.77946   0.44250   0.00000  Uiso   1.00
H71    H     0.16193   0.82843   0.50977   0.00000  Uiso   1.00
H72    H     0.81377   0.55878   0.47131   0.00000  Uiso   1.00
H73    H     0.90536   0.94595   0.37753   0.00000  Uiso   1.00
H74    H     0.41590   0.89082   0.53530   0.00000  Uiso   1.00
H75    H     0.68175   0.32225   0.45420   0.00000  Uiso   1.00
H76    H     0.87488   0.13868   0.25646   0.00000  Uiso   1.00
H77    H     0.27597   0.84219   0.06451   0.00000  Uiso   1.00
H78    H     0.48596   0.89460   0.11104   0.00000  Uiso   1.00
H79    H     0.13779   0.62494   0.07258   0.00000  Uiso   1.00
H80    H     0.22938   0.01212   0.97881   0.00000  Uiso   1.00
H81    H     0.67890   0.94452   0.21168   0.00000  Uiso   1.00
H82    H     0.94474   0.37595   0.13058   0.00000  Uiso   1.00
H83    H     0.13788   0.19238   0.93284   0.00000  Uiso   1.00
O84    O     0.67999   0.95098   0.41093   0.00000  Uiso   1.00
O85    O     0.71680   0.20505   0.30452   0.00000  Uiso   1.00
O86    O     0.97018   0.27619   0.04509   0.00000  Uiso   1.00
N87    N     0.44898   0.89629   0.45275   0.00000  Uiso   1.00
N88    N     0.76261   0.36470   0.37693   0.00000  Uiso   1.00
N89    N     0.94314   0.12797   0.19205   0.00000  Uiso   1.00
N90    N     0.59050   0.92519   0.27861   0.00000  Uiso   1.00
N91    N     0.90413   0.39360   0.20279   0.00000  Uiso   1.00
N92    N     0.08466   0.15687   0.01791   0.00000  Uiso   1.00
