data_job_05736
_audit_creation_date              2018-12-19
_audit_creation_method            'Materials Studio'
_symmetry_space_group_name_H-M    'P1'
_symmetry_Int_Tables_number       1
_symmetry_cell_setting            triclinic
loop_
_symmetry_equiv_pos_as_xyz
  x,y,z
_cell_length_a                    17.6004
_cell_length_b                    20.6307
_cell_length_c                    19.4027
_cell_angle_alpha                 90.0000
_cell_angle_beta                  90.0000
_cell_angle_gamma                 90.0000
loop_
_atom_site_label
_atom_site_type_symbol
_atom_site_fract_x
_atom_site_fract_y
_atom_site_fract_z
_atom_site_U_iso_or_equiv
_atom_site_adp_type
_atom_site_occupancy
C1     C     0.84496   0.05109   0.61101   0.00000  Uiso   1.00
C2     C     0.77049   0.08100   0.58647   0.00000  Uiso   1.00
C3     C     0.75662   0.10549   0.52105   0.00000  Uiso   1.00
C4     C     0.68478   0.13077   0.50878   0.00000  Uiso   1.00
C5     C     0.57764   0.17707   0.46286   0.00000  Uiso   1.00
C6     C     0.82507   0.98342   0.63696   0.00000  Uiso   1.00
C7     C     0.85711   0.92587   0.61401   0.00000  Uiso   1.00
C8     C     0.83122   0.86901   0.64425   0.00000  Uiso   1.00
C9     C     0.80885   0.76382   0.67675   0.00000  Uiso   1.00
C10    C     0.86878   0.08979   0.67439   0.00000  Uiso   1.00
C11    C     0.93758   0.12166   0.68291   0.00000  Uiso   1.00
C12    C     0.94851   0.15435   0.74467   0.00000  Uiso   1.00
C13    C     0.99401   0.21431   0.83527   0.00000  Uiso   1.00
C14    C     0.74203   0.05246   0.70555   0.00000  Uiso   1.00
C15    C     0.71458   0.08174   0.63782   0.00000  Uiso   1.00
C16    C     0.64274   0.10700   0.62565   0.00000  Uiso   1.00
C17    C     0.62878   0.13152   0.56023   0.00000  Uiso   1.00
C18    C     0.76916   0.98416   0.68831   0.00000  Uiso   1.00
C19    C     0.74323   0.92738   0.71860   0.00000  Uiso   1.00
C20    C     0.77521   0.86975   0.69569   0.00000  Uiso   1.00
C21    C     0.81288   0.09053   0.72574   0.00000  Uiso   1.00
C22    C     0.82370   0.12317   0.78750   0.00000  Uiso   1.00
C23    C     0.89250   0.15509   0.79611   0.00000  Uiso   1.00
H24    H     0.88849   0.05051   0.57104   0.00000  Uiso   1.00
H25    H     0.79990   0.10490   0.48132   0.00000  Uiso   1.00
H26    H     0.90037   0.92531   0.57427   0.00000  Uiso   1.00
H27    H     0.98083   0.12108   0.64316   0.00000  Uiso   1.00
H28    H     0.67703   0.16550   0.40450   0.00000  Uiso   1.00
H29    H     0.88890   0.78683   0.60050   0.00000  Uiso   1.00
H30    H     0.05857   0.19964   0.74576   0.00000  Uiso   1.00
H31    H     0.69850   0.05303   0.74553   0.00000  Uiso   1.00
H32    H     0.59949   0.10756   0.66540   0.00000  Uiso   1.00
H33    H     0.69996   0.92797   0.75834   0.00000  Uiso   1.00
H34    H     0.78042   0.12374   0.82723   0.00000  Uiso   1.00
H35    H     0.51436   0.16766   0.55390   0.00000  Uiso   1.00
H36    H     0.72624   0.78898   0.74990   0.00000  Uiso   1.00
H37    H     0.89590   0.20180   0.89516   0.00000  Uiso   1.00
O38    O     0.53398   0.20239   0.42333   0.00000  Uiso   1.00
O39    O     0.81196   0.70558   0.68048   0.00000  Uiso   1.00
O40    O     0.03456   0.24719   0.87106   0.00000  Uiso   1.00
N41    N     0.65234   0.15854   0.45067   0.00000  Uiso   1.00
N42    N     0.85041   0.80450   0.63390   0.00000  Uiso   1.00
N43    N     0.00905   0.19043   0.76972   0.00000  Uiso   1.00
N44    N     0.56481   0.15970   0.53106   0.00000  Uiso   1.00
N45    N     0.76289   0.80566   0.71429   0.00000  Uiso   1.00
N46    N     0.92152   0.19160   0.85011   0.00000  Uiso   1.00
C47    C     0.65093   0.40510   0.88787   0.00000  Uiso   1.00
C48    C     0.72567   0.37578   0.91253   0.00000  Uiso   1.00
C49    C     0.73990   0.35198   0.97817   0.00000  Uiso   1.00
C50    C     0.81195   0.32715   0.99051   0.00000  Uiso   1.00
C51    C     0.91953   0.28179   0.03665   0.00000  Uiso   1.00
C52    C     0.67030   0.47262   0.86114   0.00000  Uiso   1.00
C53    C     0.63796   0.53024   0.88357   0.00000  Uiso   1.00
C54    C     0.66339   0.58692   0.85265   0.00000  Uiso   1.00
C55    C     0.68497   0.69191   0.81896   0.00000  Uiso   1.00
C56    C     0.62716   0.36570   0.82497   0.00000  Uiso   1.00
C57    C     0.55853   0.33342   0.81698   0.00000  Uiso   1.00
C58    C     0.54763   0.30010   0.75560   0.00000  Uiso   1.00
C59    C     0.50222   0.23907   0.66576   0.00000  Uiso   1.00
C60    C     0.75357   0.40333   0.79307   0.00000  Uiso   1.00
C61    C     0.78142   0.37482   0.86104   0.00000  Uiso   1.00
C62    C     0.85346   0.35001   0.87328   0.00000  Uiso   1.00
C63    C     0.86779   0.32618   0.93893   0.00000  Uiso   1.00
C64    C     0.72605   0.47166   0.80965   0.00000  Uiso   1.00
C65    C     0.75152   0.52827   0.77869   0.00000  Uiso   1.00
C66    C     0.71923   0.58596   0.80106   0.00000  Uiso   1.00
C67    C     0.68290   0.36473   0.77348   0.00000  Uiso   1.00
C68    C     0.67209   0.33145   0.71210   0.00000  Uiso   1.00
C69    C     0.60347   0.29913   0.70402   0.00000  Uiso   1.00
H70    H     0.60753   0.40586   0.92795   0.00000  Uiso   1.00
H71    H     0.69675   0.35274   0.01800   0.00000  Uiso   1.00
H72    H     0.59482   0.53097   0.92341   0.00000  Uiso   1.00
H73    H     0.51541   0.33418   0.85684   0.00000  Uiso   1.00
H74    H     0.82026   0.29344   0.09514   0.00000  Uiso   1.00
H75    H     0.60532   0.66924   0.89567   0.00000  Uiso   1.00
H76    H     0.43786   0.25428   0.75528   0.00000  Uiso   1.00
H77    H     0.79697   0.40258   0.75298   0.00000  Uiso   1.00
H78    H     0.89659   0.34927   0.83343   0.00000  Uiso   1.00
H79    H     0.79466   0.52750   0.73884   0.00000  Uiso   1.00
H80    H     0.71525   0.33072   0.67227   0.00000  Uiso   1.00
H81    H     0.98246   0.29063   0.94533   0.00000  Uiso   1.00
H82    H     0.76751   0.66643   0.74586   0.00000  Uiso   1.00
H83    H     0.60006   0.25147   0.60548   0.00000  Uiso   1.00
O84    O     0.96348   0.25705   0.07632   0.00000  Uiso   1.00
O85    O     0.68147   0.75008   0.81462   0.00000  Uiso   1.00
O86    O     0.46178   0.20567   0.63044   0.00000  Uiso   1.00
N87    N     0.84476   0.30008   0.04884   0.00000  Uiso   1.00
N88    N     0.64381   0.65144   0.86235   0.00000  Uiso   1.00
N89    N     0.48724   0.26350   0.73110   0.00000  Uiso   1.00
N90    N     0.93203   0.29857   0.96823   0.00000  Uiso   1.00
N91    N     0.73108   0.64992   0.78175   0.00000  Uiso   1.00
N92    N     0.57452   0.26199   0.65049   0.00000  Uiso   1.00
C93    C     0.15504   0.94891   0.61101   0.00000  Uiso   1.00
C94    C     0.22951   0.91900   0.58647   0.00000  Uiso   1.00
C95    C     0.24338   0.89451   0.52105   0.00000  Uiso   1.00
C96    C     0.31522   0.86923   0.50878   0.00000  Uiso   1.00
C97    C     0.42236   0.82293   0.46286   0.00000  Uiso   1.00
C98    C     0.17493   0.01658   0.63696   0.00000  Uiso   1.00
C99    C     0.14289   0.07413   0.61401   0.00000  Uiso   1.00
C100   C     0.16878   0.13099   0.64425   0.00000  Uiso   1.00
C101   C     0.19115   0.23618   0.67675   0.00000  Uiso   1.00
C102   C     0.13122   0.91021   0.67439   0.00000  Uiso   1.00
C103   C     0.06242   0.87834   0.68291   0.00000  Uiso   1.00
C104   C     0.05149   0.84565   0.74467   0.00000  Uiso   1.00
C105   C     0.00599   0.78569   0.83527   0.00000  Uiso   1.00
C106   C     0.25797   0.94754   0.70555   0.00000  Uiso   1.00
C107   C     0.28542   0.91826   0.63782   0.00000  Uiso   1.00
C108   C     0.35726   0.89300   0.62565   0.00000  Uiso   1.00
C109   C     0.37122   0.86848   0.56023   0.00000  Uiso   1.00
C110   C     0.23084   0.01584   0.68831   0.00000  Uiso   1.00
C111   C     0.25677   0.07262   0.71860   0.00000  Uiso   1.00
C112   C     0.22479   0.13025   0.69569   0.00000  Uiso   1.00
C113   C     0.18712   0.90947   0.72574   0.00000  Uiso   1.00
C114   C     0.17630   0.87683   0.78750   0.00000  Uiso   1.00
C115   C     0.10750   0.84491   0.79611   0.00000  Uiso   1.00
H116   H     0.11151   0.94949   0.57104   0.00000  Uiso   1.00
H117   H     0.20010   0.89510   0.48132   0.00000  Uiso   1.00
H118   H     0.09963   0.07469   0.57427   0.00000  Uiso   1.00
H119   H     0.01917   0.87892   0.64316   0.00000  Uiso   1.00
H120   H     0.32297   0.83450   0.40450   0.00000  Uiso   1.00
H121   H     0.11110   0.21317   0.60050   0.00000  Uiso   1.00
H122   H     0.94143   0.80036   0.74576   0.00000  Uiso   1.00
H123   H     0.30150   0.94697   0.74553   0.00000  Uiso   1.00
H124   H     0.40051   0.89244   0.66540   0.00000  Uiso   1.00
H125   H     0.30004   0.07203   0.75834   0.00000  Uiso   1.00
H126   H     0.21958   0.87626   0.82723   0.00000  Uiso   1.00
H127   H     0.48564   0.83234   0.55390   0.00000  Uiso   1.00
H128   H     0.27376   0.21102   0.74990   0.00000  Uiso   1.00
H129   H     0.10410   0.79820   0.89516   0.00000  Uiso   1.00
O130   O     0.46602   0.79761   0.42333   0.00000  Uiso   1.00
O131   O     0.18804   0.29442   0.68048   0.00000  Uiso   1.00
O132   O     0.96544   0.75281   0.87106   0.00000  Uiso   1.00
N133   N     0.34766   0.84146   0.45067   0.00000  Uiso   1.00
N134   N     0.14959   0.19550   0.63390   0.00000  Uiso   1.00
N135   N     0.99095   0.80957   0.76972   0.00000  Uiso   1.00
N136   N     0.43519   0.84030   0.53106   0.00000  Uiso   1.00
N137   N     0.23711   0.19434   0.71429   0.00000  Uiso   1.00
N138   N     0.07848   0.80840   0.85011   0.00000  Uiso   1.00
C139   C     0.34907   0.59490   0.88787   0.00000  Uiso   1.00
C140   C     0.27433   0.62422   0.91253   0.00000  Uiso   1.00
C141   C     0.26010   0.64802   0.97817   0.00000  Uiso   1.00
C142   C     0.18805   0.67285   0.99051   0.00000  Uiso   1.00
C143   C     0.08047   0.71821   0.03665   0.00000  Uiso   1.00
C144   C     0.32970   0.52738   0.86114   0.00000  Uiso   1.00
C145   C     0.36204   0.46976   0.88357   0.00000  Uiso   1.00
C146   C     0.33661   0.41308   0.85265   0.00000  Uiso   1.00
C147   C     0.31503   0.30809   0.81896   0.00000  Uiso   1.00
C148   C     0.37284   0.63430   0.82497   0.00000  Uiso   1.00
C149   C     0.44147   0.66658   0.81698   0.00000  Uiso   1.00
C150   C     0.45237   0.69990   0.75560   0.00000  Uiso   1.00
C151   C     0.49778   0.76093   0.66576   0.00000  Uiso   1.00
C152   C     0.24643   0.59667   0.79307   0.00000  Uiso   1.00
C153   C     0.21858   0.62518   0.86104   0.00000  Uiso   1.00
C154   C     0.14654   0.64999   0.87328   0.00000  Uiso   1.00
C155   C     0.13221   0.67382   0.93893   0.00000  Uiso   1.00
C156   C     0.27395   0.52834   0.80965   0.00000  Uiso   1.00
C157   C     0.24848   0.47173   0.77869   0.00000  Uiso   1.00
C158   C     0.28077   0.41404   0.80106   0.00000  Uiso   1.00
C159   C     0.31710   0.63527   0.77348   0.00000  Uiso   1.00
C160   C     0.32791   0.66855   0.71210   0.00000  Uiso   1.00
C161   C     0.39653   0.70087   0.70402   0.00000  Uiso   1.00
H162   H     0.39247   0.59414   0.92795   0.00000  Uiso   1.00
H163   H     0.30325   0.64726   0.01800   0.00000  Uiso   1.00
H164   H     0.40518   0.46903   0.92341   0.00000  Uiso   1.00
H165   H     0.48459   0.66582   0.85684   0.00000  Uiso   1.00
H166   H     0.17974   0.70656   0.09514   0.00000  Uiso   1.00
H167   H     0.39468   0.33076   0.89567   0.00000  Uiso   1.00
H168   H     0.56214   0.74572   0.75528   0.00000  Uiso   1.00
H169   H     0.20303   0.59742   0.75298   0.00000  Uiso   1.00
H170   H     0.10341   0.65073   0.83343   0.00000  Uiso   1.00
H171   H     0.20534   0.47250   0.73884   0.00000  Uiso   1.00
H172   H     0.28475   0.66928   0.67227   0.00000  Uiso   1.00
H173   H     0.01754   0.70937   0.94533   0.00000  Uiso   1.00
H174   H     0.23249   0.33357   0.74586   0.00000  Uiso   1.00
H175   H     0.39994   0.74853   0.60548   0.00000  Uiso   1.00
O176   O     0.03652   0.74295   0.07632   0.00000  Uiso   1.00
O177   O     0.31853   0.24992   0.81462   0.00000  Uiso   1.00
O178   O     0.53822   0.79433   0.63044   0.00000  Uiso   1.00
N179   N     0.15524   0.69992   0.04884   0.00000  Uiso   1.00
N180   N     0.35619   0.34856   0.86235   0.00000  Uiso   1.00
N181   N     0.51276   0.73650   0.73110   0.00000  Uiso   1.00
N182   N     0.06797   0.70143   0.96823   0.00000  Uiso   1.00
N183   N     0.26892   0.35008   0.78175   0.00000  Uiso   1.00
N184   N     0.42548   0.73801   0.65049   0.00000  Uiso   1.00
C185   C     0.65504   0.55109   0.38899   0.00000  Uiso   1.00
C186   C     0.72951   0.58100   0.41353   0.00000  Uiso   1.00
C187   C     0.74338   0.60549   0.47895   0.00000  Uiso   1.00
C188   C     0.81522   0.63077   0.49122   0.00000  Uiso   1.00
C189   C     0.92236   0.67707   0.53714   0.00000  Uiso   1.00
C190   C     0.67493   0.48342   0.36304   0.00000  Uiso   1.00
C191   C     0.64289   0.42587   0.38599   0.00000  Uiso   1.00
C192   C     0.66878   0.36901   0.35575   0.00000  Uiso   1.00
C193   C     0.69115   0.26382   0.32325   0.00000  Uiso   1.00
C194   C     0.63122   0.58979   0.32561   0.00000  Uiso   1.00
C195   C     0.56242   0.62166   0.31709   0.00000  Uiso   1.00
C196   C     0.55149   0.65435   0.25533   0.00000  Uiso   1.00
C197   C     0.50599   0.71431   0.16473   0.00000  Uiso   1.00
C198   C     0.75797   0.55246   0.29445   0.00000  Uiso   1.00
C199   C     0.78542   0.58174   0.36218   0.00000  Uiso   1.00
C200   C     0.85726   0.60700   0.37435   0.00000  Uiso   1.00
C201   C     0.87122   0.63152   0.43977   0.00000  Uiso   1.00
C202   C     0.73084   0.48416   0.31169   0.00000  Uiso   1.00
C203   C     0.75677   0.42738   0.28140   0.00000  Uiso   1.00
C204   C     0.72479   0.36975   0.30431   0.00000  Uiso   1.00
C205   C     0.68712   0.59053   0.27426   0.00000  Uiso   1.00
C206   C     0.67630   0.62317   0.21250   0.00000  Uiso   1.00
C207   C     0.60750   0.65509   0.20389   0.00000  Uiso   1.00
H208   H     0.61151   0.55051   0.42896   0.00000  Uiso   1.00
H209   H     0.70010   0.60490   0.51868   0.00000  Uiso   1.00
H210   H     0.59963   0.42531   0.42573   0.00000  Uiso   1.00
H211   H     0.51917   0.62108   0.35684   0.00000  Uiso   1.00
H212   H     0.82297   0.66550   0.59550   0.00000  Uiso   1.00
H213   H     0.61110   0.28683   0.39950   0.00000  Uiso   1.00
H214   H     0.44143   0.69964   0.25424   0.00000  Uiso   1.00
H215   H     0.80150   0.55303   0.25447   0.00000  Uiso   1.00
H216   H     0.90051   0.60756   0.33460   0.00000  Uiso   1.00
H217   H     0.80004   0.42797   0.24166   0.00000  Uiso   1.00
H218   H     0.71958   0.62374   0.17277   0.00000  Uiso   1.00
H219   H     0.98564   0.66766   0.44610   0.00000  Uiso   1.00
H220   H     0.77376   0.28898   0.25010   0.00000  Uiso   1.00
H221   H     0.60410   0.70180   0.10484   0.00000  Uiso   1.00
O222   O     0.96602   0.70239   0.57667   0.00000  Uiso   1.00
O223   O     0.68804   0.20558   0.31952   0.00000  Uiso   1.00
O224   O     0.46544   0.74719   0.12894   0.00000  Uiso   1.00
N225   N     0.84766   0.65854   0.54933   0.00000  Uiso   1.00
N226   N     0.64959   0.30450   0.36610   0.00000  Uiso   1.00
N227   N     0.49095   0.69043   0.23028   0.00000  Uiso   1.00
N228   N     0.93519   0.65970   0.46894   0.00000  Uiso   1.00
N229   N     0.73711   0.30566   0.28571   0.00000  Uiso   1.00
N230   N     0.57848   0.69160   0.14989   0.00000  Uiso   1.00
C231   C     0.84907   0.90510   0.11213   0.00000  Uiso   1.00
C232   C     0.77433   0.87578   0.08747   0.00000  Uiso   1.00
C233   C     0.76010   0.85198   0.02183   0.00000  Uiso   1.00
C234   C     0.68805   0.82715   0.00949   0.00000  Uiso   1.00
C235   C     0.58047   0.78179   0.96335   0.00000  Uiso   1.00
C236   C     0.82970   0.97262   0.13886   0.00000  Uiso   1.00
C237   C     0.86204   0.03024   0.11643   0.00000  Uiso   1.00
C238   C     0.83661   0.08692   0.14735   0.00000  Uiso   1.00
C239   C     0.81503   0.19191   0.18104   0.00000  Uiso   1.00
C240   C     0.87284   0.86570   0.17503   0.00000  Uiso   1.00
C241   C     0.94147   0.83342   0.18302   0.00000  Uiso   1.00
C242   C     0.95237   0.80010   0.24440   0.00000  Uiso   1.00
C243   C     0.99778   0.73907   0.33424   0.00000  Uiso   1.00
C244   C     0.74643   0.90333   0.20693   0.00000  Uiso   1.00
C245   C     0.71858   0.87482   0.13896   0.00000  Uiso   1.00
C246   C     0.64654   0.85001   0.12672   0.00000  Uiso   1.00
C247   C     0.63221   0.82618   0.06107   0.00000  Uiso   1.00
C248   C     0.77395   0.97166   0.19035   0.00000  Uiso   1.00
C249   C     0.74848   0.02827   0.22131   0.00000  Uiso   1.00
C250   C     0.78077   0.08596   0.19894   0.00000  Uiso   1.00
C251   C     0.81710   0.86473   0.22652   0.00000  Uiso   1.00
C252   C     0.82791   0.83145   0.28790   0.00000  Uiso   1.00
C253   C     0.89653   0.79913   0.29598   0.00000  Uiso   1.00
H254   H     0.89247   0.90586   0.07205   0.00000  Uiso   1.00
H255   H     0.80325   0.85274   0.98200   0.00000  Uiso   1.00
H256   H     0.90518   0.03097   0.07659   0.00000  Uiso   1.00
H257   H     0.98459   0.83418   0.14316   0.00000  Uiso   1.00
H258   H     0.67974   0.79344   0.90486   0.00000  Uiso   1.00
H259   H     0.89468   0.16924   0.10433   0.00000  Uiso   1.00
H260   H     0.06214   0.75428   0.24472   0.00000  Uiso   1.00
H261   H     0.70303   0.90258   0.24702   0.00000  Uiso   1.00
H262   H     0.60341   0.84927   0.16657   0.00000  Uiso   1.00
H263   H     0.70534   0.02750   0.26116   0.00000  Uiso   1.00
H264   H     0.78475   0.83072   0.32773   0.00000  Uiso   1.00
H265   H     0.51754   0.79063   0.05467   0.00000  Uiso   1.00
H266   H     0.73249   0.16643   0.25414   0.00000  Uiso   1.00
H267   H     0.89994   0.75147   0.39452   0.00000  Uiso   1.00
O268   O     0.53652   0.75705   0.92368   0.00000  Uiso   1.00
O269   O     0.81853   0.25008   0.18538   0.00000  Uiso   1.00
O270   O     0.03822   0.70567   0.36956   0.00000  Uiso   1.00
N271   N     0.65524   0.80008   0.95116   0.00000  Uiso   1.00
N272   N     0.85619   0.15144   0.13765   0.00000  Uiso   1.00
N273   N     0.01276   0.76350   0.26890   0.00000  Uiso   1.00
N274   N     0.56797   0.79857   0.03177   0.00000  Uiso   1.00
N275   N     0.76892   0.14992   0.21825   0.00000  Uiso   1.00
N276   N     0.92548   0.76199   0.34951   0.00000  Uiso   1.00
C277   C     0.34496   0.44891   0.38899   0.00000  Uiso   1.00
C278   C     0.27049   0.41900   0.41353   0.00000  Uiso   1.00
C279   C     0.25662   0.39451   0.47895   0.00000  Uiso   1.00
C280   C     0.18478   0.36923   0.49122   0.00000  Uiso   1.00
C281   C     0.07764   0.32293   0.53714   0.00000  Uiso   1.00
C282   C     0.32507   0.51658   0.36304   0.00000  Uiso   1.00
C283   C     0.35711   0.57413   0.38599   0.00000  Uiso   1.00
C284   C     0.33122   0.63099   0.35575   0.00000  Uiso   1.00
C285   C     0.30885   0.73618   0.32325   0.00000  Uiso   1.00
C286   C     0.36878   0.41021   0.32561   0.00000  Uiso   1.00
C287   C     0.43758   0.37834   0.31709   0.00000  Uiso   1.00
C288   C     0.44851   0.34565   0.25533   0.00000  Uiso   1.00
C289   C     0.49401   0.28569   0.16473   0.00000  Uiso   1.00
C290   C     0.24203   0.44754   0.29445   0.00000  Uiso   1.00
C291   C     0.21458   0.41826   0.36218   0.00000  Uiso   1.00
C292   C     0.14274   0.39300   0.37435   0.00000  Uiso   1.00
C293   C     0.12878   0.36848   0.43977   0.00000  Uiso   1.00
C294   C     0.26916   0.51584   0.31169   0.00000  Uiso   1.00
C295   C     0.24323   0.57262   0.28140   0.00000  Uiso   1.00
C296   C     0.27521   0.63025   0.30431   0.00000  Uiso   1.00
C297   C     0.31288   0.40947   0.27426   0.00000  Uiso   1.00
C298   C     0.32370   0.37683   0.21250   0.00000  Uiso   1.00
C299   C     0.39250   0.34491   0.20389   0.00000  Uiso   1.00
H300   H     0.38849   0.44949   0.42896   0.00000  Uiso   1.00
H301   H     0.29990   0.39510   0.51868   0.00000  Uiso   1.00
H302   H     0.40037   0.57469   0.42573   0.00000  Uiso   1.00
H303   H     0.48083   0.37892   0.35684   0.00000  Uiso   1.00
H304   H     0.17703   0.33450   0.59550   0.00000  Uiso   1.00
H305   H     0.38890   0.71317   0.39950   0.00000  Uiso   1.00
H306   H     0.55857   0.30036   0.25424   0.00000  Uiso   1.00
H307   H     0.19850   0.44697   0.25447   0.00000  Uiso   1.00
H308   H     0.09949   0.39244   0.33460   0.00000  Uiso   1.00
H309   H     0.19996   0.57203   0.24166   0.00000  Uiso   1.00
H310   H     0.28042   0.37626   0.17277   0.00000  Uiso   1.00
H311   H     0.01436   0.33234   0.44610   0.00000  Uiso   1.00
H312   H     0.22624   0.71102   0.25010   0.00000  Uiso   1.00
H313   H     0.39590   0.29820   0.10484   0.00000  Uiso   1.00
O314   O     0.03398   0.29761   0.57667   0.00000  Uiso   1.00
O315   O     0.31196   0.79442   0.31952   0.00000  Uiso   1.00
O316   O     0.53456   0.25281   0.12894   0.00000  Uiso   1.00
N317   N     0.15234   0.34146   0.54933   0.00000  Uiso   1.00
N318   N     0.35041   0.69550   0.36610   0.00000  Uiso   1.00
N319   N     0.50905   0.30957   0.23028   0.00000  Uiso   1.00
N320   N     0.06481   0.34030   0.46894   0.00000  Uiso   1.00
N321   N     0.26289   0.69434   0.28571   0.00000  Uiso   1.00
N322   N     0.42152   0.30840   0.14989   0.00000  Uiso   1.00
C323   C     0.15093   0.09490   0.11213   0.00000  Uiso   1.00
C324   C     0.22567   0.12422   0.08747   0.00000  Uiso   1.00
C325   C     0.23990   0.14802   0.02183   0.00000  Uiso   1.00
C326   C     0.31195   0.17285   0.00949   0.00000  Uiso   1.00
C327   C     0.41953   0.21821   0.96335   0.00000  Uiso   1.00
C328   C     0.17030   0.02738   0.13886   0.00000  Uiso   1.00
C329   C     0.13796   0.96976   0.11643   0.00000  Uiso   1.00
C330   C     0.16339   0.91308   0.14735   0.00000  Uiso   1.00
C331   C     0.18497   0.80809   0.18104   0.00000  Uiso   1.00
C332   C     0.12716   0.13430   0.17503   0.00000  Uiso   1.00
C333   C     0.05853   0.16658   0.18302   0.00000  Uiso   1.00
C334   C     0.04763   0.19990   0.24440   0.00000  Uiso   1.00
C335   C     0.00222   0.26093   0.33424   0.00000  Uiso   1.00
C336   C     0.25357   0.09667   0.20693   0.00000  Uiso   1.00
C337   C     0.28142   0.12518   0.13896   0.00000  Uiso   1.00
C338   C     0.35346   0.14999   0.12672   0.00000  Uiso   1.00
C339   C     0.36779   0.17382   0.06107   0.00000  Uiso   1.00
C340   C     0.22605   0.02834   0.19035   0.00000  Uiso   1.00
C341   C     0.25152   0.97173   0.22131   0.00000  Uiso   1.00
C342   C     0.21923   0.91404   0.19894   0.00000  Uiso   1.00
C343   C     0.18290   0.13527   0.22652   0.00000  Uiso   1.00
C344   C     0.17209   0.16855   0.28790   0.00000  Uiso   1.00
C345   C     0.10347   0.20087   0.29598   0.00000  Uiso   1.00
H346   H     0.10753   0.09414   0.07205   0.00000  Uiso   1.00
H347   H     0.19675   0.14726   0.98200   0.00000  Uiso   1.00
H348   H     0.09482   0.96903   0.07659   0.00000  Uiso   1.00
H349   H     0.01541   0.16582   0.14316   0.00000  Uiso   1.00
H350   H     0.32026   0.20656   0.90486   0.00000  Uiso   1.00
H351   H     0.10532   0.83076   0.10433   0.00000  Uiso   1.00
H352   H     0.93786   0.24572   0.24472   0.00000  Uiso   1.00
H353   H     0.29697   0.09742   0.24702   0.00000  Uiso   1.00
H354   H     0.39659   0.15073   0.16657   0.00000  Uiso   1.00
H355   H     0.29466   0.97250   0.26116   0.00000  Uiso   1.00
H356   H     0.21525   0.16928   0.32773   0.00000  Uiso   1.00
H357   H     0.48246   0.20937   0.05467   0.00000  Uiso   1.00
H358   H     0.26751   0.83357   0.25414   0.00000  Uiso   1.00
H359   H     0.10006   0.24853   0.39452   0.00000  Uiso   1.00
O360   O     0.46348   0.24295   0.92368   0.00000  Uiso   1.00
O361   O     0.18147   0.74992   0.18538   0.00000  Uiso   1.00
O362   O     0.96178   0.29433   0.36956   0.00000  Uiso   1.00
N363   N     0.34476   0.19992   0.95116   0.00000  Uiso   1.00
N364   N     0.14381   0.84856   0.13765   0.00000  Uiso   1.00
N365   N     0.98724   0.23650   0.26890   0.00000  Uiso   1.00
N366   N     0.43203   0.20143   0.03177   0.00000  Uiso   1.00
N367   N     0.23108   0.85008   0.21825   0.00000  Uiso   1.00
N368   N     0.07452   0.23801   0.34951   0.00000  Uiso   1.00
