data_job_02185
_audit_creation_date              2018-12-19
_audit_creation_method            'Materials Studio'
_symmetry_space_group_name_H-M    'P1'
_symmetry_Int_Tables_number       1
_symmetry_cell_setting            triclinic
loop_
_symmetry_equiv_pos_as_xyz
  x,y,z
_cell_length_a                    20.1673
_cell_length_b                    34.1410
_cell_length_c                    9.0748
_cell_angle_alpha                 90.0000
_cell_angle_beta                  90.0000
_cell_angle_gamma                 90.0000
loop_
_atom_site_label
_atom_site_type_symbol
_atom_site_fract_x
_atom_site_fract_y
_atom_site_fract_z
_atom_site_U_iso_or_equiv
_atom_site_adp_type
_atom_site_occupancy
C1     C     0.34260   0.63992   0.64553   0.00000  Uiso   1.00
C2     C     0.26776   0.63833   0.62227   0.00000  Uiso   1.00
C3     C     0.22067   0.65769   0.70671   0.00000  Uiso   1.00
C4     C     0.15469   0.65247   0.66766   0.00000  Uiso   1.00
C5     C     0.04125   0.65360   0.64974   0.00000  Uiso   1.00
C6     C     0.36511   0.59756   0.66392   0.00000  Uiso   1.00
C7     C     0.39988   0.58264   0.78337   0.00000  Uiso   1.00
C8     C     0.41587   0.54310   0.77936   0.00000  Uiso   1.00
C9     C     0.45361   0.48094   0.82605   0.00000  Uiso   1.00
C10    C     0.37201   0.65391   0.49996   0.00000  Uiso   1.00
C11    C     0.41260   0.68637   0.48155   0.00000  Uiso   1.00
C12    C     0.43441   0.69427   0.33950   0.00000  Uiso   1.00
C13    C     0.48287   0.71961   0.13162   0.00000  Uiso   1.00
C14    C     0.30917   0.59622   0.42602   0.00000  Uiso   1.00
C15    C     0.24960   0.61460   0.50305   0.00000  Uiso   1.00
C16    C     0.18368   0.60935   0.46385   0.00000  Uiso   1.00
C17    C     0.13650   0.62870   0.54822   0.00000  Uiso   1.00
C18    C     0.34696   0.57383   0.54470   0.00000  Uiso   1.00
C19    C     0.36290   0.53430   0.54051   0.00000  Uiso   1.00
C20    C     0.39768   0.51932   0.65992   0.00000  Uiso   1.00
C21    C     0.35386   0.63018   0.38073   0.00000  Uiso   1.00
C22    C     0.37562   0.63803   0.23869   0.00000  Uiso   1.00
C23    C     0.41623   0.67050   0.22006   0.00000  Uiso   1.00
H24    H     0.35673   0.65839   0.73835   0.00000  Uiso   1.00
H25    H     0.23473   0.67605   0.79898   0.00000  Uiso   1.00
H26    H     0.41393   0.60101   0.87561   0.00000  Uiso   1.00
H27    H     0.42664   0.70473   0.57384   0.00000  Uiso   1.00
H28    H     0.09147   0.68515   0.81365   0.00000  Uiso   1.00
H29    H     0.46933   0.52693   0.97521   0.00000  Uiso   1.00
H30    H     0.49614   0.74565   0.33887   0.00000  Uiso   1.00
H31    H     0.29504   0.57774   0.33319   0.00000  Uiso   1.00
H32    H     0.16965   0.59098   0.37158   0.00000  Uiso   1.00
H33    H     0.34885   0.51594   0.44822   0.00000  Uiso   1.00
H34    H     0.36156   0.61966   0.14645   0.00000  Uiso   1.00
H35    H     0.03864   0.61610   0.46677   0.00000  Uiso   1.00
H36    H     0.41651   0.45789   0.62833   0.00000  Uiso   1.00
H37    H     0.44331   0.67660   0.99198   0.00000  Uiso   1.00
O38    O     0.98369   0.66078   0.67281   0.00000  Uiso   1.00
O39    O     0.47944   0.45321   0.88476   0.00000  Uiso   1.00
O40    O     0.51460   0.74015   0.04989   0.00000  Uiso   1.00
N41    N     0.09625   0.66709   0.72672   0.00000  Uiso   1.00
N42    N     0.44952   0.51917   0.87779   0.00000  Uiso   1.00
N43    N     0.47459   0.72364   0.28287   0.00000  Uiso   1.00
N44    N     0.06782   0.62994   0.54007   0.00000  Uiso   1.00
N45    N     0.42109   0.48201   0.69113   0.00000  Uiso   1.00
N46    N     0.44617   0.68648   0.09621   0.00000  Uiso   1.00
C47    C     0.15740   0.36008   0.14553   0.00000  Uiso   1.00
C48    C     0.23224   0.36167   0.12227   0.00000  Uiso   1.00
C49    C     0.27933   0.34231   0.20671   0.00000  Uiso   1.00
C50    C     0.34531   0.34753   0.16766   0.00000  Uiso   1.00
C51    C     0.45875   0.34640   0.14974   0.00000  Uiso   1.00
C52    C     0.13489   0.40244   0.16392   0.00000  Uiso   1.00
C53    C     0.10012   0.41736   0.28337   0.00000  Uiso   1.00
C54    C     0.08413   0.45690   0.27936   0.00000  Uiso   1.00
C55    C     0.04639   0.51906   0.32605   0.00000  Uiso   1.00
C56    C     0.12799   0.34609   0.99996   0.00000  Uiso   1.00
C57    C     0.08740   0.31363   0.98155   0.00000  Uiso   1.00
C58    C     0.06559   0.30573   0.83950   0.00000  Uiso   1.00
C59    C     0.01713   0.28039   0.63162   0.00000  Uiso   1.00
C60    C     0.19083   0.40378   0.92602   0.00000  Uiso   1.00
C61    C     0.25040   0.38540   0.00305   0.00000  Uiso   1.00
C62    C     0.31632   0.39065   0.96385   0.00000  Uiso   1.00
C63    C     0.36350   0.37130   0.04822   0.00000  Uiso   1.00
C64    C     0.15304   0.42617   0.04470   0.00000  Uiso   1.00
C65    C     0.13710   0.46570   0.04051   0.00000  Uiso   1.00
C66    C     0.10232   0.48068   0.15992   0.00000  Uiso   1.00
C67    C     0.14614   0.36982   0.88073   0.00000  Uiso   1.00
C68    C     0.12438   0.36197   0.73869   0.00000  Uiso   1.00
C69    C     0.08377   0.32950   0.72006   0.00000  Uiso   1.00
H70    H     0.14327   0.34161   0.23835   0.00000  Uiso   1.00
H71    H     0.26527   0.32395   0.29898   0.00000  Uiso   1.00
H72    H     0.08607   0.39899   0.37561   0.00000  Uiso   1.00
H73    H     0.07336   0.29527   0.07384   0.00000  Uiso   1.00
H74    H     0.40853   0.31485   0.31365   0.00000  Uiso   1.00
H75    H     0.03067   0.47307   0.47521   0.00000  Uiso   1.00
H76    H     0.00386   0.25435   0.83887   0.00000  Uiso   1.00
H77    H     0.20496   0.42226   0.83319   0.00000  Uiso   1.00
H78    H     0.33035   0.40902   0.87158   0.00000  Uiso   1.00
H79    H     0.15115   0.48406   0.94822   0.00000  Uiso   1.00
H80    H     0.13844   0.38034   0.64645   0.00000  Uiso   1.00
H81    H     0.46136   0.38390   0.96677   0.00000  Uiso   1.00
H82    H     0.08349   0.54211   0.12833   0.00000  Uiso   1.00
H83    H     0.05669   0.32340   0.49198   0.00000  Uiso   1.00
O84    O     0.51631   0.33922   0.17281   0.00000  Uiso   1.00
O85    O     0.02056   0.54679   0.38476   0.00000  Uiso   1.00
O86    O     0.98540   0.25985   0.54989   0.00000  Uiso   1.00
N87    N     0.40375   0.33291   0.22672   0.00000  Uiso   1.00
N88    N     0.05048   0.48083   0.37779   0.00000  Uiso   1.00
N89    N     0.02541   0.27636   0.78287   0.00000  Uiso   1.00
N90    N     0.43218   0.37006   0.04007   0.00000  Uiso   1.00
N91    N     0.07891   0.51799   0.19113   0.00000  Uiso   1.00
N92    N     0.05383   0.31352   0.59621   0.00000  Uiso   1.00
C93    C     0.65740   0.13992   0.85447   0.00000  Uiso   1.00
C94    C     0.73224   0.13833   0.87773   0.00000  Uiso   1.00
C95    C     0.77933   0.15769   0.79329   0.00000  Uiso   1.00
C96    C     0.84531   0.15247   0.83234   0.00000  Uiso   1.00
C97    C     0.95875   0.15360   0.85026   0.00000  Uiso   1.00
C98    C     0.63489   0.09756   0.83608   0.00000  Uiso   1.00
C99    C     0.60012   0.08264   0.71663   0.00000  Uiso   1.00
C100   C     0.58413   0.04310   0.72064   0.00000  Uiso   1.00
C101   C     0.54639   0.98094   0.67395   0.00000  Uiso   1.00
C102   C     0.62799   0.15391   0.00004   0.00000  Uiso   1.00
C103   C     0.58740   0.18637   0.01845   0.00000  Uiso   1.00
C104   C     0.56559   0.19427   0.16050   0.00000  Uiso   1.00
C105   C     0.51713   0.21961   0.36838   0.00000  Uiso   1.00
C106   C     0.69083   0.09622   0.07398   0.00000  Uiso   1.00
C107   C     0.75040   0.11460   0.99695   0.00000  Uiso   1.00
C108   C     0.81632   0.10935   0.03615   0.00000  Uiso   1.00
C109   C     0.86350   0.12870   0.95178   0.00000  Uiso   1.00
C110   C     0.65304   0.07383   0.95530   0.00000  Uiso   1.00
C111   C     0.63710   0.03430   0.95949   0.00000  Uiso   1.00
C112   C     0.60232   0.01932   0.84008   0.00000  Uiso   1.00
C113   C     0.64614   0.13018   0.11927   0.00000  Uiso   1.00
C114   C     0.62438   0.13803   0.26131   0.00000  Uiso   1.00
C115   C     0.58377   0.17050   0.27994   0.00000  Uiso   1.00
H116   H     0.64327   0.15839   0.76165   0.00000  Uiso   1.00
H117   H     0.76527   0.17605   0.70102   0.00000  Uiso   1.00
H118   H     0.58607   0.10101   0.62439   0.00000  Uiso   1.00
H119   H     0.57336   0.20473   0.92616   0.00000  Uiso   1.00
H120   H     0.90853   0.18515   0.68635   0.00000  Uiso   1.00
H121   H     0.53067   0.02693   0.52479   0.00000  Uiso   1.00
H122   H     0.50386   0.24565   0.16113   0.00000  Uiso   1.00
H123   H     0.70496   0.07774   0.16681   0.00000  Uiso   1.00
H124   H     0.83035   0.09098   0.12842   0.00000  Uiso   1.00
H125   H     0.65115   0.01594   0.05178   0.00000  Uiso   1.00
H126   H     0.63844   0.11966   0.35355   0.00000  Uiso   1.00
H127   H     0.96136   0.11610   0.03323   0.00000  Uiso   1.00
H128   H     0.58349   0.95789   0.87167   0.00000  Uiso   1.00
H129   H     0.55669   0.17660   0.50802   0.00000  Uiso   1.00
O130   O     0.01631   0.16078   0.82719   0.00000  Uiso   1.00
O131   O     0.52056   0.95321   0.61524   0.00000  Uiso   1.00
O132   O     0.48540   0.24015   0.45011   0.00000  Uiso   1.00
N133   N     0.90375   0.16709   0.77328   0.00000  Uiso   1.00
N134   N     0.55048   0.01917   0.62221   0.00000  Uiso   1.00
N135   N     0.52541   0.22364   0.21713   0.00000  Uiso   1.00
N136   N     0.93218   0.12994   0.95993   0.00000  Uiso   1.00
N137   N     0.57891   0.98201   0.80887   0.00000  Uiso   1.00
N138   N     0.55383   0.18648   0.40379   0.00000  Uiso   1.00
C139   C     0.84260   0.86008   0.35447   0.00000  Uiso   1.00
C140   C     0.76776   0.86167   0.37773   0.00000  Uiso   1.00
C141   C     0.72067   0.84231   0.29329   0.00000  Uiso   1.00
C142   C     0.65469   0.84753   0.33234   0.00000  Uiso   1.00
C143   C     0.54125   0.84640   0.35026   0.00000  Uiso   1.00
C144   C     0.86511   0.90244   0.33608   0.00000  Uiso   1.00
C145   C     0.89988   0.91736   0.21663   0.00000  Uiso   1.00
C146   C     0.91587   0.95690   0.22064   0.00000  Uiso   1.00
C147   C     0.95361   0.01906   0.17395   0.00000  Uiso   1.00
C148   C     0.87201   0.84609   0.50004   0.00000  Uiso   1.00
C149   C     0.91260   0.81363   0.51845   0.00000  Uiso   1.00
C150   C     0.93441   0.80573   0.66050   0.00000  Uiso   1.00
C151   C     0.98287   0.78039   0.86838   0.00000  Uiso   1.00
C152   C     0.80917   0.90378   0.57398   0.00000  Uiso   1.00
C153   C     0.74960   0.88540   0.49695   0.00000  Uiso   1.00
C154   C     0.68368   0.89065   0.53615   0.00000  Uiso   1.00
C155   C     0.63650   0.87130   0.45178   0.00000  Uiso   1.00
C156   C     0.84696   0.92617   0.45530   0.00000  Uiso   1.00
C157   C     0.86290   0.96570   0.45949   0.00000  Uiso   1.00
C158   C     0.89768   0.98068   0.34008   0.00000  Uiso   1.00
C159   C     0.85386   0.86982   0.61927   0.00000  Uiso   1.00
C160   C     0.87562   0.86197   0.76131   0.00000  Uiso   1.00
C161   C     0.91623   0.82950   0.77994   0.00000  Uiso   1.00
H162   H     0.85673   0.84161   0.26165   0.00000  Uiso   1.00
H163   H     0.73473   0.82395   0.20102   0.00000  Uiso   1.00
H164   H     0.91393   0.89899   0.12439   0.00000  Uiso   1.00
H165   H     0.92664   0.79527   0.42616   0.00000  Uiso   1.00
H166   H     0.59147   0.81485   0.18635   0.00000  Uiso   1.00
H167   H     0.96933   0.97307   0.02479   0.00000  Uiso   1.00
H168   H     0.99614   0.75435   0.66113   0.00000  Uiso   1.00
H169   H     0.79504   0.92226   0.66681   0.00000  Uiso   1.00
H170   H     0.66965   0.90902   0.62842   0.00000  Uiso   1.00
H171   H     0.84885   0.98406   0.55178   0.00000  Uiso   1.00
H172   H     0.86156   0.88034   0.85355   0.00000  Uiso   1.00
H173   H     0.53864   0.88390   0.53323   0.00000  Uiso   1.00
H174   H     0.91651   0.04211   0.37167   0.00000  Uiso   1.00
H175   H     0.94331   0.82340   0.00802   0.00000  Uiso   1.00
O176   O     0.48369   0.83922   0.32719   0.00000  Uiso   1.00
O177   O     0.97944   0.04679   0.11524   0.00000  Uiso   1.00
O178   O     0.01460   0.75985   0.95011   0.00000  Uiso   1.00
N179   N     0.59625   0.83291   0.27328   0.00000  Uiso   1.00
N180   N     0.94952   0.98083   0.12221   0.00000  Uiso   1.00
N181   N     0.97459   0.77636   0.71713   0.00000  Uiso   1.00
N182   N     0.56782   0.87006   0.45993   0.00000  Uiso   1.00
N183   N     0.92109   0.01799   0.30887   0.00000  Uiso   1.00
N184   N     0.94617   0.81352   0.90379   0.00000  Uiso   1.00
C185   C     0.65740   0.36008   0.35447   0.00000  Uiso   1.00
C186   C     0.73224   0.36167   0.37773   0.00000  Uiso   1.00
C187   C     0.77933   0.34231   0.29329   0.00000  Uiso   1.00
C188   C     0.84531   0.34753   0.33234   0.00000  Uiso   1.00
C189   C     0.95875   0.34640   0.35026   0.00000  Uiso   1.00
C190   C     0.63489   0.40244   0.33608   0.00000  Uiso   1.00
C191   C     0.60012   0.41736   0.21663   0.00000  Uiso   1.00
C192   C     0.58413   0.45690   0.22064   0.00000  Uiso   1.00
C193   C     0.54639   0.51906   0.17395   0.00000  Uiso   1.00
C194   C     0.62799   0.34609   0.50004   0.00000  Uiso   1.00
C195   C     0.58740   0.31363   0.51845   0.00000  Uiso   1.00
C196   C     0.56559   0.30573   0.66050   0.00000  Uiso   1.00
C197   C     0.51713   0.28039   0.86838   0.00000  Uiso   1.00
C198   C     0.69083   0.40378   0.57398   0.00000  Uiso   1.00
C199   C     0.75040   0.38540   0.49695   0.00000  Uiso   1.00
C200   C     0.81632   0.39065   0.53615   0.00000  Uiso   1.00
C201   C     0.86350   0.37130   0.45178   0.00000  Uiso   1.00
C202   C     0.65304   0.42617   0.45530   0.00000  Uiso   1.00
C203   C     0.63710   0.46570   0.45949   0.00000  Uiso   1.00
C204   C     0.60232   0.48068   0.34008   0.00000  Uiso   1.00
C205   C     0.64614   0.36982   0.61927   0.00000  Uiso   1.00
C206   C     0.62438   0.36197   0.76131   0.00000  Uiso   1.00
C207   C     0.58377   0.32950   0.77994   0.00000  Uiso   1.00
H208   H     0.64327   0.34161   0.26165   0.00000  Uiso   1.00
H209   H     0.76527   0.32395   0.20102   0.00000  Uiso   1.00
H210   H     0.58607   0.39899   0.12439   0.00000  Uiso   1.00
H211   H     0.57336   0.29527   0.42616   0.00000  Uiso   1.00
H212   H     0.90853   0.31485   0.18635   0.00000  Uiso   1.00
H213   H     0.53067   0.47307   0.02479   0.00000  Uiso   1.00
H214   H     0.50386   0.25435   0.66113   0.00000  Uiso   1.00
H215   H     0.70496   0.42226   0.66681   0.00000  Uiso   1.00
H216   H     0.83035   0.40902   0.62842   0.00000  Uiso   1.00
H217   H     0.65115   0.48406   0.55178   0.00000  Uiso   1.00
H218   H     0.63844   0.38034   0.85355   0.00000  Uiso   1.00
H219   H     0.96136   0.38390   0.53323   0.00000  Uiso   1.00
H220   H     0.58349   0.54211   0.37167   0.00000  Uiso   1.00
H221   H     0.55669   0.32340   0.00802   0.00000  Uiso   1.00
O222   O     0.01631   0.33922   0.32719   0.00000  Uiso   1.00
O223   O     0.52056   0.54679   0.11524   0.00000  Uiso   1.00
O224   O     0.48540   0.25985   0.95011   0.00000  Uiso   1.00
N225   N     0.90375   0.33291   0.27328   0.00000  Uiso   1.00
N226   N     0.55048   0.48083   0.12221   0.00000  Uiso   1.00
N227   N     0.52541   0.27636   0.71713   0.00000  Uiso   1.00
N228   N     0.93218   0.37006   0.45993   0.00000  Uiso   1.00
N229   N     0.57891   0.51799   0.30887   0.00000  Uiso   1.00
N230   N     0.55383   0.31352   0.90379   0.00000  Uiso   1.00
C231   C     0.84260   0.63992   0.85447   0.00000  Uiso   1.00
C232   C     0.76776   0.63833   0.87773   0.00000  Uiso   1.00
C233   C     0.72067   0.65769   0.79329   0.00000  Uiso   1.00
C234   C     0.65469   0.65247   0.83234   0.00000  Uiso   1.00
C235   C     0.54125   0.65360   0.85026   0.00000  Uiso   1.00
C236   C     0.86511   0.59756   0.83608   0.00000  Uiso   1.00
C237   C     0.89988   0.58264   0.71663   0.00000  Uiso   1.00
C238   C     0.91587   0.54310   0.72064   0.00000  Uiso   1.00
C239   C     0.95361   0.48094   0.67395   0.00000  Uiso   1.00
C240   C     0.87201   0.65391   0.00004   0.00000  Uiso   1.00
C241   C     0.91260   0.68637   0.01845   0.00000  Uiso   1.00
C242   C     0.93441   0.69427   0.16050   0.00000  Uiso   1.00
C243   C     0.98287   0.71961   0.36838   0.00000  Uiso   1.00
C244   C     0.80917   0.59622   0.07398   0.00000  Uiso   1.00
C245   C     0.74960   0.61460   0.99695   0.00000  Uiso   1.00
C246   C     0.68368   0.60935   0.03615   0.00000  Uiso   1.00
C247   C     0.63650   0.62870   0.95178   0.00000  Uiso   1.00
C248   C     0.84696   0.57383   0.95530   0.00000  Uiso   1.00
C249   C     0.86290   0.53430   0.95949   0.00000  Uiso   1.00
C250   C     0.89768   0.51932   0.84008   0.00000  Uiso   1.00
C251   C     0.85386   0.63018   0.11927   0.00000  Uiso   1.00
C252   C     0.87562   0.63803   0.26131   0.00000  Uiso   1.00
C253   C     0.91623   0.67050   0.27994   0.00000  Uiso   1.00
H254   H     0.85673   0.65839   0.76165   0.00000  Uiso   1.00
H255   H     0.73473   0.67605   0.70102   0.00000  Uiso   1.00
H256   H     0.91393   0.60101   0.62439   0.00000  Uiso   1.00
H257   H     0.92664   0.70473   0.92616   0.00000  Uiso   1.00
H258   H     0.59147   0.68515   0.68635   0.00000  Uiso   1.00
H259   H     0.96933   0.52693   0.52479   0.00000  Uiso   1.00
H260   H     0.99614   0.74565   0.16113   0.00000  Uiso   1.00
H261   H     0.79504   0.57774   0.16681   0.00000  Uiso   1.00
H262   H     0.66965   0.59098   0.12842   0.00000  Uiso   1.00
H263   H     0.84885   0.51594   0.05178   0.00000  Uiso   1.00
H264   H     0.86156   0.61966   0.35355   0.00000  Uiso   1.00
H265   H     0.53864   0.61610   0.03323   0.00000  Uiso   1.00
H266   H     0.91651   0.45789   0.87167   0.00000  Uiso   1.00
H267   H     0.94331   0.67660   0.50802   0.00000  Uiso   1.00
O268   O     0.48369   0.66078   0.82719   0.00000  Uiso   1.00
O269   O     0.97944   0.45321   0.61524   0.00000  Uiso   1.00
O270   O     0.01460   0.74015   0.45011   0.00000  Uiso   1.00
N271   N     0.59625   0.66709   0.77328   0.00000  Uiso   1.00
N272   N     0.94952   0.51917   0.62221   0.00000  Uiso   1.00
N273   N     0.97459   0.72364   0.21713   0.00000  Uiso   1.00
N274   N     0.56782   0.62994   0.95993   0.00000  Uiso   1.00
N275   N     0.92109   0.48201   0.80887   0.00000  Uiso   1.00
N276   N     0.94617   0.68648   0.40379   0.00000  Uiso   1.00
C277   C     0.34260   0.86008   0.14553   0.00000  Uiso   1.00
C278   C     0.26776   0.86167   0.12227   0.00000  Uiso   1.00
C279   C     0.22067   0.84231   0.20671   0.00000  Uiso   1.00
C280   C     0.15469   0.84753   0.16766   0.00000  Uiso   1.00
C281   C     0.04125   0.84640   0.14974   0.00000  Uiso   1.00
C282   C     0.36511   0.90244   0.16392   0.00000  Uiso   1.00
C283   C     0.39988   0.91736   0.28337   0.00000  Uiso   1.00
C284   C     0.41587   0.95690   0.27936   0.00000  Uiso   1.00
C285   C     0.45361   0.01906   0.32605   0.00000  Uiso   1.00
C286   C     0.37201   0.84609   0.99996   0.00000  Uiso   1.00
C287   C     0.41260   0.81363   0.98155   0.00000  Uiso   1.00
C288   C     0.43441   0.80573   0.83950   0.00000  Uiso   1.00
C289   C     0.48287   0.78039   0.63162   0.00000  Uiso   1.00
C290   C     0.30917   0.90378   0.92602   0.00000  Uiso   1.00
C291   C     0.24960   0.88540   0.00305   0.00000  Uiso   1.00
C292   C     0.18368   0.89065   0.96385   0.00000  Uiso   1.00
C293   C     0.13650   0.87130   0.04822   0.00000  Uiso   1.00
C294   C     0.34696   0.92617   0.04470   0.00000  Uiso   1.00
C295   C     0.36290   0.96570   0.04051   0.00000  Uiso   1.00
C296   C     0.39768   0.98068   0.15992   0.00000  Uiso   1.00
C297   C     0.35386   0.86982   0.88073   0.00000  Uiso   1.00
C298   C     0.37562   0.86197   0.73869   0.00000  Uiso   1.00
C299   C     0.41623   0.82950   0.72006   0.00000  Uiso   1.00
H300   H     0.35673   0.84161   0.23835   0.00000  Uiso   1.00
H301   H     0.23473   0.82395   0.29898   0.00000  Uiso   1.00
H302   H     0.41393   0.89899   0.37561   0.00000  Uiso   1.00
H303   H     0.42664   0.79527   0.07384   0.00000  Uiso   1.00
H304   H     0.09147   0.81485   0.31365   0.00000  Uiso   1.00
H305   H     0.46933   0.97307   0.47521   0.00000  Uiso   1.00
H306   H     0.49614   0.75435   0.83887   0.00000  Uiso   1.00
H307   H     0.29504   0.92226   0.83319   0.00000  Uiso   1.00
H308   H     0.16965   0.90902   0.87158   0.00000  Uiso   1.00
H309   H     0.34885   0.98406   0.94822   0.00000  Uiso   1.00
H310   H     0.36156   0.88034   0.64645   0.00000  Uiso   1.00
H311   H     0.03864   0.88390   0.96677   0.00000  Uiso   1.00
H312   H     0.41651   0.04211   0.12833   0.00000  Uiso   1.00
H313   H     0.44331   0.82340   0.49198   0.00000  Uiso   1.00
O314   O     0.98369   0.83922   0.17281   0.00000  Uiso   1.00
O315   O     0.47944   0.04679   0.38476   0.00000  Uiso   1.00
O316   O     0.51460   0.75985   0.54989   0.00000  Uiso   1.00
N317   N     0.09625   0.83291   0.22672   0.00000  Uiso   1.00
N318   N     0.44952   0.98083   0.37779   0.00000  Uiso   1.00
N319   N     0.47459   0.77636   0.78287   0.00000  Uiso   1.00
N320   N     0.06782   0.87006   0.04007   0.00000  Uiso   1.00
N321   N     0.42109   0.01799   0.19113   0.00000  Uiso   1.00
N322   N     0.44617   0.81352   0.59621   0.00000  Uiso   1.00
C323   C     0.15740   0.13992   0.64553   0.00000  Uiso   1.00
C324   C     0.23224   0.13833   0.62227   0.00000  Uiso   1.00
C325   C     0.27933   0.15769   0.70671   0.00000  Uiso   1.00
C326   C     0.34531   0.15247   0.66766   0.00000  Uiso   1.00
C327   C     0.45875   0.15360   0.64974   0.00000  Uiso   1.00
C328   C     0.13489   0.09756   0.66392   0.00000  Uiso   1.00
C329   C     0.10012   0.08264   0.78337   0.00000  Uiso   1.00
C330   C     0.08413   0.04310   0.77936   0.00000  Uiso   1.00
C331   C     0.04639   0.98094   0.82605   0.00000  Uiso   1.00
C332   C     0.12799   0.15391   0.49996   0.00000  Uiso   1.00
C333   C     0.08740   0.18637   0.48155   0.00000  Uiso   1.00
C334   C     0.06559   0.19427   0.33950   0.00000  Uiso   1.00
C335   C     0.01713   0.21961   0.13162   0.00000  Uiso   1.00
C336   C     0.19083   0.09622   0.42602   0.00000  Uiso   1.00
C337   C     0.25040   0.11460   0.50305   0.00000  Uiso   1.00
C338   C     0.31632   0.10935   0.46385   0.00000  Uiso   1.00
C339   C     0.36350   0.12870   0.54822   0.00000  Uiso   1.00
C340   C     0.15304   0.07383   0.54470   0.00000  Uiso   1.00
C341   C     0.13710   0.03430   0.54051   0.00000  Uiso   1.00
C342   C     0.10232   0.01932   0.65992   0.00000  Uiso   1.00
C343   C     0.14614   0.13018   0.38073   0.00000  Uiso   1.00
C344   C     0.12438   0.13803   0.23869   0.00000  Uiso   1.00
C345   C     0.08377   0.17050   0.22006   0.00000  Uiso   1.00
H346   H     0.14327   0.15839   0.73835   0.00000  Uiso   1.00
H347   H     0.26527   0.17605   0.79898   0.00000  Uiso   1.00
H348   H     0.08607   0.10101   0.87561   0.00000  Uiso   1.00
H349   H     0.07336   0.20473   0.57384   0.00000  Uiso   1.00
H350   H     0.40853   0.18515   0.81365   0.00000  Uiso   1.00
H351   H     0.03067   0.02693   0.97521   0.00000  Uiso   1.00
H352   H     0.00386   0.24565   0.33887   0.00000  Uiso   1.00
H353   H     0.20496   0.07774   0.33319   0.00000  Uiso   1.00
H354   H     0.33035   0.09098   0.37158   0.00000  Uiso   1.00
H355   H     0.15115   0.01594   0.44822   0.00000  Uiso   1.00
H356   H     0.13844   0.11966   0.14645   0.00000  Uiso   1.00
H357   H     0.46136   0.11610   0.46677   0.00000  Uiso   1.00
H358   H     0.08349   0.95789   0.62833   0.00000  Uiso   1.00
H359   H     0.05669   0.17660   0.99198   0.00000  Uiso   1.00
O360   O     0.51631   0.16078   0.67281   0.00000  Uiso   1.00
O361   O     0.02056   0.95321   0.88476   0.00000  Uiso   1.00
O362   O     0.98540   0.24015   0.04989   0.00000  Uiso   1.00
N363   N     0.40375   0.16709   0.72672   0.00000  Uiso   1.00
N364   N     0.05048   0.01917   0.87779   0.00000  Uiso   1.00
N365   N     0.02541   0.22364   0.28287   0.00000  Uiso   1.00
N366   N     0.43218   0.12994   0.54007   0.00000  Uiso   1.00
N367   N     0.07891   0.98201   0.69113   0.00000  Uiso   1.00
N368   N     0.05383   0.18648   0.09621   0.00000  Uiso   1.00
