data_job_04830
_audit_creation_date              2018-12-19
_audit_creation_method            'Materials Studio'
_symmetry_space_group_name_H-M    'P1'
_symmetry_Int_Tables_number       1
_symmetry_cell_setting            triclinic
loop_
_symmetry_equiv_pos_as_xyz
  x,y,z
_cell_length_a                    23.5635
_cell_length_b                    14.7479
_cell_length_c                    14.0705
_cell_angle_alpha                 90.0000
_cell_angle_beta                  90.0000
_cell_angle_gamma                 90.0000
loop_
_atom_site_label
_atom_site_type_symbol
_atom_site_fract_x
_atom_site_fract_y
_atom_site_fract_z
_atom_site_U_iso_or_equiv
_atom_site_adp_type
_atom_site_occupancy
C1     C     0.57623   0.20382   0.92674   0.00000  Uiso   1.00
C2     C     0.52403   0.20520   0.99078   0.00000  Uiso   1.00
C3     C     0.47410   0.15754   0.97526   0.00000  Uiso   1.00
C4     C     0.43128   0.16787   0.04217   0.00000  Uiso   1.00
C5     C     0.34916   0.16153   0.12949   0.00000  Uiso   1.00
C6     C     0.58776   0.30234   0.90012   0.00000  Uiso   1.00
C7     C     0.59142   0.33636   0.80835   0.00000  Uiso   1.00
C8     C     0.60226   0.42846   0.79895   0.00000  Uiso   1.00
C9     C     0.61913   0.57292   0.74550   0.00000  Uiso   1.00
C10    C     0.62563   0.17457   0.98968   0.00000  Uiso   1.00
C11    C     0.66114   0.10116   0.97321   0.00000  Uiso   1.00
C12    C     0.70387   0.08570   0.03919   0.00000  Uiso   1.00
C13    C     0.77954   0.03177   0.12480   0.00000  Uiso   1.00
C14    C     0.58897   0.30690   0.07319   0.00000  Uiso   1.00
C15    C     0.53095   0.26119   0.07033   0.00000  Uiso   1.00
C16    C     0.48820   0.27159   0.13729   0.00000  Uiso   1.00
C17    C     0.43821   0.22395   0.12186   0.00000  Uiso   1.00
C18    C     0.59468   0.35833   0.97966   0.00000  Uiso   1.00
C19    C     0.60552   0.45041   0.97039   0.00000  Uiso   1.00
C20    C     0.60920   0.48455   0.87864   0.00000  Uiso   1.00
C21    C     0.63255   0.23056   0.06923   0.00000  Uiso   1.00
C22    C     0.67524   0.21521   0.13524   0.00000  Uiso   1.00
C23    C     0.71081   0.14179   0.11888   0.00000  Uiso   1.00
H24    H     0.57084   0.16024   0.86481   0.00000  Uiso   1.00
H25    H     0.46875   0.11423   0.91368   0.00000  Uiso   1.00
H26    H     0.58607   0.29301   0.74681   0.00000  Uiso   1.00
H27    H     0.65577   0.05785   0.91164   0.00000  Uiso   1.00
H28    H     0.35862   0.08793   0.00293   0.00000  Uiso   1.00
H29    H     0.60600   0.46491   0.65107   0.00000  Uiso   1.00
H30    H     0.75299   0.96903   0.99865   0.00000  Uiso   1.00
H31    H     0.59436   0.35050   0.13513   0.00000  Uiso   1.00
H32    H     0.49356   0.31492   0.19884   0.00000  Uiso   1.00
H33    H     0.61088   0.49371   0.03196   0.00000  Uiso   1.00
H34    H     0.68058   0.25855   0.19679   0.00000  Uiso   1.00
H35    H     0.37875   0.25083   0.23437   0.00000  Uiso   1.00
H36    H     0.62614   0.62781   0.88251   0.00000  Uiso   1.00
H37    H     0.77312   0.13192   0.23009   0.00000  Uiso   1.00
O38    O     0.30195   0.14257   0.15567   0.00000  Uiso   1.00
O39    O     0.62652   0.63714   0.69404   0.00000  Uiso   1.00
O40    O     0.81935   0.98656   0.15005   0.00000  Uiso   1.00
N41    N     0.37720   0.13114   0.04867   0.00000  Uiso   1.00
N42    N     0.60848   0.48359   0.71970   0.00000  Uiso   1.00
N43    N     0.74590   0.02000   0.04464   0.00000  Uiso   1.00
N44    N     0.38803   0.21879   0.17320   0.00000  Uiso   1.00
N45    N     0.61931   0.57124   0.84424   0.00000  Uiso   1.00
N46    N     0.75674   0.10765   0.16918   0.00000  Uiso   1.00
C47    C     0.92377   0.79618   0.42674   0.00000  Uiso   1.00
C48    C     0.97597   0.79480   0.49078   0.00000  Uiso   1.00
C49    C     0.02590   0.84246   0.47526   0.00000  Uiso   1.00
C50    C     0.06872   0.83213   0.54217   0.00000  Uiso   1.00
C51    C     0.15084   0.83847   0.62949   0.00000  Uiso   1.00
C52    C     0.91224   0.69766   0.40012   0.00000  Uiso   1.00
C53    C     0.90858   0.66364   0.30835   0.00000  Uiso   1.00
C54    C     0.89774   0.57154   0.29895   0.00000  Uiso   1.00
C55    C     0.88087   0.42708   0.24550   0.00000  Uiso   1.00
C56    C     0.87437   0.82543   0.48968   0.00000  Uiso   1.00
C57    C     0.83886   0.89884   0.47321   0.00000  Uiso   1.00
C58    C     0.79613   0.91430   0.53919   0.00000  Uiso   1.00
C59    C     0.72046   0.96823   0.62480   0.00000  Uiso   1.00
C60    C     0.91103   0.69310   0.57319   0.00000  Uiso   1.00
C61    C     0.96905   0.73881   0.57033   0.00000  Uiso   1.00
C62    C     0.01180   0.72841   0.63729   0.00000  Uiso   1.00
C63    C     0.06179   0.77605   0.62186   0.00000  Uiso   1.00
C64    C     0.90532   0.64167   0.47966   0.00000  Uiso   1.00
C65    C     0.89448   0.54959   0.47039   0.00000  Uiso   1.00
C66    C     0.89080   0.51545   0.37864   0.00000  Uiso   1.00
C67    C     0.86745   0.76944   0.56923   0.00000  Uiso   1.00
C68    C     0.82476   0.78479   0.63524   0.00000  Uiso   1.00
C69    C     0.78919   0.85821   0.61888   0.00000  Uiso   1.00
H70    H     0.92916   0.83976   0.36481   0.00000  Uiso   1.00
H71    H     0.03125   0.88577   0.41368   0.00000  Uiso   1.00
H72    H     0.91393   0.70699   0.24681   0.00000  Uiso   1.00
H73    H     0.84423   0.94215   0.41164   0.00000  Uiso   1.00
H74    H     0.14138   0.91207   0.50293   0.00000  Uiso   1.00
H75    H     0.89400   0.53509   0.15107   0.00000  Uiso   1.00
H76    H     0.74701   0.03097   0.49865   0.00000  Uiso   1.00
H77    H     0.90564   0.64950   0.63513   0.00000  Uiso   1.00
H78    H     0.00644   0.68508   0.69884   0.00000  Uiso   1.00
H79    H     0.88912   0.50629   0.53196   0.00000  Uiso   1.00
H80    H     0.81942   0.74145   0.69679   0.00000  Uiso   1.00
H81    H     0.12125   0.74917   0.73437   0.00000  Uiso   1.00
H82    H     0.87386   0.37219   0.38251   0.00000  Uiso   1.00
H83    H     0.72688   0.86808   0.73009   0.00000  Uiso   1.00
O84    O     0.19805   0.85743   0.65567   0.00000  Uiso   1.00
O85    O     0.87348   0.36286   0.19404   0.00000  Uiso   1.00
O86    O     0.68065   0.01344   0.65005   0.00000  Uiso   1.00
N87    N     0.12280   0.86886   0.54867   0.00000  Uiso   1.00
N88    N     0.89152   0.51641   0.21970   0.00000  Uiso   1.00
N89    N     0.75410   0.98000   0.54464   0.00000  Uiso   1.00
N90    N     0.11197   0.78121   0.67320   0.00000  Uiso   1.00
N91    N     0.88069   0.42876   0.34424   0.00000  Uiso   1.00
N92    N     0.74326   0.89235   0.66918   0.00000  Uiso   1.00
C93    C     0.42377   0.70382   0.57326   0.00000  Uiso   1.00
C94    C     0.47597   0.70520   0.50922   0.00000  Uiso   1.00
C95    C     0.52590   0.65754   0.52474   0.00000  Uiso   1.00
C96    C     0.56872   0.66787   0.45783   0.00000  Uiso   1.00
C97    C     0.65084   0.66153   0.37051   0.00000  Uiso   1.00
C98    C     0.41224   0.80234   0.59988   0.00000  Uiso   1.00
C99    C     0.40858   0.83636   0.69165   0.00000  Uiso   1.00
C100   C     0.39774   0.92846   0.70105   0.00000  Uiso   1.00
C101   C     0.38087   0.07292   0.75450   0.00000  Uiso   1.00
C102   C     0.37437   0.67457   0.51032   0.00000  Uiso   1.00
C103   C     0.33886   0.60116   0.52679   0.00000  Uiso   1.00
C104   C     0.29613   0.58570   0.46081   0.00000  Uiso   1.00
C105   C     0.22046   0.53177   0.37520   0.00000  Uiso   1.00
C106   C     0.41103   0.80690   0.42681   0.00000  Uiso   1.00
C107   C     0.46905   0.76119   0.42967   0.00000  Uiso   1.00
C108   C     0.51180   0.77159   0.36271   0.00000  Uiso   1.00
C109   C     0.56179   0.72395   0.37814   0.00000  Uiso   1.00
C110   C     0.40532   0.85833   0.52034   0.00000  Uiso   1.00
C111   C     0.39448   0.95041   0.52961   0.00000  Uiso   1.00
C112   C     0.39080   0.98455   0.62136   0.00000  Uiso   1.00
C113   C     0.36745   0.73056   0.43077   0.00000  Uiso   1.00
C114   C     0.32476   0.71521   0.36476   0.00000  Uiso   1.00
C115   C     0.28919   0.64179   0.38112   0.00000  Uiso   1.00
H116   H     0.42916   0.66024   0.63519   0.00000  Uiso   1.00
H117   H     0.53125   0.61423   0.58632   0.00000  Uiso   1.00
H118   H     0.41393   0.79301   0.75319   0.00000  Uiso   1.00
H119   H     0.34423   0.55785   0.58836   0.00000  Uiso   1.00
H120   H     0.64138   0.58793   0.49707   0.00000  Uiso   1.00
H121   H     0.39400   0.96491   0.84893   0.00000  Uiso   1.00
H122   H     0.24701   0.46903   0.50135   0.00000  Uiso   1.00
H123   H     0.40564   0.85050   0.36487   0.00000  Uiso   1.00
H124   H     0.50644   0.81492   0.30116   0.00000  Uiso   1.00
H125   H     0.38912   0.99371   0.46804   0.00000  Uiso   1.00
H126   H     0.31942   0.75855   0.30321   0.00000  Uiso   1.00
H127   H     0.62125   0.75083   0.26563   0.00000  Uiso   1.00
H128   H     0.37386   0.12781   0.61749   0.00000  Uiso   1.00
H129   H     0.22688   0.63192   0.26991   0.00000  Uiso   1.00
O130   O     0.69805   0.64257   0.34433   0.00000  Uiso   1.00
O131   O     0.37348   0.13714   0.80596   0.00000  Uiso   1.00
O132   O     0.18065   0.48656   0.34995   0.00000  Uiso   1.00
N133   N     0.62280   0.63114   0.45133   0.00000  Uiso   1.00
N134   N     0.39152   0.98359   0.78030   0.00000  Uiso   1.00
N135   N     0.25410   0.52000   0.45536   0.00000  Uiso   1.00
N136   N     0.61197   0.71879   0.32680   0.00000  Uiso   1.00
N137   N     0.38069   0.07124   0.65576   0.00000  Uiso   1.00
N138   N     0.24326   0.60765   0.33082   0.00000  Uiso   1.00
C139   C     0.07623   0.29618   0.07326   0.00000  Uiso   1.00
C140   C     0.02403   0.29480   0.00922   0.00000  Uiso   1.00
C141   C     0.97410   0.34246   0.02474   0.00000  Uiso   1.00
C142   C     0.93128   0.33213   0.95783   0.00000  Uiso   1.00
C143   C     0.84916   0.33847   0.87051   0.00000  Uiso   1.00
C144   C     0.08776   0.19766   0.09988   0.00000  Uiso   1.00
C145   C     0.09142   0.16364   0.19165   0.00000  Uiso   1.00
C146   C     0.10226   0.07154   0.20105   0.00000  Uiso   1.00
C147   C     0.11913   0.92708   0.25450   0.00000  Uiso   1.00
C148   C     0.12563   0.32543   0.01032   0.00000  Uiso   1.00
C149   C     0.16114   0.39884   0.02679   0.00000  Uiso   1.00
C150   C     0.20387   0.41430   0.96081   0.00000  Uiso   1.00
C151   C     0.27954   0.46823   0.87520   0.00000  Uiso   1.00
C152   C     0.08897   0.19310   0.92681   0.00000  Uiso   1.00
C153   C     0.03095   0.23881   0.92967   0.00000  Uiso   1.00
C154   C     0.98820   0.22841   0.86271   0.00000  Uiso   1.00
C155   C     0.93821   0.27605   0.87814   0.00000  Uiso   1.00
C156   C     0.09468   0.14167   0.02034   0.00000  Uiso   1.00
C157   C     0.10552   0.04959   0.02961   0.00000  Uiso   1.00
C158   C     0.10920   0.01545   0.12136   0.00000  Uiso   1.00
C159   C     0.13255   0.26944   0.93077   0.00000  Uiso   1.00
C160   C     0.17524   0.28479   0.86476   0.00000  Uiso   1.00
C161   C     0.21081   0.35821   0.88112   0.00000  Uiso   1.00
H162   H     0.07084   0.33976   0.13519   0.00000  Uiso   1.00
H163   H     0.96875   0.38577   0.08632   0.00000  Uiso   1.00
H164   H     0.08607   0.20699   0.25319   0.00000  Uiso   1.00
H165   H     0.15577   0.44215   0.08836   0.00000  Uiso   1.00
H166   H     0.85862   0.41207   0.99707   0.00000  Uiso   1.00
H167   H     0.10600   0.03509   0.34893   0.00000  Uiso   1.00
H168   H     0.25299   0.53097   0.00135   0.00000  Uiso   1.00
H169   H     0.09436   0.14950   0.86487   0.00000  Uiso   1.00
H170   H     0.99356   0.18508   0.80116   0.00000  Uiso   1.00
H171   H     0.11088   0.00629   0.96804   0.00000  Uiso   1.00
H172   H     0.18058   0.24145   0.80321   0.00000  Uiso   1.00
H173   H     0.87875   0.24917   0.76563   0.00000  Uiso   1.00
H174   H     0.12614   0.87219   0.11749   0.00000  Uiso   1.00
H175   H     0.27312   0.36808   0.76991   0.00000  Uiso   1.00
O176   O     0.80195   0.35743   0.84433   0.00000  Uiso   1.00
O177   O     0.12652   0.86286   0.30596   0.00000  Uiso   1.00
O178   O     0.31935   0.51344   0.84995   0.00000  Uiso   1.00
N179   N     0.87720   0.36886   0.95133   0.00000  Uiso   1.00
N180   N     0.10848   0.01641   0.28030   0.00000  Uiso   1.00
N181   N     0.24590   0.48000   0.95536   0.00000  Uiso   1.00
N182   N     0.88803   0.28121   0.82680   0.00000  Uiso   1.00
N183   N     0.11931   0.92876   0.15576   0.00000  Uiso   1.00
N184   N     0.25674   0.39235   0.83082   0.00000  Uiso   1.00
C185   C     0.42377   0.79618   0.07326   0.00000  Uiso   1.00
C186   C     0.47597   0.79480   0.00922   0.00000  Uiso   1.00
C187   C     0.52590   0.84246   0.02474   0.00000  Uiso   1.00
C188   C     0.56872   0.83213   0.95783   0.00000  Uiso   1.00
C189   C     0.65084   0.83847   0.87051   0.00000  Uiso   1.00
C190   C     0.41224   0.69766   0.09988   0.00000  Uiso   1.00
C191   C     0.40858   0.66364   0.19165   0.00000  Uiso   1.00
C192   C     0.39774   0.57154   0.20105   0.00000  Uiso   1.00
C193   C     0.38087   0.42708   0.25450   0.00000  Uiso   1.00
C194   C     0.37437   0.82543   0.01032   0.00000  Uiso   1.00
C195   C     0.33886   0.89884   0.02679   0.00000  Uiso   1.00
C196   C     0.29613   0.91430   0.96081   0.00000  Uiso   1.00
C197   C     0.22046   0.96823   0.87520   0.00000  Uiso   1.00
C198   C     0.41103   0.69310   0.92681   0.00000  Uiso   1.00
C199   C     0.46905   0.73881   0.92967   0.00000  Uiso   1.00
C200   C     0.51180   0.72841   0.86271   0.00000  Uiso   1.00
C201   C     0.56179   0.77605   0.87814   0.00000  Uiso   1.00
C202   C     0.40532   0.64167   0.02034   0.00000  Uiso   1.00
C203   C     0.39448   0.54959   0.02961   0.00000  Uiso   1.00
C204   C     0.39080   0.51545   0.12136   0.00000  Uiso   1.00
C205   C     0.36745   0.76944   0.93077   0.00000  Uiso   1.00
C206   C     0.32476   0.78479   0.86476   0.00000  Uiso   1.00
C207   C     0.28919   0.85821   0.88112   0.00000  Uiso   1.00
H208   H     0.42916   0.83976   0.13519   0.00000  Uiso   1.00
H209   H     0.53125   0.88577   0.08632   0.00000  Uiso   1.00
H210   H     0.41393   0.70699   0.25319   0.00000  Uiso   1.00
H211   H     0.34423   0.94215   0.08836   0.00000  Uiso   1.00
H212   H     0.64138   0.91207   0.99707   0.00000  Uiso   1.00
H213   H     0.39400   0.53509   0.34893   0.00000  Uiso   1.00
H214   H     0.24701   0.03097   0.00135   0.00000  Uiso   1.00
H215   H     0.40564   0.64950   0.86487   0.00000  Uiso   1.00
H216   H     0.50644   0.68508   0.80116   0.00000  Uiso   1.00
H217   H     0.38912   0.50629   0.96804   0.00000  Uiso   1.00
H218   H     0.31942   0.74145   0.80321   0.00000  Uiso   1.00
H219   H     0.62125   0.74917   0.76563   0.00000  Uiso   1.00
H220   H     0.37386   0.37219   0.11749   0.00000  Uiso   1.00
H221   H     0.22688   0.86808   0.76991   0.00000  Uiso   1.00
O222   O     0.69805   0.85743   0.84433   0.00000  Uiso   1.00
O223   O     0.37348   0.36286   0.30596   0.00000  Uiso   1.00
O224   O     0.18065   0.01344   0.84995   0.00000  Uiso   1.00
N225   N     0.62280   0.86886   0.95133   0.00000  Uiso   1.00
N226   N     0.39152   0.51641   0.28030   0.00000  Uiso   1.00
N227   N     0.25410   0.98000   0.95536   0.00000  Uiso   1.00
N228   N     0.61197   0.78121   0.82680   0.00000  Uiso   1.00
N229   N     0.38069   0.42876   0.15576   0.00000  Uiso   1.00
N230   N     0.24326   0.89235   0.83082   0.00000  Uiso   1.00
C231   C     0.07623   0.20382   0.57326   0.00000  Uiso   1.00
C232   C     0.02403   0.20520   0.50922   0.00000  Uiso   1.00
C233   C     0.97410   0.15754   0.52474   0.00000  Uiso   1.00
C234   C     0.93128   0.16787   0.45783   0.00000  Uiso   1.00
C235   C     0.84916   0.16153   0.37051   0.00000  Uiso   1.00
C236   C     0.08776   0.30234   0.59988   0.00000  Uiso   1.00
C237   C     0.09142   0.33636   0.69165   0.00000  Uiso   1.00
C238   C     0.10226   0.42846   0.70105   0.00000  Uiso   1.00
C239   C     0.11913   0.57292   0.75450   0.00000  Uiso   1.00
C240   C     0.12563   0.17457   0.51032   0.00000  Uiso   1.00
C241   C     0.16114   0.10116   0.52679   0.00000  Uiso   1.00
C242   C     0.20387   0.08570   0.46081   0.00000  Uiso   1.00
C243   C     0.27954   0.03177   0.37520   0.00000  Uiso   1.00
C244   C     0.08897   0.30690   0.42681   0.00000  Uiso   1.00
C245   C     0.03095   0.26119   0.42967   0.00000  Uiso   1.00
C246   C     0.98820   0.27159   0.36271   0.00000  Uiso   1.00
C247   C     0.93821   0.22395   0.37814   0.00000  Uiso   1.00
C248   C     0.09468   0.35833   0.52034   0.00000  Uiso   1.00
C249   C     0.10552   0.45041   0.52961   0.00000  Uiso   1.00
C250   C     0.10920   0.48455   0.62136   0.00000  Uiso   1.00
C251   C     0.13255   0.23056   0.43077   0.00000  Uiso   1.00
C252   C     0.17524   0.21521   0.36476   0.00000  Uiso   1.00
C253   C     0.21081   0.14179   0.38112   0.00000  Uiso   1.00
H254   H     0.07084   0.16024   0.63519   0.00000  Uiso   1.00
H255   H     0.96875   0.11423   0.58632   0.00000  Uiso   1.00
H256   H     0.08607   0.29301   0.75319   0.00000  Uiso   1.00
H257   H     0.15577   0.05785   0.58836   0.00000  Uiso   1.00
H258   H     0.85862   0.08793   0.49707   0.00000  Uiso   1.00
H259   H     0.10600   0.46491   0.84893   0.00000  Uiso   1.00
H260   H     0.25299   0.96903   0.50135   0.00000  Uiso   1.00
H261   H     0.09436   0.35050   0.36487   0.00000  Uiso   1.00
H262   H     0.99356   0.31492   0.30116   0.00000  Uiso   1.00
H263   H     0.11088   0.49371   0.46804   0.00000  Uiso   1.00
H264   H     0.18058   0.25855   0.30321   0.00000  Uiso   1.00
H265   H     0.87875   0.25083   0.26563   0.00000  Uiso   1.00
H266   H     0.12614   0.62781   0.61749   0.00000  Uiso   1.00
H267   H     0.27312   0.13192   0.26991   0.00000  Uiso   1.00
O268   O     0.80195   0.14257   0.34433   0.00000  Uiso   1.00
O269   O     0.12652   0.63714   0.80596   0.00000  Uiso   1.00
O270   O     0.31935   0.98656   0.34995   0.00000  Uiso   1.00
N271   N     0.87720   0.13114   0.45133   0.00000  Uiso   1.00
N272   N     0.10848   0.48359   0.78030   0.00000  Uiso   1.00
N273   N     0.24590   0.02000   0.45536   0.00000  Uiso   1.00
N274   N     0.88803   0.21879   0.32680   0.00000  Uiso   1.00
N275   N     0.11931   0.57124   0.65576   0.00000  Uiso   1.00
N276   N     0.25674   0.10765   0.33082   0.00000  Uiso   1.00
C277   C     0.57623   0.29618   0.42674   0.00000  Uiso   1.00
C278   C     0.52403   0.29480   0.49078   0.00000  Uiso   1.00
C279   C     0.47410   0.34246   0.47526   0.00000  Uiso   1.00
C280   C     0.43128   0.33213   0.54217   0.00000  Uiso   1.00
C281   C     0.34916   0.33847   0.62949   0.00000  Uiso   1.00
C282   C     0.58776   0.19766   0.40012   0.00000  Uiso   1.00
C283   C     0.59142   0.16364   0.30835   0.00000  Uiso   1.00
C284   C     0.60226   0.07154   0.29895   0.00000  Uiso   1.00
C285   C     0.61913   0.92708   0.24550   0.00000  Uiso   1.00
C286   C     0.62563   0.32543   0.48968   0.00000  Uiso   1.00
C287   C     0.66114   0.39884   0.47321   0.00000  Uiso   1.00
C288   C     0.70387   0.41430   0.53919   0.00000  Uiso   1.00
C289   C     0.77954   0.46823   0.62480   0.00000  Uiso   1.00
C290   C     0.58897   0.19310   0.57319   0.00000  Uiso   1.00
C291   C     0.53095   0.23881   0.57033   0.00000  Uiso   1.00
C292   C     0.48820   0.22841   0.63729   0.00000  Uiso   1.00
C293   C     0.43821   0.27605   0.62186   0.00000  Uiso   1.00
C294   C     0.59468   0.14167   0.47966   0.00000  Uiso   1.00
C295   C     0.60552   0.04959   0.47039   0.00000  Uiso   1.00
C296   C     0.60920   0.01545   0.37864   0.00000  Uiso   1.00
C297   C     0.63255   0.26944   0.56923   0.00000  Uiso   1.00
C298   C     0.67524   0.28479   0.63524   0.00000  Uiso   1.00
C299   C     0.71081   0.35821   0.61888   0.00000  Uiso   1.00
H300   H     0.57084   0.33976   0.36481   0.00000  Uiso   1.00
H301   H     0.46875   0.38577   0.41368   0.00000  Uiso   1.00
H302   H     0.58607   0.20699   0.24681   0.00000  Uiso   1.00
H303   H     0.65577   0.44215   0.41164   0.00000  Uiso   1.00
H304   H     0.35862   0.41207   0.50293   0.00000  Uiso   1.00
H305   H     0.60600   0.03509   0.15107   0.00000  Uiso   1.00
H306   H     0.75299   0.53097   0.49865   0.00000  Uiso   1.00
H307   H     0.59436   0.14950   0.63513   0.00000  Uiso   1.00
H308   H     0.49356   0.18508   0.69884   0.00000  Uiso   1.00
H309   H     0.61088   0.00629   0.53196   0.00000  Uiso   1.00
H310   H     0.68058   0.24145   0.69679   0.00000  Uiso   1.00
H311   H     0.37875   0.24917   0.73437   0.00000  Uiso   1.00
H312   H     0.62614   0.87219   0.38251   0.00000  Uiso   1.00
H313   H     0.77312   0.36808   0.73009   0.00000  Uiso   1.00
O314   O     0.30195   0.35743   0.65567   0.00000  Uiso   1.00
O315   O     0.62652   0.86286   0.19404   0.00000  Uiso   1.00
O316   O     0.81935   0.51344   0.65005   0.00000  Uiso   1.00
N317   N     0.37720   0.36886   0.54867   0.00000  Uiso   1.00
N318   N     0.60848   0.01641   0.21970   0.00000  Uiso   1.00
N319   N     0.74590   0.48000   0.54464   0.00000  Uiso   1.00
N320   N     0.38803   0.28121   0.67320   0.00000  Uiso   1.00
N321   N     0.61931   0.92876   0.34424   0.00000  Uiso   1.00
N322   N     0.75674   0.39235   0.66918   0.00000  Uiso   1.00
C323   C     0.92377   0.70382   0.92674   0.00000  Uiso   1.00
C324   C     0.97597   0.70520   0.99078   0.00000  Uiso   1.00
C325   C     0.02590   0.65754   0.97526   0.00000  Uiso   1.00
C326   C     0.06872   0.66787   0.04217   0.00000  Uiso   1.00
C327   C     0.15084   0.66153   0.12949   0.00000  Uiso   1.00
C328   C     0.91224   0.80234   0.90012   0.00000  Uiso   1.00
C329   C     0.90858   0.83636   0.80835   0.00000  Uiso   1.00
C330   C     0.89774   0.92846   0.79895   0.00000  Uiso   1.00
C331   C     0.88087   0.07292   0.74550   0.00000  Uiso   1.00
C332   C     0.87437   0.67457   0.98968   0.00000  Uiso   1.00
C333   C     0.83886   0.60116   0.97321   0.00000  Uiso   1.00
C334   C     0.79613   0.58570   0.03919   0.00000  Uiso   1.00
C335   C     0.72046   0.53177   0.12480   0.00000  Uiso   1.00
C336   C     0.91103   0.80690   0.07319   0.00000  Uiso   1.00
C337   C     0.96905   0.76119   0.07033   0.00000  Uiso   1.00
C338   C     0.01180   0.77159   0.13729   0.00000  Uiso   1.00
C339   C     0.06179   0.72395   0.12186   0.00000  Uiso   1.00
C340   C     0.90532   0.85833   0.97966   0.00000  Uiso   1.00
C341   C     0.89448   0.95041   0.97039   0.00000  Uiso   1.00
C342   C     0.89080   0.98455   0.87864   0.00000  Uiso   1.00
C343   C     0.86745   0.73056   0.06923   0.00000  Uiso   1.00
C344   C     0.82476   0.71521   0.13524   0.00000  Uiso   1.00
C345   C     0.78919   0.64179   0.11888   0.00000  Uiso   1.00
H346   H     0.92916   0.66024   0.86481   0.00000  Uiso   1.00
H347   H     0.03125   0.61423   0.91368   0.00000  Uiso   1.00
H348   H     0.91393   0.79301   0.74681   0.00000  Uiso   1.00
H349   H     0.84423   0.55785   0.91164   0.00000  Uiso   1.00
H350   H     0.14138   0.58793   0.00293   0.00000  Uiso   1.00
H351   H     0.89400   0.96491   0.65107   0.00000  Uiso   1.00
H352   H     0.74701   0.46903   0.99865   0.00000  Uiso   1.00
H353   H     0.90564   0.85050   0.13513   0.00000  Uiso   1.00
H354   H     0.00644   0.81492   0.19884   0.00000  Uiso   1.00
H355   H     0.88912   0.99371   0.03196   0.00000  Uiso   1.00
H356   H     0.81942   0.75855   0.19679   0.00000  Uiso   1.00
H357   H     0.12125   0.75083   0.23437   0.00000  Uiso   1.00
H358   H     0.87386   0.12781   0.88251   0.00000  Uiso   1.00
H359   H     0.72688   0.63192   0.23009   0.00000  Uiso   1.00
O360   O     0.19805   0.64257   0.15567   0.00000  Uiso   1.00
O361   O     0.87348   0.13714   0.69404   0.00000  Uiso   1.00
O362   O     0.68065   0.48656   0.15005   0.00000  Uiso   1.00
N363   N     0.12280   0.63114   0.04867   0.00000  Uiso   1.00
N364   N     0.89152   0.98359   0.71970   0.00000  Uiso   1.00
N365   N     0.75410   0.52000   0.04464   0.00000  Uiso   1.00
N366   N     0.11197   0.71879   0.17320   0.00000  Uiso   1.00
N367   N     0.88069   0.07124   0.84424   0.00000  Uiso   1.00
N368   N     0.74326   0.60765   0.16918   0.00000  Uiso   1.00
