data_job_00782
_audit_creation_date              2018-12-19
_audit_creation_method            'Materials Studio'
_symmetry_space_group_name_H-M    'P1'
_symmetry_Int_Tables_number       1
_symmetry_cell_setting            triclinic
loop_
_symmetry_equiv_pos_as_xyz
  x,y,z
_cell_length_a                    12.5325
_cell_length_b                    13.5554
_cell_length_c                    27.8632
_cell_angle_alpha                 90.0000
_cell_angle_beta                  90.0000
_cell_angle_gamma                 90.0000
loop_
_atom_site_label
_atom_site_type_symbol
_atom_site_fract_x
_atom_site_fract_y
_atom_site_fract_z
_atom_site_U_iso_or_equiv
_atom_site_adp_type
_atom_site_occupancy
C1     C     0.10842   0.43865   0.65778   0.00000  Uiso   1.00
C2     C     0.02892   0.50694   0.63301   0.00000  Uiso   1.00
C3     C     0.93582   0.54371   0.65319   0.00000  Uiso   1.00
C4     C     0.87380   0.60505   0.62466   0.00000  Uiso   1.00
C5     C     0.74576   0.70744   0.59335   0.00000  Uiso   1.00
C6     C     0.11823   0.34802   0.62566   0.00000  Uiso   1.00
C7     C     0.10024   0.25118   0.63966   0.00000  Uiso   1.00
C8     C     0.11342   0.17874   0.60493   0.00000  Uiso   1.00
C9     C     0.12411   0.03440   0.56221   0.00000  Uiso   1.00
C10    C     0.21607   0.49083   0.65533   0.00000  Uiso   1.00
C11    C     0.28037   0.51405   0.69428   0.00000  Uiso   1.00
C12    C     0.37594   0.56184   0.68454   0.00000  Uiso   1.00
C13    C     0.53854   0.63924   0.68790   0.00000  Uiso   1.00
C14    C     0.16383   0.48219   0.57121   0.00000  Uiso   1.00
C15    C     0.05902   0.53058   0.58600   0.00000  Uiso   1.00
C16    C     0.99713   0.59189   0.55742   0.00000  Uiso   1.00
C17    C     0.90396   0.62875   0.57756   0.00000  Uiso   1.00
C18    C     0.14833   0.37166   0.57864   0.00000  Uiso   1.00
C19    C     0.16155   0.29935   0.54389   0.00000  Uiso   1.00
C20    C     0.14357   0.20243   0.55783   0.00000  Uiso   1.00
C21    C     0.24617   0.51449   0.60832   0.00000  Uiso   1.00
C22    C     0.34167   0.56223   0.59851   0.00000  Uiso   1.00
C23    C     0.40609   0.58553   0.63744   0.00000  Uiso   1.00
H24    H     0.08498   0.42024   0.69438   0.00000  Uiso   1.00
H25    H     0.91255   0.52539   0.68958   0.00000  Uiso   1.00
H26    H     0.07696   0.23290   0.67604   0.00000  Uiso   1.00
H27    H     0.25705   0.49574   0.73066   0.00000  Uiso   1.00
H28    H     0.73463   0.65236   0.66351   0.00000  Uiso   1.00
H29    H     0.08132   0.03564   0.63498   0.00000  Uiso   1.00
H30    H     0.46108   0.58989   0.75015   0.00000  Uiso   1.00
H31    H     0.18727   0.50060   0.53461   0.00000  Uiso   1.00
H32    H     0.02044   0.61017   0.52104   0.00000  Uiso   1.00
H33    H     0.18484   0.31768   0.50751   0.00000  Uiso   1.00
H34    H     0.36494   0.58052   0.56212   0.00000  Uiso   1.00
H35    H     0.82219   0.72118   0.52672   0.00000  Uiso   1.00
H36    H     0.16889   0.10445   0.49819   0.00000  Uiso   1.00
H37    H     0.54865   0.65870   0.61336   0.00000  Uiso   1.00
O38    O     0.66680   0.75737   0.58907   0.00000  Uiso   1.00
O39    O     0.12167   0.94825   0.55164   0.00000  Uiso   1.00
O40    O     0.61990   0.67541   0.70274   0.00000  Uiso   1.00
N41    N     0.77814   0.65354   0.63318   0.00000  Uiso   1.00
N42    N     0.10226   0.07694   0.60651   0.00000  Uiso   1.00
N43    N     0.45732   0.59509   0.71418   0.00000  Uiso   1.00
N44    N     0.82526   0.69057   0.55958   0.00000  Uiso   1.00
N45    N     0.14938   0.11397   0.53290   0.00000  Uiso   1.00
N46    N     0.50444   0.63212   0.64058   0.00000  Uiso   1.00
C47    C     0.72996   0.94296   0.34162   0.00000  Uiso   1.00
C48    C     0.80899   0.01067   0.36705   0.00000  Uiso   1.00
C49    C     0.90214   0.04837   0.34732   0.00000  Uiso   1.00
C50    C     0.96368   0.10896   0.37643   0.00000  Uiso   1.00
C51    C     0.09109   0.21071   0.40875   0.00000  Uiso   1.00
C52    C     0.72018   0.85127   0.37303   0.00000  Uiso   1.00
C53    C     0.73864   0.75495   0.35832   0.00000  Uiso   1.00
C54    C     0.72541   0.68136   0.39247   0.00000  Uiso   1.00
C55    C     0.71486   0.53562   0.43405   0.00000  Uiso   1.00
C56    C     0.62210   0.99473   0.34427   0.00000  Uiso   1.00
C57    C     0.55806   0.01902   0.30539   0.00000  Uiso   1.00
C58    C     0.46224   0.06620   0.31532   0.00000  Uiso   1.00
C59    C     0.29939   0.14322   0.31226   0.00000  Uiso   1.00
C60    C     0.67363   0.98353   0.42841   0.00000  Uiso   1.00
C61    C     0.77840   0.03270   0.41419   0.00000  Uiso   1.00
C62    C     0.83982   0.09326   0.44334   0.00000  Uiso   1.00
C63    C     0.93303   0.13104   0.42366   0.00000  Uiso   1.00
C64    C     0.68959   0.87330   0.42016   0.00000  Uiso   1.00
C65    C     0.67632   0.79983   0.45434   0.00000  Uiso   1.00
C66    C     0.69476   0.70343   0.43969   0.00000  Uiso   1.00
C67    C     0.59150   0.01677   0.39141   0.00000  Uiso   1.00
C68    C     0.49575   0.06391   0.40140   0.00000  Uiso   1.00
C69    C     0.43158   0.08827   0.36255   0.00000  Uiso   1.00
H70    H     0.75377   0.92580   0.30493   0.00000  Uiso   1.00
H71    H     0.92579   0.03129   0.31084   0.00000  Uiso   1.00
H72    H     0.76231   0.73792   0.32184   0.00000  Uiso   1.00
H73    H     0.58176   0.00196   0.26892   0.00000  Uiso   1.00
H74    H     0.10303   0.15794   0.33820   0.00000  Uiso   1.00
H75    H     0.75828   0.53934   0.36138   0.00000  Uiso   1.00
H76    H     0.37757   0.09611   0.24978   0.00000  Uiso   1.00
H77    H     0.64981   0.00068   0.46511   0.00000  Uiso   1.00
H78    H     0.81612   0.11029   0.47981   0.00000  Uiso   1.00
H79    H     0.65264   0.81691   0.49081   0.00000  Uiso   1.00
H80    H     0.47210   0.08095   0.43789   0.00000  Uiso   1.00
H81    H     0.01402   0.22206   0.47534   0.00000  Uiso   1.00
H82    H     0.66927   0.60345   0.49852   0.00000  Uiso   1.00
H83    H     0.28856   0.16023   0.38692   0.00000  Uiso   1.00
O84    O     0.16983   0.26073   0.41356   0.00000  Uiso   1.00
O85    O     0.71751   0.44915   0.44397   0.00000  Uiso   1.00
O86    O     0.21803   0.17962   0.29755   0.00000  Uiso   1.00
N87    N     0.05925   0.15801   0.36845   0.00000  Uiso   1.00
N88    N     0.73694   0.57965   0.39013   0.00000  Uiso   1.00
N89    N     0.38100   0.10016   0.28579   0.00000  Uiso   1.00
N90    N     0.01135   0.19251   0.44225   0.00000  Uiso   1.00
N91    N     0.68905   0.61415   0.46392   0.00000  Uiso   1.00
N92    N     0.33310   0.13466   0.35959   0.00000  Uiso   1.00
C93    C     0.89158   0.56135   0.15778   0.00000  Uiso   1.00
C94    C     0.97108   0.49306   0.13301   0.00000  Uiso   1.00
C95    C     0.06418   0.45629   0.15319   0.00000  Uiso   1.00
C96    C     0.12620   0.39495   0.12466   0.00000  Uiso   1.00
C97    C     0.25424   0.29256   0.09335   0.00000  Uiso   1.00
C98    C     0.88177   0.65198   0.12566   0.00000  Uiso   1.00
C99    C     0.89976   0.74882   0.13966   0.00000  Uiso   1.00
C100   C     0.88658   0.82126   0.10493   0.00000  Uiso   1.00
C101   C     0.87589   0.96560   0.06221   0.00000  Uiso   1.00
C102   C     0.78393   0.50917   0.15533   0.00000  Uiso   1.00
C103   C     0.71963   0.48595   0.19428   0.00000  Uiso   1.00
C104   C     0.62406   0.43816   0.18454   0.00000  Uiso   1.00
C105   C     0.46146   0.36076   0.18790   0.00000  Uiso   1.00
C106   C     0.83617   0.51781   0.07121   0.00000  Uiso   1.00
C107   C     0.94098   0.46942   0.08600   0.00000  Uiso   1.00
C108   C     0.00287   0.40811   0.05742   0.00000  Uiso   1.00
C109   C     0.09604   0.37125   0.07756   0.00000  Uiso   1.00
C110   C     0.85167   0.62834   0.07864   0.00000  Uiso   1.00
C111   C     0.83845   0.70065   0.04389   0.00000  Uiso   1.00
C112   C     0.85643   0.79757   0.05783   0.00000  Uiso   1.00
C113   C     0.75383   0.48551   0.10832   0.00000  Uiso   1.00
C114   C     0.65833   0.43777   0.09851   0.00000  Uiso   1.00
C115   C     0.59391   0.41447   0.13744   0.00000  Uiso   1.00
H116   H     0.91502   0.57976   0.19438   0.00000  Uiso   1.00
H117   H     0.08745   0.47461   0.18958   0.00000  Uiso   1.00
H118   H     0.92304   0.76710   0.17604   0.00000  Uiso   1.00
H119   H     0.74295   0.50426   0.23066   0.00000  Uiso   1.00
H120   H     0.26537   0.34764   0.16351   0.00000  Uiso   1.00
H121   H     0.91868   0.96436   0.13498   0.00000  Uiso   1.00
H122   H     0.53892   0.41011   0.25015   0.00000  Uiso   1.00
H123   H     0.81273   0.49940   0.03461   0.00000  Uiso   1.00
H124   H     0.97956   0.38983   0.02104   0.00000  Uiso   1.00
H125   H     0.81516   0.68232   0.00751   0.00000  Uiso   1.00
H126   H     0.63506   0.41948   0.06212   0.00000  Uiso   1.00
H127   H     0.17781   0.27882   0.02672   0.00000  Uiso   1.00
H128   H     0.83111   0.89555   0.99819   0.00000  Uiso   1.00
H129   H     0.45135   0.34130   0.11336   0.00000  Uiso   1.00
O130   O     0.33320   0.24263   0.08907   0.00000  Uiso   1.00
O131   O     0.87833   0.05175   0.05164   0.00000  Uiso   1.00
O132   O     0.38010   0.32459   0.20274   0.00000  Uiso   1.00
N133   N     0.22186   0.34646   0.13318   0.00000  Uiso   1.00
N134   N     0.89774   0.92306   0.10651   0.00000  Uiso   1.00
N135   N     0.54268   0.40491   0.21418   0.00000  Uiso   1.00
N136   N     0.17474   0.30943   0.05958   0.00000  Uiso   1.00
N137   N     0.85062   0.88603   0.03290   0.00000  Uiso   1.00
N138   N     0.49556   0.36788   0.14058   0.00000  Uiso   1.00
C139   C     0.27004   0.05704   0.84162   0.00000  Uiso   1.00
C140   C     0.19101   0.98933   0.86705   0.00000  Uiso   1.00
C141   C     0.09786   0.95163   0.84732   0.00000  Uiso   1.00
C142   C     0.03632   0.89104   0.87643   0.00000  Uiso   1.00
C143   C     0.90891   0.78929   0.90875   0.00000  Uiso   1.00
C144   C     0.27982   0.14873   0.87303   0.00000  Uiso   1.00
C145   C     0.26136   0.24505   0.85832   0.00000  Uiso   1.00
C146   C     0.27459   0.31864   0.89247   0.00000  Uiso   1.00
C147   C     0.28514   0.46438   0.93405   0.00000  Uiso   1.00
C148   C     0.37790   0.00527   0.84427   0.00000  Uiso   1.00
C149   C     0.44194   0.98098   0.80539   0.00000  Uiso   1.00
C150   C     0.53776   0.93380   0.81532   0.00000  Uiso   1.00
C151   C     0.70061   0.85678   0.81226   0.00000  Uiso   1.00
C152   C     0.32637   0.01647   0.92841   0.00000  Uiso   1.00
C153   C     0.22160   0.96730   0.91419   0.00000  Uiso   1.00
C154   C     0.16018   0.90674   0.94334   0.00000  Uiso   1.00
C155   C     0.06697   0.86896   0.92366   0.00000  Uiso   1.00
C156   C     0.31041   0.12670   0.92016   0.00000  Uiso   1.00
C157   C     0.32368   0.20017   0.95434   0.00000  Uiso   1.00
C158   C     0.30524   0.29657   0.93969   0.00000  Uiso   1.00
C159   C     0.40850   0.98323   0.89141   0.00000  Uiso   1.00
C160   C     0.50425   0.93609   0.90140   0.00000  Uiso   1.00
C161   C     0.56842   0.91173   0.86255   0.00000  Uiso   1.00
H162   H     0.24623   0.07420   0.80493   0.00000  Uiso   1.00
H163   H     0.07421   0.96871   0.81084   0.00000  Uiso   1.00
H164   H     0.23769   0.26208   0.82184   0.00000  Uiso   1.00
H165   H     0.41824   0.99804   0.76892   0.00000  Uiso   1.00
H166   H     0.89697   0.84206   0.83820   0.00000  Uiso   1.00
H167   H     0.24172   0.46066   0.86138   0.00000  Uiso   1.00
H168   H     0.62243   0.90389   0.74978   0.00000  Uiso   1.00
H169   H     0.35019   0.99932   0.96511   0.00000  Uiso   1.00
H170   H     0.18388   0.88971   0.97981   0.00000  Uiso   1.00
H171   H     0.34736   0.18309   0.99081   0.00000  Uiso   1.00
H172   H     0.52790   0.91905   0.93789   0.00000  Uiso   1.00
H173   H     0.98598   0.77794   0.97534   0.00000  Uiso   1.00
H174   H     0.33073   0.39655   0.99852   0.00000  Uiso   1.00
H175   H     0.71144   0.83977   0.88692   0.00000  Uiso   1.00
O176   O     0.83017   0.73927   0.91356   0.00000  Uiso   1.00
O177   O     0.28249   0.55085   0.94397   0.00000  Uiso   1.00
O178   O     0.78197   0.82038   0.79755   0.00000  Uiso   1.00
N179   N     0.94075   0.84199   0.86845   0.00000  Uiso   1.00
N180   N     0.26306   0.42035   0.89013   0.00000  Uiso   1.00
N181   N     0.61900   0.89984   0.78579   0.00000  Uiso   1.00
N182   N     0.98865   0.80749   0.94225   0.00000  Uiso   1.00
N183   N     0.31095   0.38585   0.96392   0.00000  Uiso   1.00
N184   N     0.66690   0.86534   0.85959   0.00000  Uiso   1.00
C185   C     0.60842   0.06135   0.65778   0.00000  Uiso   1.00
C186   C     0.52892   0.99306   0.63301   0.00000  Uiso   1.00
C187   C     0.43582   0.95629   0.65319   0.00000  Uiso   1.00
C188   C     0.37380   0.89495   0.62466   0.00000  Uiso   1.00
C189   C     0.24576   0.79256   0.59335   0.00000  Uiso   1.00
C190   C     0.61823   0.15198   0.62566   0.00000  Uiso   1.00
C191   C     0.60024   0.24882   0.63966   0.00000  Uiso   1.00
C192   C     0.61342   0.32126   0.60493   0.00000  Uiso   1.00
C193   C     0.62411   0.46560   0.56221   0.00000  Uiso   1.00
C194   C     0.71607   0.00917   0.65533   0.00000  Uiso   1.00
C195   C     0.78037   0.98595   0.69428   0.00000  Uiso   1.00
C196   C     0.87594   0.93816   0.68454   0.00000  Uiso   1.00
C197   C     0.03854   0.86076   0.68790   0.00000  Uiso   1.00
C198   C     0.66383   0.01781   0.57121   0.00000  Uiso   1.00
C199   C     0.55902   0.96942   0.58600   0.00000  Uiso   1.00
C200   C     0.49713   0.90811   0.55742   0.00000  Uiso   1.00
C201   C     0.40396   0.87125   0.57756   0.00000  Uiso   1.00
C202   C     0.64833   0.12834   0.57864   0.00000  Uiso   1.00
C203   C     0.66155   0.20065   0.54389   0.00000  Uiso   1.00
C204   C     0.64357   0.29757   0.55783   0.00000  Uiso   1.00
C205   C     0.74617   0.98551   0.60832   0.00000  Uiso   1.00
C206   C     0.84167   0.93777   0.59851   0.00000  Uiso   1.00
C207   C     0.90609   0.91447   0.63744   0.00000  Uiso   1.00
H208   H     0.58498   0.07976   0.69438   0.00000  Uiso   1.00
H209   H     0.41255   0.97461   0.68958   0.00000  Uiso   1.00
H210   H     0.57696   0.26710   0.67604   0.00000  Uiso   1.00
H211   H     0.75705   0.00426   0.73066   0.00000  Uiso   1.00
H212   H     0.23463   0.84764   0.66351   0.00000  Uiso   1.00
H213   H     0.58132   0.46436   0.63498   0.00000  Uiso   1.00
H214   H     0.96108   0.91011   0.75015   0.00000  Uiso   1.00
H215   H     0.68727   0.99940   0.53461   0.00000  Uiso   1.00
H216   H     0.52044   0.88983   0.52104   0.00000  Uiso   1.00
H217   H     0.68484   0.18232   0.50751   0.00000  Uiso   1.00
H218   H     0.86494   0.91948   0.56212   0.00000  Uiso   1.00
H219   H     0.32219   0.77882   0.52672   0.00000  Uiso   1.00
H220   H     0.66889   0.39555   0.49819   0.00000  Uiso   1.00
H221   H     0.04865   0.84130   0.61336   0.00000  Uiso   1.00
O222   O     0.16680   0.74263   0.58907   0.00000  Uiso   1.00
O223   O     0.62167   0.55175   0.55164   0.00000  Uiso   1.00
O224   O     0.11990   0.82459   0.70274   0.00000  Uiso   1.00
N225   N     0.27814   0.84646   0.63318   0.00000  Uiso   1.00
N226   N     0.60226   0.42306   0.60651   0.00000  Uiso   1.00
N227   N     0.95732   0.90491   0.71418   0.00000  Uiso   1.00
N228   N     0.32526   0.80943   0.55958   0.00000  Uiso   1.00
N229   N     0.64938   0.38603   0.53290   0.00000  Uiso   1.00
N230   N     0.00444   0.86788   0.64058   0.00000  Uiso   1.00
C231   C     0.22996   0.55704   0.34162   0.00000  Uiso   1.00
C232   C     0.30899   0.48933   0.36705   0.00000  Uiso   1.00
C233   C     0.40214   0.45163   0.34732   0.00000  Uiso   1.00
C234   C     0.46368   0.39104   0.37643   0.00000  Uiso   1.00
C235   C     0.59109   0.28929   0.40875   0.00000  Uiso   1.00
C236   C     0.22018   0.64873   0.37303   0.00000  Uiso   1.00
C237   C     0.23864   0.74505   0.35832   0.00000  Uiso   1.00
C238   C     0.22541   0.81864   0.39247   0.00000  Uiso   1.00
C239   C     0.21486   0.96438   0.43405   0.00000  Uiso   1.00
C240   C     0.12210   0.50527   0.34427   0.00000  Uiso   1.00
C241   C     0.05806   0.48098   0.30539   0.00000  Uiso   1.00
C242   C     0.96224   0.43380   0.31532   0.00000  Uiso   1.00
C243   C     0.79939   0.35678   0.31226   0.00000  Uiso   1.00
C244   C     0.17363   0.51647   0.42841   0.00000  Uiso   1.00
C245   C     0.27840   0.46730   0.41419   0.00000  Uiso   1.00
C246   C     0.33982   0.40674   0.44334   0.00000  Uiso   1.00
C247   C     0.43303   0.36896   0.42366   0.00000  Uiso   1.00
C248   C     0.18959   0.62670   0.42016   0.00000  Uiso   1.00
C249   C     0.17632   0.70017   0.45434   0.00000  Uiso   1.00
C250   C     0.19476   0.79657   0.43969   0.00000  Uiso   1.00
C251   C     0.09150   0.48323   0.39141   0.00000  Uiso   1.00
C252   C     0.99575   0.43609   0.40140   0.00000  Uiso   1.00
C253   C     0.93158   0.41173   0.36255   0.00000  Uiso   1.00
H254   H     0.25377   0.57420   0.30493   0.00000  Uiso   1.00
H255   H     0.42579   0.46871   0.31084   0.00000  Uiso   1.00
H256   H     0.26231   0.76208   0.32184   0.00000  Uiso   1.00
H257   H     0.08176   0.49804   0.26892   0.00000  Uiso   1.00
H258   H     0.60303   0.34206   0.33820   0.00000  Uiso   1.00
H259   H     0.25828   0.96066   0.36138   0.00000  Uiso   1.00
H260   H     0.87757   0.40389   0.24978   0.00000  Uiso   1.00
H261   H     0.14981   0.49932   0.46511   0.00000  Uiso   1.00
H262   H     0.31612   0.38971   0.47981   0.00000  Uiso   1.00
H263   H     0.15264   0.68309   0.49081   0.00000  Uiso   1.00
H264   H     0.97210   0.41905   0.43789   0.00000  Uiso   1.00
H265   H     0.51402   0.27794   0.47534   0.00000  Uiso   1.00
H266   H     0.16927   0.89655   0.49852   0.00000  Uiso   1.00
H267   H     0.78856   0.33977   0.38692   0.00000  Uiso   1.00
O268   O     0.66983   0.23927   0.41356   0.00000  Uiso   1.00
O269   O     0.21751   0.05085   0.44397   0.00000  Uiso   1.00
O270   O     0.71803   0.32038   0.29755   0.00000  Uiso   1.00
N271   N     0.55925   0.34199   0.36845   0.00000  Uiso   1.00
N272   N     0.23694   0.92035   0.39013   0.00000  Uiso   1.00
N273   N     0.88100   0.39984   0.28579   0.00000  Uiso   1.00
N274   N     0.51135   0.30749   0.44225   0.00000  Uiso   1.00
N275   N     0.18905   0.88585   0.46392   0.00000  Uiso   1.00
N276   N     0.83310   0.36534   0.35959   0.00000  Uiso   1.00
C277   C     0.39158   0.93865   0.15778   0.00000  Uiso   1.00
C278   C     0.47108   0.00694   0.13301   0.00000  Uiso   1.00
C279   C     0.56418   0.04371   0.15319   0.00000  Uiso   1.00
C280   C     0.62620   0.10505   0.12466   0.00000  Uiso   1.00
C281   C     0.75424   0.20744   0.09335   0.00000  Uiso   1.00
C282   C     0.38177   0.84802   0.12566   0.00000  Uiso   1.00
C283   C     0.39976   0.75118   0.13966   0.00000  Uiso   1.00
C284   C     0.38658   0.67874   0.10493   0.00000  Uiso   1.00
C285   C     0.37589   0.53440   0.06221   0.00000  Uiso   1.00
C286   C     0.28393   0.99083   0.15533   0.00000  Uiso   1.00
C287   C     0.21963   0.01405   0.19428   0.00000  Uiso   1.00
C288   C     0.12406   0.06184   0.18454   0.00000  Uiso   1.00
C289   C     0.96146   0.13924   0.18790   0.00000  Uiso   1.00
C290   C     0.33617   0.98219   0.07121   0.00000  Uiso   1.00
C291   C     0.44098   0.03058   0.08600   0.00000  Uiso   1.00
C292   C     0.50287   0.09189   0.05742   0.00000  Uiso   1.00
C293   C     0.59604   0.12875   0.07756   0.00000  Uiso   1.00
C294   C     0.35167   0.87166   0.07864   0.00000  Uiso   1.00
C295   C     0.33845   0.79935   0.04389   0.00000  Uiso   1.00
C296   C     0.35643   0.70243   0.05783   0.00000  Uiso   1.00
C297   C     0.25383   0.01449   0.10832   0.00000  Uiso   1.00
C298   C     0.15833   0.06223   0.09851   0.00000  Uiso   1.00
C299   C     0.09391   0.08553   0.13744   0.00000  Uiso   1.00
H300   H     0.41502   0.92024   0.19438   0.00000  Uiso   1.00
H301   H     0.58745   0.02539   0.18958   0.00000  Uiso   1.00
H302   H     0.42304   0.73290   0.17604   0.00000  Uiso   1.00
H303   H     0.24295   0.99574   0.23066   0.00000  Uiso   1.00
H304   H     0.76537   0.15236   0.16351   0.00000  Uiso   1.00
H305   H     0.41868   0.53564   0.13498   0.00000  Uiso   1.00
H306   H     0.03892   0.08989   0.25015   0.00000  Uiso   1.00
H307   H     0.31273   0.00060   0.03461   0.00000  Uiso   1.00
H308   H     0.47956   0.11017   0.02104   0.00000  Uiso   1.00
H309   H     0.31516   0.81768   0.00751   0.00000  Uiso   1.00
H310   H     0.13506   0.08052   0.06212   0.00000  Uiso   1.00
H311   H     0.67781   0.22118   0.02672   0.00000  Uiso   1.00
H312   H     0.33111   0.60445   0.99819   0.00000  Uiso   1.00
H313   H     0.95135   0.15870   0.11336   0.00000  Uiso   1.00
O314   O     0.83320   0.25737   0.08907   0.00000  Uiso   1.00
O315   O     0.37833   0.44825   0.05164   0.00000  Uiso   1.00
O316   O     0.88010   0.17541   0.20274   0.00000  Uiso   1.00
N317   N     0.72186   0.15354   0.13318   0.00000  Uiso   1.00
N318   N     0.39774   0.57694   0.10651   0.00000  Uiso   1.00
N319   N     0.04268   0.09509   0.21418   0.00000  Uiso   1.00
N320   N     0.67474   0.19057   0.05958   0.00000  Uiso   1.00
N321   N     0.35062   0.61397   0.03290   0.00000  Uiso   1.00
N322   N     0.99556   0.13212   0.14058   0.00000  Uiso   1.00
C323   C     0.77004   0.44296   0.84162   0.00000  Uiso   1.00
C324   C     0.69101   0.51067   0.86705   0.00000  Uiso   1.00
C325   C     0.59786   0.54837   0.84732   0.00000  Uiso   1.00
C326   C     0.53632   0.60896   0.87643   0.00000  Uiso   1.00
C327   C     0.40891   0.71071   0.90875   0.00000  Uiso   1.00
C328   C     0.77982   0.35127   0.87303   0.00000  Uiso   1.00
C329   C     0.76136   0.25495   0.85832   0.00000  Uiso   1.00
C330   C     0.77459   0.18136   0.89247   0.00000  Uiso   1.00
C331   C     0.78514   0.03562   0.93405   0.00000  Uiso   1.00
C332   C     0.87790   0.49473   0.84427   0.00000  Uiso   1.00
C333   C     0.94194   0.51902   0.80539   0.00000  Uiso   1.00
C334   C     0.03776   0.56620   0.81532   0.00000  Uiso   1.00
C335   C     0.20061   0.64322   0.81226   0.00000  Uiso   1.00
C336   C     0.82637   0.48353   0.92841   0.00000  Uiso   1.00
C337   C     0.72160   0.53270   0.91419   0.00000  Uiso   1.00
C338   C     0.66018   0.59326   0.94334   0.00000  Uiso   1.00
C339   C     0.56697   0.63104   0.92366   0.00000  Uiso   1.00
C340   C     0.81041   0.37330   0.92016   0.00000  Uiso   1.00
C341   C     0.82368   0.29983   0.95434   0.00000  Uiso   1.00
C342   C     0.80524   0.20343   0.93969   0.00000  Uiso   1.00
C343   C     0.90850   0.51677   0.89141   0.00000  Uiso   1.00
C344   C     0.00425   0.56391   0.90140   0.00000  Uiso   1.00
C345   C     0.06842   0.58827   0.86255   0.00000  Uiso   1.00
H346   H     0.74623   0.42580   0.80493   0.00000  Uiso   1.00
H347   H     0.57421   0.53129   0.81084   0.00000  Uiso   1.00
H348   H     0.73769   0.23792   0.82184   0.00000  Uiso   1.00
H349   H     0.91824   0.50196   0.76892   0.00000  Uiso   1.00
H350   H     0.39697   0.65794   0.83820   0.00000  Uiso   1.00
H351   H     0.74172   0.03934   0.86138   0.00000  Uiso   1.00
H352   H     0.12243   0.59611   0.74978   0.00000  Uiso   1.00
H353   H     0.85019   0.50068   0.96511   0.00000  Uiso   1.00
H354   H     0.68388   0.61029   0.97981   0.00000  Uiso   1.00
H355   H     0.84736   0.31691   0.99081   0.00000  Uiso   1.00
H356   H     0.02790   0.58095   0.93789   0.00000  Uiso   1.00
H357   H     0.48598   0.72206   0.97534   0.00000  Uiso   1.00
H358   H     0.83073   0.10345   0.99852   0.00000  Uiso   1.00
H359   H     0.21144   0.66023   0.88692   0.00000  Uiso   1.00
O360   O     0.33017   0.76073   0.91356   0.00000  Uiso   1.00
O361   O     0.78249   0.94915   0.94397   0.00000  Uiso   1.00
O362   O     0.28197   0.67962   0.79755   0.00000  Uiso   1.00
N363   N     0.44075   0.65801   0.86845   0.00000  Uiso   1.00
N364   N     0.76306   0.07965   0.89013   0.00000  Uiso   1.00
N365   N     0.11900   0.60016   0.78579   0.00000  Uiso   1.00
N366   N     0.48865   0.69251   0.94225   0.00000  Uiso   1.00
N367   N     0.81095   0.11415   0.96392   0.00000  Uiso   1.00
N368   N     0.16690   0.63466   0.85959   0.00000  Uiso   1.00
