data_job_03894
_audit_creation_date              2018-12-19
_audit_creation_method            'Materials Studio'
_symmetry_space_group_name_H-M    'P1'
_symmetry_Int_Tables_number       1
_symmetry_cell_setting            triclinic
loop_
_symmetry_equiv_pos_as_xyz
  x,y,z
_cell_length_a                    24.4271
_cell_length_b                    9.5801
_cell_length_c                    23.3342
_cell_angle_alpha                 90.0000
_cell_angle_beta                  144.4713
_cell_angle_gamma                 90.0000
loop_
_atom_site_label
_atom_site_type_symbol
_atom_site_fract_x
_atom_site_fract_y
_atom_site_fract_z
_atom_site_U_iso_or_equiv
_atom_site_adp_type
_atom_site_occupancy
C1     C     0.37125   0.03742   0.24257   0.00000  Uiso   1.00
C2     C     0.32874   0.12905   0.15960   0.00000  Uiso   1.00
C3     C     0.36771   0.15336   0.13918   0.00000  Uiso   1.00
C4     C     0.31793   0.24041   0.06008   0.00000  Uiso   1.00
C5     C     0.26497   0.37355   0.93987   0.00000  Uiso   1.00
C6     C     0.38065   0.13033   0.30334   0.00000  Uiso   1.00
C7     C     0.46327   0.15570   0.40378   0.00000  Uiso   1.00
C8     C     0.45717   0.24382   0.44568   0.00000  Uiso   1.00
C9     C     0.48480   0.37886   0.54865   0.00000  Uiso   1.00
C10    C     0.29627   0.92920   0.19342   0.00000  Uiso   1.00
C11    C     0.30795   0.78545   0.20145   0.00000  Uiso   1.00
C12    C     0.23083   0.70422   0.15083   0.00000  Uiso   1.00
C13    C     0.12746   0.52698   0.08312   0.00000  Uiso   1.00
C14    C     0.21352   0.14879   0.13841   0.00000  Uiso   1.00
C15    C     0.24307   0.18954   0.10302   0.00000  Uiso   1.00
C16    C     0.19321   0.27658   0.02393   0.00000  Uiso   1.00
C17    C     0.23210   0.30101   0.00339   0.00000  Uiso   1.00
C18    C     0.29498   0.19082   0.24676   0.00000  Uiso   1.00
C19    C     0.28876   0.27892   0.28853   0.00000  Uiso   1.00
C20    C     0.37135   0.30442   0.38900   0.00000  Uiso   1.00
C21    C     0.21060   0.98969   0.13684   0.00000  Uiso   1.00
C22    C     0.13345   0.90867   0.08620   0.00000  Uiso   1.00
C23    C     0.14501   0.76482   0.09415   0.00000  Uiso   1.00
H24    H     0.43795   0.99033   0.28663   0.00000  Uiso   1.00
H25    H     0.43402   0.10654   0.18298   0.00000  Uiso   1.00
H26    H     0.52955   0.10886   0.44754   0.00000  Uiso   1.00
H27    H     0.37426   0.73867   0.24524   0.00000  Uiso   1.00
H28    H     0.39189   0.26210   0.04315   0.00000  Uiso   1.00
H29    H     0.59333   0.26696   0.60099   0.00000  Uiso   1.00
H30    H     0.26587   0.48634   0.17440   0.00000  Uiso   1.00
H31    H     0.14682   0.19588   0.09436   0.00000  Uiso   1.00
H32    H     0.12691   0.32338   0.98016   0.00000  Uiso   1.00
H33    H     0.22245   0.32570   0.24472   0.00000  Uiso   1.00
H34    H     0.06716   0.95552   0.04242   0.00000  Uiso   1.00
H35    H     0.14264   0.43810   0.87853   0.00000  Uiso   1.00
H36    H     0.34408   0.44296   0.43638   0.00000  Uiso   1.00
H37    H     0.01662   0.66234   0.00979   0.00000  Uiso   1.00
O38    O     0.25944   0.43029   0.88920   0.00000  Uiso   1.00
O39    O     0.52371   0.43665   0.62107   0.00000  Uiso   1.00
O40    O     0.09410   0.41251   0.06140   0.00000  Uiso   1.00
N41    N     0.33595   0.28600   0.02006   0.00000  Uiso   1.00
N42    N     0.52429   0.29057   0.54161   0.00000  Uiso   1.00
N43    N     0.21815   0.56075   0.14281   0.00000  Uiso   1.00
N44    N     0.20183   0.38070   0.93149   0.00000  Uiso   1.00
N45    N     0.39017   0.38527   0.45303   0.00000  Uiso   1.00
N46    N     0.08403   0.65546   0.05423   0.00000  Uiso   1.00
C47    C     0.62875   0.03742   0.25743   0.00000  Uiso   1.00
C48    C     0.67126   0.12905   0.34040   0.00000  Uiso   1.00
C49    C     0.63229   0.15336   0.36082   0.00000  Uiso   1.00
C50    C     0.68207   0.24041   0.43992   0.00000  Uiso   1.00
C51    C     0.73503   0.37355   0.56013   0.00000  Uiso   1.00
C52    C     0.61935   0.13033   0.19666   0.00000  Uiso   1.00
C53    C     0.53673   0.15570   0.09622   0.00000  Uiso   1.00
C54    C     0.54283   0.24382   0.05432   0.00000  Uiso   1.00
C55    C     0.51520   0.37886   0.95135   0.00000  Uiso   1.00
C56    C     0.70373   0.92920   0.30658   0.00000  Uiso   1.00
C57    C     0.69205   0.78545   0.29855   0.00000  Uiso   1.00
C58    C     0.76917   0.70422   0.34917   0.00000  Uiso   1.00
C59    C     0.87254   0.52698   0.41688   0.00000  Uiso   1.00
C60    C     0.78648   0.14879   0.36159   0.00000  Uiso   1.00
C61    C     0.75693   0.18954   0.39698   0.00000  Uiso   1.00
C62    C     0.80679   0.27658   0.47607   0.00000  Uiso   1.00
C63    C     0.76790   0.30101   0.49661   0.00000  Uiso   1.00
C64    C     0.70502   0.19082   0.25324   0.00000  Uiso   1.00
C65    C     0.71124   0.27892   0.21147   0.00000  Uiso   1.00
C66    C     0.62865   0.30442   0.11100   0.00000  Uiso   1.00
C67    C     0.78940   0.98969   0.36316   0.00000  Uiso   1.00
C68    C     0.86655   0.90867   0.41380   0.00000  Uiso   1.00
C69    C     0.85499   0.76482   0.40585   0.00000  Uiso   1.00
H70    H     0.56205   0.99033   0.21337   0.00000  Uiso   1.00
H71    H     0.56598   0.10654   0.31702   0.00000  Uiso   1.00
H72    H     0.47045   0.10886   0.05246   0.00000  Uiso   1.00
H73    H     0.62574   0.73867   0.25476   0.00000  Uiso   1.00
H74    H     0.60811   0.26210   0.45685   0.00000  Uiso   1.00
H75    H     0.40667   0.26696   0.89901   0.00000  Uiso   1.00
H76    H     0.73413   0.48634   0.32560   0.00000  Uiso   1.00
H77    H     0.85318   0.19588   0.40564   0.00000  Uiso   1.00
H78    H     0.87309   0.32338   0.51984   0.00000  Uiso   1.00
H79    H     0.77755   0.32570   0.25528   0.00000  Uiso   1.00
H80    H     0.93284   0.95552   0.45758   0.00000  Uiso   1.00
H81    H     0.85736   0.43810   0.62147   0.00000  Uiso   1.00
H82    H     0.65592   0.44296   0.06362   0.00000  Uiso   1.00
H83    H     0.98338   0.66234   0.49021   0.00000  Uiso   1.00
O84    O     0.74056   0.43029   0.61080   0.00000  Uiso   1.00
O85    O     0.47629   0.43665   0.87893   0.00000  Uiso   1.00
O86    O     0.90590   0.41251   0.43860   0.00000  Uiso   1.00
N87    N     0.66405   0.28600   0.47994   0.00000  Uiso   1.00
N88    N     0.47571   0.29057   0.95839   0.00000  Uiso   1.00
N89    N     0.78185   0.56075   0.35719   0.00000  Uiso   1.00
N90    N     0.79817   0.38070   0.56851   0.00000  Uiso   1.00
N91    N     0.60983   0.38527   0.04697   0.00000  Uiso   1.00
N92    N     0.91597   0.65546   0.44577   0.00000  Uiso   1.00
C93    C     0.62875   0.96258   0.75743   0.00000  Uiso   1.00
C94    C     0.67126   0.87095   0.84040   0.00000  Uiso   1.00
C95    C     0.63229   0.84664   0.86082   0.00000  Uiso   1.00
C96    C     0.68207   0.75959   0.93992   0.00000  Uiso   1.00
C97    C     0.73503   0.62645   0.06013   0.00000  Uiso   1.00
C98    C     0.61935   0.86967   0.69666   0.00000  Uiso   1.00
C99    C     0.53673   0.84430   0.59622   0.00000  Uiso   1.00
C100   C     0.54283   0.75618   0.55432   0.00000  Uiso   1.00
C101   C     0.51520   0.62114   0.45135   0.00000  Uiso   1.00
C102   C     0.70373   0.07080   0.80658   0.00000  Uiso   1.00
C103   C     0.69205   0.21455   0.79855   0.00000  Uiso   1.00
C104   C     0.76917   0.29578   0.84917   0.00000  Uiso   1.00
C105   C     0.87254   0.47302   0.91688   0.00000  Uiso   1.00
C106   C     0.78648   0.85121   0.86159   0.00000  Uiso   1.00
C107   C     0.75693   0.81046   0.89698   0.00000  Uiso   1.00
C108   C     0.80679   0.72342   0.97607   0.00000  Uiso   1.00
C109   C     0.76790   0.69899   0.99661   0.00000  Uiso   1.00
C110   C     0.70502   0.80918   0.75324   0.00000  Uiso   1.00
C111   C     0.71124   0.72108   0.71147   0.00000  Uiso   1.00
C112   C     0.62865   0.69558   0.61100   0.00000  Uiso   1.00
C113   C     0.78940   0.01031   0.86316   0.00000  Uiso   1.00
C114   C     0.86655   0.09133   0.91380   0.00000  Uiso   1.00
C115   C     0.85499   0.23518   0.90585   0.00000  Uiso   1.00
H116   H     0.56205   0.00967   0.71337   0.00000  Uiso   1.00
H117   H     0.56598   0.89346   0.81702   0.00000  Uiso   1.00
H118   H     0.47045   0.89114   0.55246   0.00000  Uiso   1.00
H119   H     0.62574   0.26133   0.75476   0.00000  Uiso   1.00
H120   H     0.60811   0.73790   0.95685   0.00000  Uiso   1.00
H121   H     0.40667   0.73304   0.39901   0.00000  Uiso   1.00
H122   H     0.73413   0.51366   0.82560   0.00000  Uiso   1.00
H123   H     0.85318   0.80412   0.90564   0.00000  Uiso   1.00
H124   H     0.87309   0.67662   0.01984   0.00000  Uiso   1.00
H125   H     0.77755   0.67430   0.75528   0.00000  Uiso   1.00
H126   H     0.93284   0.04448   0.95758   0.00000  Uiso   1.00
H127   H     0.85736   0.56190   0.12147   0.00000  Uiso   1.00
H128   H     0.65592   0.55704   0.56362   0.00000  Uiso   1.00
H129   H     0.98338   0.33766   0.99021   0.00000  Uiso   1.00
O130   O     0.74056   0.56971   0.11080   0.00000  Uiso   1.00
O131   O     0.47629   0.56335   0.37893   0.00000  Uiso   1.00
O132   O     0.90590   0.58749   0.93860   0.00000  Uiso   1.00
N133   N     0.66405   0.71400   0.97994   0.00000  Uiso   1.00
N134   N     0.47571   0.70943   0.45839   0.00000  Uiso   1.00
N135   N     0.78185   0.43925   0.85719   0.00000  Uiso   1.00
N136   N     0.79817   0.61930   0.06851   0.00000  Uiso   1.00
N137   N     0.60983   0.61473   0.54697   0.00000  Uiso   1.00
N138   N     0.91597   0.34454   0.94577   0.00000  Uiso   1.00
C139   C     0.37125   0.96258   0.74257   0.00000  Uiso   1.00
C140   C     0.32874   0.87095   0.65960   0.00000  Uiso   1.00
C141   C     0.36771   0.84664   0.63918   0.00000  Uiso   1.00
C142   C     0.31793   0.75959   0.56008   0.00000  Uiso   1.00
C143   C     0.26497   0.62645   0.43987   0.00000  Uiso   1.00
C144   C     0.38065   0.86967   0.80334   0.00000  Uiso   1.00
C145   C     0.46327   0.84430   0.90378   0.00000  Uiso   1.00
C146   C     0.45717   0.75618   0.94568   0.00000  Uiso   1.00
C147   C     0.48480   0.62114   0.04865   0.00000  Uiso   1.00
C148   C     0.29627   0.07080   0.69342   0.00000  Uiso   1.00
C149   C     0.30795   0.21455   0.70145   0.00000  Uiso   1.00
C150   C     0.23083   0.29578   0.65083   0.00000  Uiso   1.00
C151   C     0.12746   0.47302   0.58312   0.00000  Uiso   1.00
C152   C     0.21352   0.85121   0.63841   0.00000  Uiso   1.00
C153   C     0.24307   0.81046   0.60302   0.00000  Uiso   1.00
C154   C     0.19321   0.72342   0.52393   0.00000  Uiso   1.00
C155   C     0.23210   0.69899   0.50339   0.00000  Uiso   1.00
C156   C     0.29498   0.80918   0.74676   0.00000  Uiso   1.00
C157   C     0.28876   0.72108   0.78853   0.00000  Uiso   1.00
C158   C     0.37135   0.69558   0.88900   0.00000  Uiso   1.00
C159   C     0.21060   0.01031   0.63684   0.00000  Uiso   1.00
C160   C     0.13345   0.09133   0.58620   0.00000  Uiso   1.00
C161   C     0.14501   0.23518   0.59415   0.00000  Uiso   1.00
H162   H     0.43795   0.00967   0.78663   0.00000  Uiso   1.00
H163   H     0.43402   0.89346   0.68298   0.00000  Uiso   1.00
H164   H     0.52955   0.89114   0.94754   0.00000  Uiso   1.00
H165   H     0.37426   0.26133   0.74524   0.00000  Uiso   1.00
H166   H     0.39189   0.73790   0.54315   0.00000  Uiso   1.00
H167   H     0.59333   0.73304   0.10099   0.00000  Uiso   1.00
H168   H     0.26587   0.51366   0.67440   0.00000  Uiso   1.00
H169   H     0.14682   0.80412   0.59436   0.00000  Uiso   1.00
H170   H     0.12691   0.67662   0.48016   0.00000  Uiso   1.00
H171   H     0.22245   0.67430   0.74472   0.00000  Uiso   1.00
H172   H     0.06716   0.04448   0.54242   0.00000  Uiso   1.00
H173   H     0.14264   0.56190   0.37853   0.00000  Uiso   1.00
H174   H     0.34408   0.55704   0.93638   0.00000  Uiso   1.00
H175   H     0.01662   0.33766   0.50979   0.00000  Uiso   1.00
O176   O     0.25944   0.56971   0.38920   0.00000  Uiso   1.00
O177   O     0.52371   0.56335   0.12107   0.00000  Uiso   1.00
O178   O     0.09410   0.58749   0.56140   0.00000  Uiso   1.00
N179   N     0.33595   0.71400   0.52006   0.00000  Uiso   1.00
N180   N     0.52429   0.70943   0.04161   0.00000  Uiso   1.00
N181   N     0.21815   0.43925   0.64281   0.00000  Uiso   1.00
N182   N     0.20183   0.61930   0.43149   0.00000  Uiso   1.00
N183   N     0.39017   0.61473   0.95303   0.00000  Uiso   1.00
N184   N     0.08403   0.34454   0.55423   0.00000  Uiso   1.00
