data_job_01583
_audit_creation_date              2018-12-19
_audit_creation_method            'Materials Studio'
_symmetry_space_group_name_H-M    'P1'
_symmetry_Int_Tables_number       1
_symmetry_cell_setting            triclinic
loop_
_symmetry_equiv_pos_as_xyz
  x,y,z
_cell_length_a                    17.3244
_cell_length_b                    18.3518
_cell_length_c                    13.5374
_cell_angle_alpha                 90.0000
_cell_angle_beta                  145.9920
_cell_angle_gamma                 90.0000
loop_
_atom_site_label
_atom_site_type_symbol
_atom_site_fract_x
_atom_site_fract_y
_atom_site_fract_z
_atom_site_U_iso_or_equiv
_atom_site_adp_type
_atom_site_occupancy
C1     C     0.39756   0.80462   0.88834   0.00000  Uiso   1.00
C2     C     0.34513   0.73117   0.79574   0.00000  Uiso   1.00
C3     C     0.25439   0.68563   0.74926   0.00000  Uiso   1.00
C4     C     0.21897   0.62076   0.66539   0.00000  Uiso   1.00
C5     C     0.12936   0.50956   0.52701   0.00000  Uiso   1.00
C6     C     0.36041   0.85985   0.76907   0.00000  Uiso   1.00
C7     C     0.28253   0.92250   0.70020   0.00000  Uiso   1.00
C8     C     0.25999   0.96596   0.59390   0.00000  Uiso   1.00
C9     C     0.19420   0.05457   0.41422   0.00000  Uiso   1.00
C10    C     0.55462   0.79939   0.05475   0.00000  Uiso   1.00
C11    C     0.64004   0.81123   0.22609   0.00000  Uiso   1.00
C12    C     0.78103   0.80380   0.36032   0.00000  Uiso   1.00
C13    C     0.01677   0.79854   0.62420   0.00000  Uiso   1.00
C14    C     0.49603   0.77040   0.82205   0.00000  Uiso   1.00
C15    C     0.39861   0.71259   0.75973   0.00000  Uiso   1.00
C16    C     0.36333   0.64777   0.67592   0.00000  Uiso   1.00
C17    C     0.27255   0.60214   0.62933   0.00000  Uiso   1.00
C18    C     0.41389   0.84127   0.73307   0.00000  Uiso   1.00
C19    C     0.39148   0.88465   0.62686   0.00000  Uiso   1.00
C20    C     0.31357   0.94735   0.55783   0.00000  Uiso   1.00
C21    C     0.60811   0.78081   0.01876   0.00000  Uiso   1.00
C22    C     0.74899   0.77337   0.15274   0.00000  Uiso   1.00
C23    C     0.83461   0.78519   0.32425   0.00000  Uiso   1.00
H24    H     0.35592   0.81909   0.91636   0.00000  Uiso   1.00
H25    H     0.21300   0.70003   0.77713   0.00000  Uiso   1.00
H26    H     0.24116   0.93688   0.72809   0.00000  Uiso   1.00
H27    H     0.59862   0.82561   0.25390   0.00000  Uiso   1.00
H28    H     0.07811   0.55985   0.60683   0.00000  Uiso   1.00
H29    H     0.13752   0.05926   0.50348   0.00000  Uiso   1.00
H30    H     0.89128   0.82464   0.61225   0.00000  Uiso   1.00
H31    H     0.53768   0.75594   0.79402   0.00000  Uiso   1.00
H32    H     0.40474   0.63341   0.64808   0.00000  Uiso   1.00
H33    H     0.43289   0.87025   0.59903   0.00000  Uiso   1.00
H34    H     0.79034   0.75899   0.12484   0.00000  Uiso   1.00
H35    H     0.23372   0.50578   0.50208   0.00000  Uiso   1.00
H36    H     0.29313   0.00519   0.39873   0.00000  Uiso   1.00
H37    H     0.04689   0.77056   0.50749   0.00000  Uiso   1.00
O38    O     0.06514   0.45336   0.46061   0.00000  Uiso   1.00
O39    O     0.14311   0.10857   0.32504   0.00000  Uiso   1.00
O40    O     0.13203   0.80075   0.77971   0.00000  Uiso   1.00
N41    N     0.13300   0.56394   0.60224   0.00000  Uiso   1.00
N42    N     0.18852   0.03084   0.50559   0.00000  Uiso   1.00
N43    N     0.89323   0.81151   0.54219   0.00000  Uiso   1.00
N44    N     0.21673   0.53484   0.54588   0.00000  Uiso   1.00
N45    N     0.27225   0.00175   0.44922   0.00000  Uiso   1.00
N46    N     0.97696   0.78242   0.48582   0.00000  Uiso   1.00
C47    C     0.60244   0.30462   0.61166   0.00000  Uiso   1.00
C48    C     0.65487   0.23117   0.70426   0.00000  Uiso   1.00
C49    C     0.74561   0.18563   0.75074   0.00000  Uiso   1.00
C50    C     0.78103   0.12076   0.83461   0.00000  Uiso   1.00
C51    C     0.87064   0.00956   0.97299   0.00000  Uiso   1.00
C52    C     0.63959   0.35985   0.73093   0.00000  Uiso   1.00
C53    C     0.71747   0.42250   0.79980   0.00000  Uiso   1.00
C54    C     0.74001   0.46596   0.90610   0.00000  Uiso   1.00
C55    C     0.80580   0.55457   0.08578   0.00000  Uiso   1.00
C56    C     0.44538   0.29939   0.44525   0.00000  Uiso   1.00
C57    C     0.35996   0.31123   0.27391   0.00000  Uiso   1.00
C58    C     0.21897   0.30380   0.13968   0.00000  Uiso   1.00
C59    C     0.98323   0.29854   0.87580   0.00000  Uiso   1.00
C60    C     0.50397   0.27040   0.67795   0.00000  Uiso   1.00
C61    C     0.60139   0.21259   0.74027   0.00000  Uiso   1.00
C62    C     0.63667   0.14777   0.82408   0.00000  Uiso   1.00
C63    C     0.72745   0.10214   0.87067   0.00000  Uiso   1.00
C64    C     0.58611   0.34127   0.76693   0.00000  Uiso   1.00
C65    C     0.60852   0.38465   0.87314   0.00000  Uiso   1.00
C66    C     0.68643   0.44735   0.94217   0.00000  Uiso   1.00
C67    C     0.39189   0.28081   0.48124   0.00000  Uiso   1.00
C68    C     0.25101   0.27337   0.34726   0.00000  Uiso   1.00
C69    C     0.16539   0.28519   0.17575   0.00000  Uiso   1.00
H70    H     0.64408   0.31909   0.58364   0.00000  Uiso   1.00
H71    H     0.78700   0.20003   0.72287   0.00000  Uiso   1.00
H72    H     0.75884   0.43688   0.77191   0.00000  Uiso   1.00
H73    H     0.40138   0.32561   0.24610   0.00000  Uiso   1.00
H74    H     0.92189   0.05985   0.89317   0.00000  Uiso   1.00
H75    H     0.86248   0.55926   0.99652   0.00000  Uiso   1.00
H76    H     0.10872   0.32464   0.88775   0.00000  Uiso   1.00
H77    H     0.46232   0.25594   0.70598   0.00000  Uiso   1.00
H78    H     0.59526   0.13341   0.85192   0.00000  Uiso   1.00
H79    H     0.56711   0.37025   0.90097   0.00000  Uiso   1.00
H80    H     0.20966   0.25899   0.37516   0.00000  Uiso   1.00
H81    H     0.76628   0.00578   0.99792   0.00000  Uiso   1.00
H82    H     0.70687   0.50519   0.10127   0.00000  Uiso   1.00
H83    H     0.95311   0.27056   0.99251   0.00000  Uiso   1.00
O84    O     0.93486   0.95336   0.03939   0.00000  Uiso   1.00
O85    O     0.85689   0.60857   0.17496   0.00000  Uiso   1.00
O86    O     0.86797   0.30075   0.72029   0.00000  Uiso   1.00
N87    N     0.86700   0.06394   0.89776   0.00000  Uiso   1.00
N88    N     0.81148   0.53084   0.99441   0.00000  Uiso   1.00
N89    N     0.10677   0.31151   0.95781   0.00000  Uiso   1.00
N90    N     0.78327   0.03484   0.95412   0.00000  Uiso   1.00
N91    N     0.72775   0.50175   0.05078   0.00000  Uiso   1.00
N92    N     0.02304   0.28242   0.01418   0.00000  Uiso   1.00
C93    C     0.60244   0.19538   0.11166   0.00000  Uiso   1.00
C94    C     0.65487   0.26883   0.20426   0.00000  Uiso   1.00
C95    C     0.74561   0.31437   0.25074   0.00000  Uiso   1.00
C96    C     0.78103   0.37924   0.33461   0.00000  Uiso   1.00
C97    C     0.87064   0.49044   0.47299   0.00000  Uiso   1.00
C98    C     0.63959   0.14015   0.23093   0.00000  Uiso   1.00
C99    C     0.71747   0.07750   0.29980   0.00000  Uiso   1.00
C100   C     0.74001   0.03404   0.40610   0.00000  Uiso   1.00
C101   C     0.80580   0.94543   0.58578   0.00000  Uiso   1.00
C102   C     0.44538   0.20061   0.94525   0.00000  Uiso   1.00
C103   C     0.35996   0.18877   0.77391   0.00000  Uiso   1.00
C104   C     0.21897   0.19620   0.63968   0.00000  Uiso   1.00
C105   C     0.98323   0.20146   0.37580   0.00000  Uiso   1.00
C106   C     0.50397   0.22960   0.17795   0.00000  Uiso   1.00
C107   C     0.60139   0.28741   0.24027   0.00000  Uiso   1.00
C108   C     0.63667   0.35223   0.32408   0.00000  Uiso   1.00
C109   C     0.72745   0.39786   0.37067   0.00000  Uiso   1.00
C110   C     0.58611   0.15873   0.26693   0.00000  Uiso   1.00
C111   C     0.60852   0.11535   0.37314   0.00000  Uiso   1.00
C112   C     0.68643   0.05265   0.44217   0.00000  Uiso   1.00
C113   C     0.39189   0.21919   0.98124   0.00000  Uiso   1.00
C114   C     0.25101   0.22663   0.84726   0.00000  Uiso   1.00
C115   C     0.16539   0.21481   0.67575   0.00000  Uiso   1.00
H116   H     0.64408   0.18091   0.08364   0.00000  Uiso   1.00
H117   H     0.78700   0.29997   0.22287   0.00000  Uiso   1.00
H118   H     0.75884   0.06312   0.27191   0.00000  Uiso   1.00
H119   H     0.40138   0.17439   0.74610   0.00000  Uiso   1.00
H120   H     0.92189   0.44015   0.39317   0.00000  Uiso   1.00
H121   H     0.86248   0.94074   0.49652   0.00000  Uiso   1.00
H122   H     0.10872   0.17536   0.38775   0.00000  Uiso   1.00
H123   H     0.46232   0.24406   0.20598   0.00000  Uiso   1.00
H124   H     0.59526   0.36659   0.35192   0.00000  Uiso   1.00
H125   H     0.56711   0.12975   0.40097   0.00000  Uiso   1.00
H126   H     0.20966   0.24101   0.87516   0.00000  Uiso   1.00
H127   H     0.76628   0.49422   0.49792   0.00000  Uiso   1.00
H128   H     0.70687   0.99481   0.60127   0.00000  Uiso   1.00
H129   H     0.95311   0.22944   0.49251   0.00000  Uiso   1.00
O130   O     0.93486   0.54664   0.53939   0.00000  Uiso   1.00
O131   O     0.85689   0.89143   0.67496   0.00000  Uiso   1.00
O132   O     0.86797   0.19925   0.22029   0.00000  Uiso   1.00
N133   N     0.86700   0.43606   0.39776   0.00000  Uiso   1.00
N134   N     0.81148   0.96916   0.49441   0.00000  Uiso   1.00
N135   N     0.10677   0.18849   0.45781   0.00000  Uiso   1.00
N136   N     0.78327   0.46516   0.45412   0.00000  Uiso   1.00
N137   N     0.72775   0.99825   0.55078   0.00000  Uiso   1.00
N138   N     0.02304   0.21758   0.51418   0.00000  Uiso   1.00
C139   C     0.39756   0.69538   0.38834   0.00000  Uiso   1.00
C140   C     0.34513   0.76883   0.29574   0.00000  Uiso   1.00
C141   C     0.25439   0.81437   0.24926   0.00000  Uiso   1.00
C142   C     0.21897   0.87924   0.16539   0.00000  Uiso   1.00
C143   C     0.12936   0.99044   0.02701   0.00000  Uiso   1.00
C144   C     0.36041   0.64015   0.26907   0.00000  Uiso   1.00
C145   C     0.28253   0.57750   0.20020   0.00000  Uiso   1.00
C146   C     0.25999   0.53404   0.09390   0.00000  Uiso   1.00
C147   C     0.19420   0.44543   0.91422   0.00000  Uiso   1.00
C148   C     0.55462   0.70061   0.55475   0.00000  Uiso   1.00
C149   C     0.64004   0.68877   0.72609   0.00000  Uiso   1.00
C150   C     0.78103   0.69620   0.86032   0.00000  Uiso   1.00
C151   C     0.01677   0.70146   0.12420   0.00000  Uiso   1.00
C152   C     0.49603   0.72960   0.32205   0.00000  Uiso   1.00
C153   C     0.39861   0.78741   0.25973   0.00000  Uiso   1.00
C154   C     0.36333   0.85223   0.17592   0.00000  Uiso   1.00
C155   C     0.27255   0.89786   0.12933   0.00000  Uiso   1.00
C156   C     0.41389   0.65873   0.23307   0.00000  Uiso   1.00
C157   C     0.39148   0.61535   0.12686   0.00000  Uiso   1.00
C158   C     0.31357   0.55265   0.05783   0.00000  Uiso   1.00
C159   C     0.60811   0.71919   0.51876   0.00000  Uiso   1.00
C160   C     0.74899   0.72663   0.65274   0.00000  Uiso   1.00
C161   C     0.83461   0.71481   0.82425   0.00000  Uiso   1.00
H162   H     0.35592   0.68091   0.41636   0.00000  Uiso   1.00
H163   H     0.21300   0.79997   0.27713   0.00000  Uiso   1.00
H164   H     0.24116   0.56312   0.22809   0.00000  Uiso   1.00
H165   H     0.59862   0.67439   0.75390   0.00000  Uiso   1.00
H166   H     0.07811   0.94015   0.10683   0.00000  Uiso   1.00
H167   H     0.13752   0.44074   0.00348   0.00000  Uiso   1.00
H168   H     0.89128   0.67536   0.11225   0.00000  Uiso   1.00
H169   H     0.53768   0.74406   0.29402   0.00000  Uiso   1.00
H170   H     0.40474   0.86659   0.14808   0.00000  Uiso   1.00
H171   H     0.43289   0.62975   0.09903   0.00000  Uiso   1.00
H172   H     0.79034   0.74101   0.62484   0.00000  Uiso   1.00
H173   H     0.23372   0.99422   0.00208   0.00000  Uiso   1.00
H174   H     0.29313   0.49481   0.89873   0.00000  Uiso   1.00
H175   H     0.04689   0.72944   0.00749   0.00000  Uiso   1.00
O176   O     0.06514   0.04664   0.96061   0.00000  Uiso   1.00
O177   O     0.14311   0.39143   0.82504   0.00000  Uiso   1.00
O178   O     0.13203   0.69925   0.27971   0.00000  Uiso   1.00
N179   N     0.13300   0.93606   0.10224   0.00000  Uiso   1.00
N180   N     0.18852   0.46916   0.00559   0.00000  Uiso   1.00
N181   N     0.89323   0.68849   0.04219   0.00000  Uiso   1.00
N182   N     0.21673   0.96516   0.04588   0.00000  Uiso   1.00
N183   N     0.27225   0.49825   0.94922   0.00000  Uiso   1.00
N184   N     0.97696   0.71758   0.98582   0.00000  Uiso   1.00
