data_job_01859
_audit_creation_date              2018-12-19
_audit_creation_method            'Materials Studio'
_symmetry_space_group_name_H-M    'P1'
_symmetry_Int_Tables_number       1
_symmetry_cell_setting            triclinic
loop_
_symmetry_equiv_pos_as_xyz
  x,y,z
_cell_length_a                    8.8834
_cell_length_b                    11.6417
_cell_length_c                    21.1425
_cell_angle_alpha                 79.8308
_cell_angle_beta                  84.7643
_cell_angle_gamma                 72.8701
loop_
_atom_site_label
_atom_site_type_symbol
_atom_site_fract_x
_atom_site_fract_y
_atom_site_fract_z
_atom_site_U_iso_or_equiv
_atom_site_adp_type
_atom_site_occupancy
C1     C     0.74258   0.25538   0.67479   0.00000  Uiso   1.00
C2     C     0.83718   0.14558   0.64399   0.00000  Uiso   1.00
C3     C     0.98959   0.12751   0.61754   0.00000  Uiso   1.00
C4     C     0.05556   0.02116   0.59171   0.00000  Uiso   1.00
C5     C     0.21513   0.86364   0.54377   0.00000  Uiso   1.00
C6     C     0.59046   0.30853   0.63854   0.00000  Uiso   1.00
C7     C     0.53543   0.42749   0.60751   0.00000  Uiso   1.00
C8     C     0.39370   0.45832   0.57709   0.00000  Uiso   1.00
C9     C     0.17018   0.55382   0.52072   0.00000  Uiso   1.00
C10    C     0.69464   0.20462   0.74263   0.00000  Uiso   1.00
C11    C     0.72717   0.23622   0.79912   0.00000  Uiso   1.00
C12    C     0.67311   0.17957   0.85634   0.00000  Uiso   1.00
C13    C     0.61135   0.11372   0.96158   0.00000  Uiso   1.00
C14    C     0.58869   0.09862   0.67596   0.00000  Uiso   1.00
C15    C     0.75358   0.06043   0.64463   0.00000  Uiso   1.00
C16    C     0.81934   0.95407   0.61883   0.00000  Uiso   1.00
C17    C     0.97183   0.93585   0.59235   0.00000  Uiso   1.00
C18    C     0.50687   0.22339   0.63917   0.00000  Uiso   1.00
C19    C     0.36518   0.25405   0.60880   0.00000  Uiso   1.00
C20    C     0.30996   0.37302   0.57772   0.00000  Uiso   1.00
C21    C     0.61105   0.11946   0.74326   0.00000  Uiso   1.00
C22    C     0.55692   0.06277   0.80040   0.00000  Uiso   1.00
C23    C     0.58937   0.09427   0.85697   0.00000  Uiso   1.00
H24    H     0.80764   0.32168   0.67429   0.00000  Uiso   1.00
H25    H     0.05424   0.19344   0.61705   0.00000  Uiso   1.00
H26    H     0.60014   0.49337   0.60703   0.00000  Uiso   1.00
H27    H     0.79185   0.30211   0.79861   0.00000  Uiso   1.00
H28    H     0.29074   0.01373   0.55386   0.00000  Uiso   1.00
H29    H     0.33323   0.64616   0.53273   0.00000  Uiso   1.00
H30    H     0.73749   0.24287   0.93671   0.00000  Uiso   1.00
H31    H     0.52361   0.03233   0.67645   0.00000  Uiso   1.00
H32    H     0.75462   0.88820   0.61933   0.00000  Uiso   1.00
H33    H     0.30052   0.18813   0.60930   0.00000  Uiso   1.00
H34    H     0.49224   0.99688   0.80088   0.00000  Uiso   1.00
H35    H     0.04757   0.76599   0.55570   0.00000  Uiso   1.00
H36    H     0.09004   0.39842   0.53458   0.00000  Uiso   1.00
H37    H     0.49432   0.99513   0.93855   0.00000  Uiso   1.00
O38    O     0.32623   0.80029   0.51714   0.00000  Uiso   1.00
O39    O     0.06999   0.63002   0.48944   0.00000  Uiso   1.00
O40    O     0.60039   0.10091   0.01945   0.00000  Uiso   1.00
N41    N     0.20182   0.97519   0.56214   0.00000  Uiso   1.00
N42    N     0.30661   0.56647   0.54238   0.00000  Uiso   1.00
N43    N     0.68453   0.18945   0.92007   0.00000  Uiso   1.00
N44    N     0.07097   0.84188   0.56313   0.00000  Uiso   1.00
N45    N     0.17576   0.43316   0.54337   0.00000  Uiso   1.00
N46    N     0.55368   0.05615   0.92106   0.00000  Uiso   1.00
C47    C     0.25742   0.74462   0.32521   0.00000  Uiso   1.00
C48    C     0.16282   0.85442   0.35601   0.00000  Uiso   1.00
C49    C     0.01041   0.87249   0.38246   0.00000  Uiso   1.00
C50    C     0.94444   0.97884   0.40829   0.00000  Uiso   1.00
C51    C     0.78487   0.13636   0.45623   0.00000  Uiso   1.00
C52    C     0.40954   0.69147   0.36146   0.00000  Uiso   1.00
C53    C     0.46457   0.57251   0.39249   0.00000  Uiso   1.00
C54    C     0.60630   0.54168   0.42291   0.00000  Uiso   1.00
C55    C     0.82982   0.44618   0.47928   0.00000  Uiso   1.00
C56    C     0.30536   0.79538   0.25737   0.00000  Uiso   1.00
C57    C     0.27283   0.76378   0.20088   0.00000  Uiso   1.00
C58    C     0.32689   0.82043   0.14366   0.00000  Uiso   1.00
C59    C     0.38865   0.88628   0.03842   0.00000  Uiso   1.00
C60    C     0.41131   0.90138   0.32404   0.00000  Uiso   1.00
C61    C     0.24642   0.93957   0.35537   0.00000  Uiso   1.00
C62    C     0.18066   0.04593   0.38117   0.00000  Uiso   1.00
C63    C     0.02817   0.06415   0.40765   0.00000  Uiso   1.00
C64    C     0.49313   0.77661   0.36083   0.00000  Uiso   1.00
C65    C     0.63482   0.74595   0.39120   0.00000  Uiso   1.00
C66    C     0.69004   0.62698   0.42228   0.00000  Uiso   1.00
C67    C     0.38895   0.88054   0.25674   0.00000  Uiso   1.00
C68    C     0.44308   0.93723   0.19960   0.00000  Uiso   1.00
C69    C     0.41063   0.90573   0.14303   0.00000  Uiso   1.00
H70    H     0.19236   0.67832   0.32571   0.00000  Uiso   1.00
H71    H     0.94576   0.80656   0.38295   0.00000  Uiso   1.00
H72    H     0.39986   0.50663   0.39297   0.00000  Uiso   1.00
H73    H     0.20815   0.69789   0.20139   0.00000  Uiso   1.00
H74    H     0.70926   0.98627   0.44614   0.00000  Uiso   1.00
H75    H     0.66677   0.35384   0.46727   0.00000  Uiso   1.00
H76    H     0.26251   0.75713   0.06329   0.00000  Uiso   1.00
H77    H     0.47639   0.96767   0.32355   0.00000  Uiso   1.00
H78    H     0.24538   0.11180   0.38067   0.00000  Uiso   1.00
H79    H     0.69948   0.81187   0.39070   0.00000  Uiso   1.00
H80    H     0.50776   0.00312   0.19912   0.00000  Uiso   1.00
H81    H     0.95243   0.23401   0.44430   0.00000  Uiso   1.00
H82    H     0.90996   0.60158   0.46542   0.00000  Uiso   1.00
H83    H     0.50568   0.00487   0.06145   0.00000  Uiso   1.00
O84    O     0.67377   0.19971   0.48286   0.00000  Uiso   1.00
O85    O     0.93001   0.36998   0.51056   0.00000  Uiso   1.00
O86    O     0.39961   0.89909   0.98055   0.00000  Uiso   1.00
N87    N     0.79818   0.02481   0.43786   0.00000  Uiso   1.00
N88    N     0.69339   0.43353   0.45762   0.00000  Uiso   1.00
N89    N     0.31547   0.81055   0.07993   0.00000  Uiso   1.00
N90    N     0.92903   0.15812   0.43687   0.00000  Uiso   1.00
N91    N     0.82424   0.56684   0.45663   0.00000  Uiso   1.00
N92    N     0.44632   0.94385   0.07894   0.00000  Uiso   1.00
