data_job_01769
_audit_creation_date              2018-12-19
_audit_creation_method            'Materials Studio'
_symmetry_space_group_name_H-M    'P1'
_symmetry_Int_Tables_number       1
_symmetry_cell_setting            triclinic
loop_
_symmetry_equiv_pos_as_xyz
  x,y,z
_cell_length_a                    43.3869
_cell_length_b                    14.8222
_cell_length_c                    11.6640
_cell_angle_alpha                 90.0000
_cell_angle_beta                  77.1316
_cell_angle_gamma                 90.0000
loop_
_atom_site_label
_atom_site_type_symbol
_atom_site_fract_x
_atom_site_fract_y
_atom_site_fract_z
_atom_site_U_iso_or_equiv
_atom_site_adp_type
_atom_site_occupancy
C1     C     0.07987   0.13800   0.10184   0.00000  Uiso   1.00
C2     C     0.07105   0.15400   0.98403   0.00000  Uiso   1.00
C3     C     0.05713   0.09138   0.92293   0.00000  Uiso   1.00
C4     C     0.05093   0.11910   0.81662   0.00000  Uiso   1.00
C5     C     0.03611   0.13066   0.64028   0.00000  Uiso   1.00
C6     C     0.11507   0.15904   0.08213   0.00000  Uiso   1.00
C7     C     0.13816   0.10065   0.10352   0.00000  Uiso   1.00
C8     C     0.16901   0.13263   0.07980   0.00000  Uiso   1.00
C9     C     0.22252   0.15204   0.05584   0.00000  Uiso   1.00
C10    C     0.06291   0.21102   0.18445   0.00000  Uiso   1.00
C11    C     0.04216   0.19634   0.29189   0.00000  Uiso   1.00
C12    C     0.02910   0.27208   0.35433   0.00000  Uiso   1.00
C13    C     0.00164   0.37219   0.48923   0.00000  Uiso   1.00
C14    C     0.09360   0.29861   0.02170   0.00000  Uiso   1.00
C15    C     0.07851   0.24124   0.94050   0.00000  Uiso   1.00
C16    C     0.07232   0.26907   0.83426   0.00000  Uiso   1.00
C17    C     0.05840   0.20649   0.77301   0.00000  Uiso   1.00
C18    C     0.12252   0.24627   0.03860   0.00000  Uiso   1.00
C19    C     0.15335   0.27834   0.01485   0.00000  Uiso   1.00
C20    C     0.17648   0.22002   0.03619   0.00000  Uiso   1.00
C21    C     0.07037   0.29825   0.14092   0.00000  Uiso   1.00
C22    C     0.05735   0.37403   0.20321   0.00000  Uiso   1.00
C23    C     0.03658   0.35947   0.31072   0.00000  Uiso   1.00
H24    H     0.07407   0.07008   0.13573   0.00000  Uiso   1.00
H25    H     0.05136   0.02387   0.95664   0.00000  Uiso   1.00
H26    H     0.13238   0.03315   0.13722   0.00000  Uiso   1.00
H27    H     0.03639   0.12882   0.32554   0.00000  Uiso   1.00
H28    H     0.02949   0.01109   0.73886   0.00000  Uiso   1.00
H29    H     0.20031   0.03068   0.11965   0.00000  Uiso   1.00
H30    H     0.99791   0.23242   0.51679   0.00000  Uiso   1.00
H31    H     0.09941   0.36652   0.98781   0.00000  Uiso   1.00
H32    H     0.07810   0.33658   0.80059   0.00000  Uiso   1.00
H33    H     0.15911   0.34586   0.98117   0.00000  Uiso   1.00
H34    H     0.06312   0.44153   0.16950   0.00000  Uiso   1.00
H35    H     0.05119   0.26490   0.61221   0.00000  Uiso   1.00
H36    H     0.22201   0.28448   0.99300   0.00000  Uiso   1.00
H37    H     0.01961   0.48622   0.39014   0.00000  Uiso   1.00
O38    O     0.02587   0.11294   0.55503   0.00000  Uiso   1.00
O39    O     0.24998   0.13863   0.05464   0.00000  Uiso   1.00
O40    O     0.98443   0.40331   0.57566   0.00000  Uiso   1.00
N41    N     0.03752   0.07494   0.73476   0.00000  Uiso   1.00
N42    N     0.19722   0.09324   0.09076   0.00000  Uiso   1.00
N43    N     0.00800   0.28186   0.46206   0.00000  Uiso   1.00
N44    N     0.04919   0.21151   0.66661   0.00000  Uiso   1.00
N45    N     0.20890   0.22981   0.02261   0.00000  Uiso   1.00
N46    N     0.01968   0.41843   0.39391   0.00000  Uiso   1.00
C47    C     0.57987   0.63800   0.10184   0.00000  Uiso   1.00
C48    C     0.57105   0.65400   0.98403   0.00000  Uiso   1.00
C49    C     0.55713   0.59138   0.92293   0.00000  Uiso   1.00
C50    C     0.55093   0.61910   0.81662   0.00000  Uiso   1.00
C51    C     0.53611   0.63066   0.64028   0.00000  Uiso   1.00
C52    C     0.61507   0.65904   0.08213   0.00000  Uiso   1.00
C53    C     0.63816   0.60065   0.10352   0.00000  Uiso   1.00
C54    C     0.66901   0.63263   0.07980   0.00000  Uiso   1.00
C55    C     0.72252   0.65204   0.05584   0.00000  Uiso   1.00
C56    C     0.56291   0.71102   0.18445   0.00000  Uiso   1.00
C57    C     0.54216   0.69634   0.29189   0.00000  Uiso   1.00
C58    C     0.52910   0.77208   0.35433   0.00000  Uiso   1.00
C59    C     0.50164   0.87219   0.48923   0.00000  Uiso   1.00
C60    C     0.59360   0.79861   0.02170   0.00000  Uiso   1.00
C61    C     0.57851   0.74124   0.94050   0.00000  Uiso   1.00
C62    C     0.57232   0.76907   0.83426   0.00000  Uiso   1.00
C63    C     0.55840   0.70649   0.77301   0.00000  Uiso   1.00
C64    C     0.62252   0.74627   0.03860   0.00000  Uiso   1.00
C65    C     0.65335   0.77834   0.01485   0.00000  Uiso   1.00
C66    C     0.67648   0.72002   0.03619   0.00000  Uiso   1.00
C67    C     0.57037   0.79825   0.14092   0.00000  Uiso   1.00
C68    C     0.55735   0.87403   0.20321   0.00000  Uiso   1.00
C69    C     0.53658   0.85947   0.31072   0.00000  Uiso   1.00
H70    H     0.57407   0.57008   0.13573   0.00000  Uiso   1.00
H71    H     0.55136   0.52387   0.95664   0.00000  Uiso   1.00
H72    H     0.63238   0.53315   0.13722   0.00000  Uiso   1.00
H73    H     0.53639   0.62882   0.32554   0.00000  Uiso   1.00
H74    H     0.52949   0.51109   0.73886   0.00000  Uiso   1.00
H75    H     0.70031   0.53068   0.11965   0.00000  Uiso   1.00
H76    H     0.49791   0.73242   0.51679   0.00000  Uiso   1.00
H77    H     0.59941   0.86652   0.98781   0.00000  Uiso   1.00
H78    H     0.57810   0.83658   0.80059   0.00000  Uiso   1.00
H79    H     0.65911   0.84586   0.98117   0.00000  Uiso   1.00
H80    H     0.56312   0.94153   0.16950   0.00000  Uiso   1.00
H81    H     0.55119   0.76490   0.61221   0.00000  Uiso   1.00
H82    H     0.72201   0.78448   0.99300   0.00000  Uiso   1.00
H83    H     0.51961   0.98622   0.39014   0.00000  Uiso   1.00
O84    O     0.52587   0.61294   0.55503   0.00000  Uiso   1.00
O85    O     0.74998   0.63863   0.05464   0.00000  Uiso   1.00
O86    O     0.48443   0.90331   0.57566   0.00000  Uiso   1.00
N87    N     0.53752   0.57494   0.73476   0.00000  Uiso   1.00
N88    N     0.69722   0.59324   0.09076   0.00000  Uiso   1.00
N89    N     0.50800   0.78186   0.46206   0.00000  Uiso   1.00
N90    N     0.54919   0.71151   0.66661   0.00000  Uiso   1.00
N91    N     0.70890   0.72981   0.02261   0.00000  Uiso   1.00
N92    N     0.51968   0.91843   0.39391   0.00000  Uiso   1.00
C93    C     0.92013   0.13800   0.39816   0.00000  Uiso   1.00
C94    C     0.92895   0.15400   0.51597   0.00000  Uiso   1.00
C95    C     0.94287   0.09138   0.57707   0.00000  Uiso   1.00
C96    C     0.94907   0.11910   0.68338   0.00000  Uiso   1.00
C97    C     0.96389   0.13066   0.85972   0.00000  Uiso   1.00
C98    C     0.88493   0.15904   0.41787   0.00000  Uiso   1.00
C99    C     0.86184   0.10065   0.39648   0.00000  Uiso   1.00
C100   C     0.83099   0.13263   0.42020   0.00000  Uiso   1.00
C101   C     0.77748   0.15204   0.44416   0.00000  Uiso   1.00
C102   C     0.93709   0.21102   0.31555   0.00000  Uiso   1.00
C103   C     0.95784   0.19634   0.20811   0.00000  Uiso   1.00
C104   C     0.97090   0.27208   0.14567   0.00000  Uiso   1.00
C105   C     0.99836   0.37219   0.01077   0.00000  Uiso   1.00
C106   C     0.90640   0.29861   0.47830   0.00000  Uiso   1.00
C107   C     0.92149   0.24124   0.55950   0.00000  Uiso   1.00
C108   C     0.92768   0.26907   0.66574   0.00000  Uiso   1.00
C109   C     0.94160   0.20649   0.72699   0.00000  Uiso   1.00
C110   C     0.87748   0.24627   0.46140   0.00000  Uiso   1.00
C111   C     0.84665   0.27834   0.48515   0.00000  Uiso   1.00
C112   C     0.82352   0.22002   0.46381   0.00000  Uiso   1.00
C113   C     0.92963   0.29825   0.35908   0.00000  Uiso   1.00
C114   C     0.94265   0.37403   0.29679   0.00000  Uiso   1.00
C115   C     0.96342   0.35947   0.18928   0.00000  Uiso   1.00
H116   H     0.92593   0.07008   0.36427   0.00000  Uiso   1.00
H117   H     0.94864   0.02387   0.54336   0.00000  Uiso   1.00
H118   H     0.86762   0.03315   0.36278   0.00000  Uiso   1.00
H119   H     0.96361   0.12882   0.17446   0.00000  Uiso   1.00
H120   H     0.97051   0.01109   0.76114   0.00000  Uiso   1.00
H121   H     0.79969   0.03068   0.38035   0.00000  Uiso   1.00
H122   H     0.00209   0.23242   0.98321   0.00000  Uiso   1.00
H123   H     0.90059   0.36652   0.51219   0.00000  Uiso   1.00
H124   H     0.92190   0.33658   0.69941   0.00000  Uiso   1.00
H125   H     0.84089   0.34586   0.51883   0.00000  Uiso   1.00
H126   H     0.93688   0.44153   0.33050   0.00000  Uiso   1.00
H127   H     0.94881   0.26490   0.88779   0.00000  Uiso   1.00
H128   H     0.77799   0.28448   0.50700   0.00000  Uiso   1.00
H129   H     0.98039   0.48622   0.10986   0.00000  Uiso   1.00
O130   O     0.97413   0.11294   0.94497   0.00000  Uiso   1.00
O131   O     0.75002   0.13863   0.44536   0.00000  Uiso   1.00
O132   O     0.01557   0.40331   0.92434   0.00000  Uiso   1.00
N133   N     0.96248   0.07494   0.76524   0.00000  Uiso   1.00
N134   N     0.80278   0.09324   0.40924   0.00000  Uiso   1.00
N135   N     0.99200   0.28186   0.03794   0.00000  Uiso   1.00
N136   N     0.95081   0.21151   0.83339   0.00000  Uiso   1.00
N137   N     0.79110   0.22981   0.47739   0.00000  Uiso   1.00
N138   N     0.98032   0.41843   0.10609   0.00000  Uiso   1.00
C139   C     0.42013   0.63800   0.39816   0.00000  Uiso   1.00
C140   C     0.42895   0.65400   0.51597   0.00000  Uiso   1.00
C141   C     0.44287   0.59138   0.57707   0.00000  Uiso   1.00
C142   C     0.44907   0.61910   0.68338   0.00000  Uiso   1.00
C143   C     0.46389   0.63066   0.85972   0.00000  Uiso   1.00
C144   C     0.38493   0.65904   0.41787   0.00000  Uiso   1.00
C145   C     0.36184   0.60065   0.39648   0.00000  Uiso   1.00
C146   C     0.33099   0.63263   0.42020   0.00000  Uiso   1.00
C147   C     0.27748   0.65204   0.44416   0.00000  Uiso   1.00
C148   C     0.43709   0.71102   0.31555   0.00000  Uiso   1.00
C149   C     0.45784   0.69634   0.20811   0.00000  Uiso   1.00
C150   C     0.47090   0.77208   0.14567   0.00000  Uiso   1.00
C151   C     0.49836   0.87219   0.01077   0.00000  Uiso   1.00
C152   C     0.40640   0.79861   0.47830   0.00000  Uiso   1.00
C153   C     0.42149   0.74124   0.55950   0.00000  Uiso   1.00
C154   C     0.42768   0.76907   0.66574   0.00000  Uiso   1.00
C155   C     0.44160   0.70649   0.72699   0.00000  Uiso   1.00
C156   C     0.37748   0.74627   0.46140   0.00000  Uiso   1.00
C157   C     0.34665   0.77834   0.48515   0.00000  Uiso   1.00
C158   C     0.32352   0.72002   0.46381   0.00000  Uiso   1.00
C159   C     0.42963   0.79825   0.35908   0.00000  Uiso   1.00
C160   C     0.44265   0.87403   0.29679   0.00000  Uiso   1.00
C161   C     0.46342   0.85947   0.18928   0.00000  Uiso   1.00
H162   H     0.42593   0.57008   0.36427   0.00000  Uiso   1.00
H163   H     0.44864   0.52387   0.54336   0.00000  Uiso   1.00
H164   H     0.36762   0.53315   0.36278   0.00000  Uiso   1.00
H165   H     0.46361   0.62882   0.17446   0.00000  Uiso   1.00
H166   H     0.47051   0.51109   0.76114   0.00000  Uiso   1.00
H167   H     0.29969   0.53068   0.38035   0.00000  Uiso   1.00
H168   H     0.50209   0.73242   0.98321   0.00000  Uiso   1.00
H169   H     0.40059   0.86652   0.51219   0.00000  Uiso   1.00
H170   H     0.42190   0.83658   0.69941   0.00000  Uiso   1.00
H171   H     0.34089   0.84586   0.51883   0.00000  Uiso   1.00
H172   H     0.43688   0.94153   0.33050   0.00000  Uiso   1.00
H173   H     0.44881   0.76490   0.88779   0.00000  Uiso   1.00
H174   H     0.27799   0.78448   0.50700   0.00000  Uiso   1.00
H175   H     0.48039   0.98622   0.10986   0.00000  Uiso   1.00
O176   O     0.47413   0.61294   0.94497   0.00000  Uiso   1.00
O177   O     0.25002   0.63863   0.44536   0.00000  Uiso   1.00
O178   O     0.51557   0.90331   0.92434   0.00000  Uiso   1.00
N179   N     0.46248   0.57494   0.76524   0.00000  Uiso   1.00
N180   N     0.30278   0.59324   0.40924   0.00000  Uiso   1.00
N181   N     0.49200   0.78186   0.03794   0.00000  Uiso   1.00
N182   N     0.45081   0.71151   0.83339   0.00000  Uiso   1.00
N183   N     0.29110   0.72981   0.47739   0.00000  Uiso   1.00
N184   N     0.48032   0.91843   0.10609   0.00000  Uiso   1.00
C185   C     0.92013   0.86200   0.89816   0.00000  Uiso   1.00
C186   C     0.92895   0.84600   0.01597   0.00000  Uiso   1.00
C187   C     0.94287   0.90862   0.07707   0.00000  Uiso   1.00
C188   C     0.94907   0.88090   0.18338   0.00000  Uiso   1.00
C189   C     0.96389   0.86934   0.35972   0.00000  Uiso   1.00
C190   C     0.88493   0.84096   0.91787   0.00000  Uiso   1.00
C191   C     0.86184   0.89935   0.89648   0.00000  Uiso   1.00
C192   C     0.83099   0.86737   0.92020   0.00000  Uiso   1.00
C193   C     0.77748   0.84796   0.94416   0.00000  Uiso   1.00
C194   C     0.93709   0.78898   0.81555   0.00000  Uiso   1.00
C195   C     0.95784   0.80366   0.70811   0.00000  Uiso   1.00
C196   C     0.97090   0.72792   0.64567   0.00000  Uiso   1.00
C197   C     0.99836   0.62781   0.51077   0.00000  Uiso   1.00
C198   C     0.90640   0.70139   0.97830   0.00000  Uiso   1.00
C199   C     0.92149   0.75876   0.05950   0.00000  Uiso   1.00
C200   C     0.92768   0.73093   0.16574   0.00000  Uiso   1.00
C201   C     0.94160   0.79351   0.22699   0.00000  Uiso   1.00
C202   C     0.87748   0.75373   0.96140   0.00000  Uiso   1.00
C203   C     0.84665   0.72166   0.98515   0.00000  Uiso   1.00
C204   C     0.82352   0.77998   0.96381   0.00000  Uiso   1.00
C205   C     0.92963   0.70175   0.85908   0.00000  Uiso   1.00
C206   C     0.94265   0.62597   0.79679   0.00000  Uiso   1.00
C207   C     0.96342   0.64053   0.68928   0.00000  Uiso   1.00
H208   H     0.92593   0.92992   0.86427   0.00000  Uiso   1.00
H209   H     0.94864   0.97613   0.04336   0.00000  Uiso   1.00
H210   H     0.86762   0.96685   0.86278   0.00000  Uiso   1.00
H211   H     0.96361   0.87118   0.67446   0.00000  Uiso   1.00
H212   H     0.97051   0.98891   0.26114   0.00000  Uiso   1.00
H213   H     0.79969   0.96932   0.88035   0.00000  Uiso   1.00
H214   H     0.00209   0.76758   0.48321   0.00000  Uiso   1.00
H215   H     0.90059   0.63348   0.01219   0.00000  Uiso   1.00
H216   H     0.92190   0.66342   0.19941   0.00000  Uiso   1.00
H217   H     0.84089   0.65414   0.01883   0.00000  Uiso   1.00
H218   H     0.93688   0.55847   0.83050   0.00000  Uiso   1.00
H219   H     0.94881   0.73510   0.38779   0.00000  Uiso   1.00
H220   H     0.77799   0.71552   0.00700   0.00000  Uiso   1.00
H221   H     0.98039   0.51378   0.60986   0.00000  Uiso   1.00
O222   O     0.97413   0.88706   0.44497   0.00000  Uiso   1.00
O223   O     0.75002   0.86137   0.94536   0.00000  Uiso   1.00
O224   O     0.01557   0.59669   0.42434   0.00000  Uiso   1.00
N225   N     0.96248   0.92506   0.26524   0.00000  Uiso   1.00
N226   N     0.80278   0.90676   0.90924   0.00000  Uiso   1.00
N227   N     0.99200   0.71814   0.53794   0.00000  Uiso   1.00
N228   N     0.95081   0.78849   0.33339   0.00000  Uiso   1.00
N229   N     0.79110   0.77019   0.97739   0.00000  Uiso   1.00
N230   N     0.98032   0.58157   0.60609   0.00000  Uiso   1.00
C231   C     0.42013   0.36200   0.89816   0.00000  Uiso   1.00
C232   C     0.42895   0.34600   0.01597   0.00000  Uiso   1.00
C233   C     0.44287   0.40862   0.07707   0.00000  Uiso   1.00
C234   C     0.44907   0.38090   0.18338   0.00000  Uiso   1.00
C235   C     0.46389   0.36934   0.35972   0.00000  Uiso   1.00
C236   C     0.38493   0.34096   0.91787   0.00000  Uiso   1.00
C237   C     0.36184   0.39935   0.89648   0.00000  Uiso   1.00
C238   C     0.33099   0.36737   0.92020   0.00000  Uiso   1.00
C239   C     0.27748   0.34796   0.94416   0.00000  Uiso   1.00
C240   C     0.43709   0.28898   0.81555   0.00000  Uiso   1.00
C241   C     0.45784   0.30366   0.70811   0.00000  Uiso   1.00
C242   C     0.47090   0.22792   0.64567   0.00000  Uiso   1.00
C243   C     0.49836   0.12781   0.51077   0.00000  Uiso   1.00
C244   C     0.40640   0.20139   0.97830   0.00000  Uiso   1.00
C245   C     0.42149   0.25876   0.05950   0.00000  Uiso   1.00
C246   C     0.42768   0.23093   0.16574   0.00000  Uiso   1.00
C247   C     0.44160   0.29351   0.22699   0.00000  Uiso   1.00
C248   C     0.37748   0.25373   0.96140   0.00000  Uiso   1.00
C249   C     0.34665   0.22166   0.98515   0.00000  Uiso   1.00
C250   C     0.32352   0.27998   0.96381   0.00000  Uiso   1.00
C251   C     0.42963   0.20175   0.85908   0.00000  Uiso   1.00
C252   C     0.44265   0.12597   0.79679   0.00000  Uiso   1.00
C253   C     0.46342   0.14053   0.68928   0.00000  Uiso   1.00
H254   H     0.42593   0.42992   0.86427   0.00000  Uiso   1.00
H255   H     0.44864   0.47613   0.04336   0.00000  Uiso   1.00
H256   H     0.36762   0.46685   0.86278   0.00000  Uiso   1.00
H257   H     0.46361   0.37118   0.67446   0.00000  Uiso   1.00
H258   H     0.47051   0.48891   0.26114   0.00000  Uiso   1.00
H259   H     0.29969   0.46932   0.88035   0.00000  Uiso   1.00
H260   H     0.50209   0.26758   0.48321   0.00000  Uiso   1.00
H261   H     0.40059   0.13348   0.01219   0.00000  Uiso   1.00
H262   H     0.42190   0.16342   0.19941   0.00000  Uiso   1.00
H263   H     0.34089   0.15414   0.01883   0.00000  Uiso   1.00
H264   H     0.43688   0.05847   0.83050   0.00000  Uiso   1.00
H265   H     0.44881   0.23510   0.38779   0.00000  Uiso   1.00
H266   H     0.27799   0.21552   0.00700   0.00000  Uiso   1.00
H267   H     0.48039   0.01378   0.60986   0.00000  Uiso   1.00
O268   O     0.47413   0.38706   0.44497   0.00000  Uiso   1.00
O269   O     0.25002   0.36137   0.94536   0.00000  Uiso   1.00
O270   O     0.51557   0.09669   0.42434   0.00000  Uiso   1.00
N271   N     0.46248   0.42506   0.26524   0.00000  Uiso   1.00
N272   N     0.30278   0.40676   0.90924   0.00000  Uiso   1.00
N273   N     0.49200   0.21814   0.53794   0.00000  Uiso   1.00
N274   N     0.45081   0.28849   0.33339   0.00000  Uiso   1.00
N275   N     0.29110   0.27019   0.97739   0.00000  Uiso   1.00
N276   N     0.48032   0.08157   0.60609   0.00000  Uiso   1.00
C277   C     0.07987   0.86200   0.60184   0.00000  Uiso   1.00
C278   C     0.07105   0.84600   0.48403   0.00000  Uiso   1.00
C279   C     0.05713   0.90862   0.42293   0.00000  Uiso   1.00
C280   C     0.05093   0.88090   0.31662   0.00000  Uiso   1.00
C281   C     0.03611   0.86934   0.14028   0.00000  Uiso   1.00
C282   C     0.11507   0.84096   0.58213   0.00000  Uiso   1.00
C283   C     0.13816   0.89935   0.60352   0.00000  Uiso   1.00
C284   C     0.16901   0.86737   0.57980   0.00000  Uiso   1.00
C285   C     0.22252   0.84796   0.55584   0.00000  Uiso   1.00
C286   C     0.06291   0.78898   0.68445   0.00000  Uiso   1.00
C287   C     0.04216   0.80366   0.79189   0.00000  Uiso   1.00
C288   C     0.02910   0.72792   0.85433   0.00000  Uiso   1.00
C289   C     0.00164   0.62781   0.98923   0.00000  Uiso   1.00
C290   C     0.09360   0.70139   0.52170   0.00000  Uiso   1.00
C291   C     0.07851   0.75876   0.44050   0.00000  Uiso   1.00
C292   C     0.07232   0.73093   0.33426   0.00000  Uiso   1.00
C293   C     0.05840   0.79351   0.27301   0.00000  Uiso   1.00
C294   C     0.12252   0.75373   0.53860   0.00000  Uiso   1.00
C295   C     0.15335   0.72166   0.51485   0.00000  Uiso   1.00
C296   C     0.17648   0.77998   0.53619   0.00000  Uiso   1.00
C297   C     0.07037   0.70175   0.64092   0.00000  Uiso   1.00
C298   C     0.05735   0.62597   0.70321   0.00000  Uiso   1.00
C299   C     0.03658   0.64053   0.81072   0.00000  Uiso   1.00
H300   H     0.07407   0.92992   0.63573   0.00000  Uiso   1.00
H301   H     0.05136   0.97613   0.45664   0.00000  Uiso   1.00
H302   H     0.13238   0.96685   0.63722   0.00000  Uiso   1.00
H303   H     0.03639   0.87118   0.82554   0.00000  Uiso   1.00
H304   H     0.02949   0.98891   0.23886   0.00000  Uiso   1.00
H305   H     0.20031   0.96932   0.61965   0.00000  Uiso   1.00
H306   H     0.99791   0.76758   0.01679   0.00000  Uiso   1.00
H307   H     0.09941   0.63348   0.48781   0.00000  Uiso   1.00
H308   H     0.07810   0.66342   0.30059   0.00000  Uiso   1.00
H309   H     0.15911   0.65414   0.48117   0.00000  Uiso   1.00
H310   H     0.06312   0.55847   0.66950   0.00000  Uiso   1.00
H311   H     0.05119   0.73510   0.11221   0.00000  Uiso   1.00
H312   H     0.22201   0.71552   0.49300   0.00000  Uiso   1.00
H313   H     0.01961   0.51378   0.89014   0.00000  Uiso   1.00
O314   O     0.02587   0.88706   0.05503   0.00000  Uiso   1.00
O315   O     0.24998   0.86137   0.55464   0.00000  Uiso   1.00
O316   O     0.98443   0.59669   0.07566   0.00000  Uiso   1.00
N317   N     0.03752   0.92506   0.23476   0.00000  Uiso   1.00
N318   N     0.19722   0.90676   0.59076   0.00000  Uiso   1.00
N319   N     0.00800   0.71814   0.96206   0.00000  Uiso   1.00
N320   N     0.04919   0.78849   0.16661   0.00000  Uiso   1.00
N321   N     0.20890   0.77019   0.52261   0.00000  Uiso   1.00
N322   N     0.01968   0.58157   0.89391   0.00000  Uiso   1.00
C323   C     0.57987   0.36200   0.60184   0.00000  Uiso   1.00
C324   C     0.57105   0.34600   0.48403   0.00000  Uiso   1.00
C325   C     0.55713   0.40862   0.42293   0.00000  Uiso   1.00
C326   C     0.55093   0.38090   0.31662   0.00000  Uiso   1.00
C327   C     0.53611   0.36934   0.14028   0.00000  Uiso   1.00
C328   C     0.61507   0.34096   0.58213   0.00000  Uiso   1.00
C329   C     0.63816   0.39935   0.60352   0.00000  Uiso   1.00
C330   C     0.66901   0.36737   0.57980   0.00000  Uiso   1.00
C331   C     0.72252   0.34796   0.55584   0.00000  Uiso   1.00
C332   C     0.56291   0.28898   0.68445   0.00000  Uiso   1.00
C333   C     0.54216   0.30366   0.79189   0.00000  Uiso   1.00
C334   C     0.52910   0.22792   0.85433   0.00000  Uiso   1.00
C335   C     0.50164   0.12781   0.98923   0.00000  Uiso   1.00
C336   C     0.59360   0.20139   0.52170   0.00000  Uiso   1.00
C337   C     0.57851   0.25876   0.44050   0.00000  Uiso   1.00
C338   C     0.57232   0.23093   0.33426   0.00000  Uiso   1.00
C339   C     0.55840   0.29351   0.27301   0.00000  Uiso   1.00
C340   C     0.62252   0.25373   0.53860   0.00000  Uiso   1.00
C341   C     0.65335   0.22166   0.51485   0.00000  Uiso   1.00
C342   C     0.67648   0.27998   0.53619   0.00000  Uiso   1.00
C343   C     0.57037   0.20175   0.64092   0.00000  Uiso   1.00
C344   C     0.55735   0.12597   0.70321   0.00000  Uiso   1.00
C345   C     0.53658   0.14053   0.81072   0.00000  Uiso   1.00
H346   H     0.57407   0.42992   0.63573   0.00000  Uiso   1.00
H347   H     0.55136   0.47613   0.45664   0.00000  Uiso   1.00
H348   H     0.63238   0.46685   0.63722   0.00000  Uiso   1.00
H349   H     0.53639   0.37118   0.82554   0.00000  Uiso   1.00
H350   H     0.52949   0.48891   0.23886   0.00000  Uiso   1.00
H351   H     0.70031   0.46932   0.61965   0.00000  Uiso   1.00
H352   H     0.49791   0.26758   0.01679   0.00000  Uiso   1.00
H353   H     0.59941   0.13348   0.48781   0.00000  Uiso   1.00
H354   H     0.57810   0.16342   0.30059   0.00000  Uiso   1.00
H355   H     0.65911   0.15414   0.48117   0.00000  Uiso   1.00
H356   H     0.56312   0.05847   0.66950   0.00000  Uiso   1.00
H357   H     0.55119   0.23510   0.11221   0.00000  Uiso   1.00
H358   H     0.72201   0.21552   0.49300   0.00000  Uiso   1.00
H359   H     0.51961   0.01378   0.89014   0.00000  Uiso   1.00
O360   O     0.52587   0.38706   0.05503   0.00000  Uiso   1.00
O361   O     0.74998   0.36137   0.55464   0.00000  Uiso   1.00
O362   O     0.48443   0.09669   0.07566   0.00000  Uiso   1.00
N363   N     0.53752   0.42506   0.23476   0.00000  Uiso   1.00
N364   N     0.69722   0.40676   0.59076   0.00000  Uiso   1.00
N365   N     0.50800   0.21814   0.96206   0.00000  Uiso   1.00
N366   N     0.54919   0.28849   0.16661   0.00000  Uiso   1.00
N367   N     0.70890   0.27019   0.52261   0.00000  Uiso   1.00
N368   N     0.51968   0.08157   0.89391   0.00000  Uiso   1.00
