data_job_01853
_audit_creation_date              2018-12-19
_audit_creation_method            'Materials Studio'
_symmetry_space_group_name_H-M    'P1'
_symmetry_Int_Tables_number       1
_symmetry_cell_setting            triclinic
loop_
_symmetry_equiv_pos_as_xyz
  x,y,z
_cell_length_a                    16.9075
_cell_length_b                    16.9075
_cell_length_c                    16.0703
_cell_angle_alpha                 90.0000
_cell_angle_beta                  90.0000
_cell_angle_gamma                 90.0000
loop_
_atom_site_label
_atom_site_type_symbol
_atom_site_fract_x
_atom_site_fract_y
_atom_site_fract_z
_atom_site_U_iso_or_equiv
_atom_site_adp_type
_atom_site_occupancy
C1     C     0.17706   0.81032   0.49276   0.00000  Uiso   1.00
C2     C     0.14474   0.76893   0.56991   0.00000  Uiso   1.00
C3     C     0.17642   0.70181   0.60677   0.00000  Uiso   1.00
C4     C     0.13817   0.67301   0.67696   0.00000  Uiso   1.00
C5     C     0.09822   0.60308   0.79184   0.00000  Uiso   1.00
C6     C     0.10902   0.81295   0.43053   0.00000  Uiso   1.00
C7     C     0.11068   0.78284   0.35021   0.00000  Uiso   1.00
C8     C     0.04237   0.79111   0.30306   0.00000  Uiso   1.00
C9     C     0.94700   0.78957   0.20153   0.00000  Uiso   1.00
C10    C     0.19224   0.89584   0.51834   0.00000  Uiso   1.00
C11    C     0.26387   0.93544   0.51183   0.00000  Uiso   1.00
C12    C     0.26562   0.01350   0.53859   0.00000  Uiso   1.00
C13    C     0.29946   0.14065   0.57340   0.00000  Uiso   1.00
C14    C     0.05278   0.87854   0.55186   0.00000  Uiso   1.00
C15    C     0.07723   0.80599   0.60200   0.00000  Uiso   1.00
C16    C     0.03892   0.77729   0.67216   0.00000  Uiso   1.00
C17    C     0.07054   0.71013   0.70912   0.00000  Uiso   1.00
C18    C     0.04152   0.85000   0.46263   0.00000  Uiso   1.00
C19    C     0.97318   0.85832   0.41559   0.00000  Uiso   1.00
C20    C     0.97474   0.82823   0.33522   0.00000  Uiso   1.00
C21    C     0.12474   0.93289   0.55044   0.00000  Uiso   1.00
C22    C     0.12637   0.01091   0.57721   0.00000  Uiso   1.00
C23    C     0.19799   0.05062   0.57075   0.00000  Uiso   1.00
H24    H     0.22961   0.78148   0.46777   0.00000  Uiso   1.00
H25    H     0.22866   0.67314   0.58191   0.00000  Uiso   1.00
H26    H     0.16293   0.75418   0.32538   0.00000  Uiso   1.00
H27    H     0.31610   0.90674   0.48698   0.00000  Uiso   1.00
H28    H     0.19782   0.56937   0.72260   0.00000  Uiso   1.00
H29    H     0.05924   0.74025   0.18168   0.00000  Uiso   1.00
H30    H     0.38222   0.06197   0.52244   0.00000  Uiso   1.00
H31    H     0.00022   0.90739   0.57685   0.00000  Uiso   1.00
H32    H     0.98668   0.80597   0.69698   0.00000  Uiso   1.00
H33    H     0.92096   0.88700   0.44045   0.00000  Uiso   1.00
H34    H     0.07412   0.03957   0.60205   0.00000  Uiso   1.00
H35    H     0.00142   0.67717   0.81599   0.00000  Uiso   1.00
H36    H     0.86284   0.84806   0.27507   0.00000  Uiso   1.00
H37    H     0.18582   0.16977   0.61584   0.00000  Uiso   1.00
O38    O     0.09483   0.55426   0.84633   0.00000  Uiso   1.00
O39    O     0.91304   0.77847   0.13667   0.00000  Uiso   1.00
O40    O     0.33678   0.20055   0.58375   0.00000  Uiso   1.00
N41    N     0.15346   0.60867   0.72810   0.00000  Uiso   1.00
N42    N     0.02390   0.76842   0.22238   0.00000  Uiso   1.00
N43    N     0.32585   0.06920   0.54094   0.00000  Uiso   1.00
N44    N     0.04778   0.66668   0.77835   0.00000  Uiso   1.00
N45    N     0.91822   0.82643   0.27263   0.00000  Uiso   1.00
N46    N     0.22017   0.12721   0.59120   0.00000  Uiso   1.00
C47    C     0.82294   0.18968   0.99276   0.00000  Uiso   1.00
C48    C     0.85526   0.23107   0.06991   0.00000  Uiso   1.00
C49    C     0.82358   0.29819   0.10677   0.00000  Uiso   1.00
C50    C     0.86183   0.32699   0.17696   0.00000  Uiso   1.00
C51    C     0.90178   0.39692   0.29184   0.00000  Uiso   1.00
C52    C     0.89098   0.18705   0.93053   0.00000  Uiso   1.00
C53    C     0.88932   0.21716   0.85021   0.00000  Uiso   1.00
C54    C     0.95763   0.20889   0.80306   0.00000  Uiso   1.00
C55    C     0.05300   0.21043   0.70153   0.00000  Uiso   1.00
C56    C     0.80776   0.10416   0.01834   0.00000  Uiso   1.00
C57    C     0.73613   0.06456   0.01183   0.00000  Uiso   1.00
C58    C     0.73438   0.98650   0.03859   0.00000  Uiso   1.00
C59    C     0.70054   0.85935   0.07340   0.00000  Uiso   1.00
C60    C     0.94722   0.12146   0.05186   0.00000  Uiso   1.00
C61    C     0.92277   0.19401   0.10200   0.00000  Uiso   1.00
C62    C     0.96108   0.22271   0.17216   0.00000  Uiso   1.00
C63    C     0.92946   0.28987   0.20912   0.00000  Uiso   1.00
C64    C     0.95848   0.15000   0.96263   0.00000  Uiso   1.00
C65    C     0.02682   0.14168   0.91559   0.00000  Uiso   1.00
C66    C     0.02526   0.17177   0.83522   0.00000  Uiso   1.00
C67    C     0.87526   0.06711   0.05044   0.00000  Uiso   1.00
C68    C     0.87363   0.98909   0.07721   0.00000  Uiso   1.00
C69    C     0.80201   0.94938   0.07075   0.00000  Uiso   1.00
H70    H     0.77039   0.21852   0.96777   0.00000  Uiso   1.00
H71    H     0.77134   0.32686   0.08191   0.00000  Uiso   1.00
H72    H     0.83707   0.24582   0.82538   0.00000  Uiso   1.00
H73    H     0.68390   0.09326   0.98698   0.00000  Uiso   1.00
H74    H     0.80218   0.43063   0.22260   0.00000  Uiso   1.00
H75    H     0.94076   0.25975   0.68168   0.00000  Uiso   1.00
H76    H     0.61778   0.93803   0.02244   0.00000  Uiso   1.00
H77    H     0.99978   0.09261   0.07685   0.00000  Uiso   1.00
H78    H     0.01332   0.19403   0.19698   0.00000  Uiso   1.00
H79    H     0.07904   0.11300   0.94045   0.00000  Uiso   1.00
H80    H     0.92588   0.96043   0.10205   0.00000  Uiso   1.00
H81    H     0.99858   0.32283   0.31599   0.00000  Uiso   1.00
H82    H     0.13716   0.15194   0.77507   0.00000  Uiso   1.00
H83    H     0.81418   0.83023   0.11584   0.00000  Uiso   1.00
O84    O     0.90517   0.44574   0.34633   0.00000  Uiso   1.00
O85    O     0.08696   0.22153   0.63667   0.00000  Uiso   1.00
O86    O     0.66322   0.79945   0.08375   0.00000  Uiso   1.00
N87    N     0.84654   0.39133   0.22810   0.00000  Uiso   1.00
N88    N     0.97610   0.23158   0.72238   0.00000  Uiso   1.00
N89    N     0.67415   0.93080   0.04094   0.00000  Uiso   1.00
N90    N     0.95222   0.33332   0.27835   0.00000  Uiso   1.00
N91    N     0.08178   0.17357   0.77263   0.00000  Uiso   1.00
N92    N     0.77983   0.87279   0.09120   0.00000  Uiso   1.00
C93    C     0.68968   0.67706   0.24276   0.00000  Uiso   1.00
C94    C     0.73107   0.64474   0.31991   0.00000  Uiso   1.00
C95    C     0.79819   0.67642   0.35677   0.00000  Uiso   1.00
C96    C     0.82699   0.63817   0.42696   0.00000  Uiso   1.00
C97    C     0.89692   0.59822   0.54184   0.00000  Uiso   1.00
C98    C     0.68705   0.60902   0.18053   0.00000  Uiso   1.00
C99    C     0.71716   0.61068   0.10021   0.00000  Uiso   1.00
C100   C     0.70889   0.54237   0.05306   0.00000  Uiso   1.00
C101   C     0.71043   0.44700   0.95153   0.00000  Uiso   1.00
C102   C     0.60416   0.69224   0.26834   0.00000  Uiso   1.00
C103   C     0.56456   0.76387   0.26183   0.00000  Uiso   1.00
C104   C     0.48650   0.76562   0.28859   0.00000  Uiso   1.00
C105   C     0.35935   0.79946   0.32340   0.00000  Uiso   1.00
C106   C     0.62146   0.55278   0.30186   0.00000  Uiso   1.00
C107   C     0.69401   0.57723   0.35200   0.00000  Uiso   1.00
C108   C     0.72271   0.53892   0.42216   0.00000  Uiso   1.00
C109   C     0.78987   0.57054   0.45912   0.00000  Uiso   1.00
C110   C     0.65000   0.54152   0.21263   0.00000  Uiso   1.00
C111   C     0.64168   0.47318   0.16559   0.00000  Uiso   1.00
C112   C     0.67177   0.47474   0.08522   0.00000  Uiso   1.00
C113   C     0.56711   0.62474   0.30044   0.00000  Uiso   1.00
C114   C     0.48909   0.62637   0.32721   0.00000  Uiso   1.00
C115   C     0.44938   0.69799   0.32075   0.00000  Uiso   1.00
H116   H     0.71852   0.72961   0.21777   0.00000  Uiso   1.00
H117   H     0.82686   0.72866   0.33191   0.00000  Uiso   1.00
H118   H     0.74582   0.66293   0.07538   0.00000  Uiso   1.00
H119   H     0.59326   0.81610   0.23698   0.00000  Uiso   1.00
H120   H     0.93063   0.69782   0.47260   0.00000  Uiso   1.00
H121   H     0.75975   0.55924   0.93168   0.00000  Uiso   1.00
H122   H     0.43803   0.88222   0.27244   0.00000  Uiso   1.00
H123   H     0.59261   0.50022   0.32685   0.00000  Uiso   1.00
H124   H     0.69403   0.48668   0.44698   0.00000  Uiso   1.00
H125   H     0.61300   0.42096   0.19045   0.00000  Uiso   1.00
H126   H     0.46043   0.57412   0.35205   0.00000  Uiso   1.00
H127   H     0.82283   0.50142   0.56599   0.00000  Uiso   1.00
H128   H     0.65194   0.36284   0.02507   0.00000  Uiso   1.00
H129   H     0.33023   0.68582   0.36584   0.00000  Uiso   1.00
O130   O     0.94574   0.59483   0.59633   0.00000  Uiso   1.00
O131   O     0.72153   0.41304   0.88667   0.00000  Uiso   1.00
O132   O     0.29945   0.83678   0.33375   0.00000  Uiso   1.00
N133   N     0.89133   0.65346   0.47810   0.00000  Uiso   1.00
N134   N     0.73158   0.52390   0.97238   0.00000  Uiso   1.00
N135   N     0.43080   0.82585   0.29094   0.00000  Uiso   1.00
N136   N     0.83332   0.54778   0.52835   0.00000  Uiso   1.00
N137   N     0.67357   0.41822   0.02263   0.00000  Uiso   1.00
N138   N     0.37279   0.72017   0.34120   0.00000  Uiso   1.00
C139   C     0.31032   0.32294   0.74276   0.00000  Uiso   1.00
C140   C     0.26893   0.35526   0.81991   0.00000  Uiso   1.00
C141   C     0.20181   0.32358   0.85677   0.00000  Uiso   1.00
C142   C     0.17301   0.36183   0.92696   0.00000  Uiso   1.00
C143   C     0.10308   0.40178   0.04184   0.00000  Uiso   1.00
C144   C     0.31295   0.39098   0.68053   0.00000  Uiso   1.00
C145   C     0.28284   0.38932   0.60021   0.00000  Uiso   1.00
C146   C     0.29111   0.45763   0.55306   0.00000  Uiso   1.00
C147   C     0.28957   0.55300   0.45153   0.00000  Uiso   1.00
C148   C     0.39584   0.30776   0.76834   0.00000  Uiso   1.00
C149   C     0.43544   0.23613   0.76183   0.00000  Uiso   1.00
C150   C     0.51350   0.23438   0.78859   0.00000  Uiso   1.00
C151   C     0.64065   0.20054   0.82340   0.00000  Uiso   1.00
C152   C     0.37854   0.44722   0.80186   0.00000  Uiso   1.00
C153   C     0.30599   0.42277   0.85200   0.00000  Uiso   1.00
C154   C     0.27729   0.46108   0.92216   0.00000  Uiso   1.00
C155   C     0.21013   0.42946   0.95912   0.00000  Uiso   1.00
C156   C     0.35000   0.45848   0.71263   0.00000  Uiso   1.00
C157   C     0.35832   0.52682   0.66559   0.00000  Uiso   1.00
C158   C     0.32823   0.52526   0.58522   0.00000  Uiso   1.00
C159   C     0.43289   0.37526   0.80044   0.00000  Uiso   1.00
C160   C     0.51091   0.37363   0.82721   0.00000  Uiso   1.00
C161   C     0.55062   0.30201   0.82075   0.00000  Uiso   1.00
H162   H     0.28148   0.27039   0.71777   0.00000  Uiso   1.00
H163   H     0.17314   0.27134   0.83191   0.00000  Uiso   1.00
H164   H     0.25418   0.33707   0.57538   0.00000  Uiso   1.00
H165   H     0.40674   0.18390   0.73698   0.00000  Uiso   1.00
H166   H     0.06937   0.30218   0.97260   0.00000  Uiso   1.00
H167   H     0.24025   0.44076   0.43168   0.00000  Uiso   1.00
H168   H     0.56197   0.11778   0.77244   0.00000  Uiso   1.00
H169   H     0.40739   0.49978   0.82685   0.00000  Uiso   1.00
H170   H     0.30597   0.51332   0.94698   0.00000  Uiso   1.00
H171   H     0.38700   0.57904   0.69045   0.00000  Uiso   1.00
H172   H     0.53957   0.42588   0.85205   0.00000  Uiso   1.00
H173   H     0.17717   0.49858   0.06599   0.00000  Uiso   1.00
H174   H     0.34806   0.63716   0.52507   0.00000  Uiso   1.00
H175   H     0.66977   0.31418   0.86584   0.00000  Uiso   1.00
O176   O     0.05426   0.40517   0.09633   0.00000  Uiso   1.00
O177   O     0.27847   0.58696   0.38667   0.00000  Uiso   1.00
O178   O     0.70055   0.16322   0.83375   0.00000  Uiso   1.00
N179   N     0.10867   0.34654   0.97810   0.00000  Uiso   1.00
N180   N     0.26842   0.47610   0.47238   0.00000  Uiso   1.00
N181   N     0.56920   0.17415   0.79094   0.00000  Uiso   1.00
N182   N     0.16668   0.45222   0.02835   0.00000  Uiso   1.00
N183   N     0.32643   0.58178   0.52263   0.00000  Uiso   1.00
N184   N     0.62721   0.27983   0.84120   0.00000  Uiso   1.00
C185   C     0.32294   0.31032   0.25724   0.00000  Uiso   1.00
C186   C     0.35526   0.26893   0.18009   0.00000  Uiso   1.00
C187   C     0.32358   0.20181   0.14323   0.00000  Uiso   1.00
C188   C     0.36183   0.17301   0.07304   0.00000  Uiso   1.00
C189   C     0.40178   0.10308   0.95816   0.00000  Uiso   1.00
C190   C     0.39098   0.31295   0.31947   0.00000  Uiso   1.00
C191   C     0.38932   0.28284   0.39979   0.00000  Uiso   1.00
C192   C     0.45763   0.29111   0.44694   0.00000  Uiso   1.00
C193   C     0.55300   0.28957   0.54847   0.00000  Uiso   1.00
C194   C     0.30776   0.39584   0.23166   0.00000  Uiso   1.00
C195   C     0.23613   0.43544   0.23817   0.00000  Uiso   1.00
C196   C     0.23438   0.51350   0.21141   0.00000  Uiso   1.00
C197   C     0.20054   0.64065   0.17660   0.00000  Uiso   1.00
C198   C     0.44722   0.37854   0.19814   0.00000  Uiso   1.00
C199   C     0.42277   0.30599   0.14800   0.00000  Uiso   1.00
C200   C     0.46108   0.27729   0.07784   0.00000  Uiso   1.00
C201   C     0.42946   0.21013   0.04088   0.00000  Uiso   1.00
C202   C     0.45848   0.35000   0.28737   0.00000  Uiso   1.00
C203   C     0.52682   0.35832   0.33441   0.00000  Uiso   1.00
C204   C     0.52526   0.32823   0.41478   0.00000  Uiso   1.00
C205   C     0.37526   0.43289   0.19956   0.00000  Uiso   1.00
C206   C     0.37363   0.51091   0.17279   0.00000  Uiso   1.00
C207   C     0.30201   0.55062   0.17925   0.00000  Uiso   1.00
H208   H     0.27039   0.28148   0.28223   0.00000  Uiso   1.00
H209   H     0.27134   0.17314   0.16809   0.00000  Uiso   1.00
H210   H     0.33707   0.25418   0.42462   0.00000  Uiso   1.00
H211   H     0.18390   0.40674   0.26302   0.00000  Uiso   1.00
H212   H     0.30218   0.06937   0.02740   0.00000  Uiso   1.00
H213   H     0.44076   0.24025   0.56832   0.00000  Uiso   1.00
H214   H     0.11778   0.56197   0.22756   0.00000  Uiso   1.00
H215   H     0.49978   0.40739   0.17315   0.00000  Uiso   1.00
H216   H     0.51332   0.30597   0.05302   0.00000  Uiso   1.00
H217   H     0.57904   0.38700   0.30955   0.00000  Uiso   1.00
H218   H     0.42588   0.53957   0.14795   0.00000  Uiso   1.00
H219   H     0.49858   0.17717   0.93401   0.00000  Uiso   1.00
H220   H     0.63716   0.34806   0.47493   0.00000  Uiso   1.00
H221   H     0.31418   0.66977   0.13416   0.00000  Uiso   1.00
O222   O     0.40517   0.05426   0.90367   0.00000  Uiso   1.00
O223   O     0.58696   0.27847   0.61333   0.00000  Uiso   1.00
O224   O     0.16322   0.70055   0.16625   0.00000  Uiso   1.00
N225   N     0.34654   0.10867   0.02190   0.00000  Uiso   1.00
N226   N     0.47610   0.26842   0.52762   0.00000  Uiso   1.00
N227   N     0.17415   0.56920   0.20906   0.00000  Uiso   1.00
N228   N     0.45222   0.16668   0.97165   0.00000  Uiso   1.00
N229   N     0.58178   0.32643   0.47737   0.00000  Uiso   1.00
N230   N     0.27983   0.62721   0.15880   0.00000  Uiso   1.00
C231   C     0.67706   0.68968   0.75724   0.00000  Uiso   1.00
C232   C     0.64474   0.73107   0.68009   0.00000  Uiso   1.00
C233   C     0.67642   0.79819   0.64323   0.00000  Uiso   1.00
C234   C     0.63817   0.82699   0.57304   0.00000  Uiso   1.00
C235   C     0.59822   0.89692   0.45816   0.00000  Uiso   1.00
C236   C     0.60902   0.68705   0.81947   0.00000  Uiso   1.00
C237   C     0.61068   0.71716   0.89979   0.00000  Uiso   1.00
C238   C     0.54237   0.70889   0.94694   0.00000  Uiso   1.00
C239   C     0.44700   0.71043   0.04847   0.00000  Uiso   1.00
C240   C     0.69224   0.60416   0.73166   0.00000  Uiso   1.00
C241   C     0.76387   0.56456   0.73817   0.00000  Uiso   1.00
C242   C     0.76562   0.48650   0.71141   0.00000  Uiso   1.00
C243   C     0.79946   0.35935   0.67660   0.00000  Uiso   1.00
C244   C     0.55278   0.62146   0.69814   0.00000  Uiso   1.00
C245   C     0.57723   0.69401   0.64800   0.00000  Uiso   1.00
C246   C     0.53892   0.72271   0.57784   0.00000  Uiso   1.00
C247   C     0.57054   0.78987   0.54088   0.00000  Uiso   1.00
C248   C     0.54152   0.65000   0.78737   0.00000  Uiso   1.00
C249   C     0.47318   0.64168   0.83441   0.00000  Uiso   1.00
C250   C     0.47474   0.67177   0.91478   0.00000  Uiso   1.00
C251   C     0.62474   0.56711   0.69956   0.00000  Uiso   1.00
C252   C     0.62637   0.48909   0.67279   0.00000  Uiso   1.00
C253   C     0.69799   0.44938   0.67925   0.00000  Uiso   1.00
H254   H     0.72961   0.71852   0.78223   0.00000  Uiso   1.00
H255   H     0.72866   0.82686   0.66809   0.00000  Uiso   1.00
H256   H     0.66293   0.74582   0.92462   0.00000  Uiso   1.00
H257   H     0.81610   0.59326   0.76302   0.00000  Uiso   1.00
H258   H     0.69782   0.93063   0.52740   0.00000  Uiso   1.00
H259   H     0.55924   0.75975   0.06832   0.00000  Uiso   1.00
H260   H     0.88222   0.43803   0.72756   0.00000  Uiso   1.00
H261   H     0.50022   0.59261   0.67315   0.00000  Uiso   1.00
H262   H     0.48668   0.69403   0.55302   0.00000  Uiso   1.00
H263   H     0.42096   0.61300   0.80955   0.00000  Uiso   1.00
H264   H     0.57412   0.46043   0.64795   0.00000  Uiso   1.00
H265   H     0.50142   0.82283   0.43401   0.00000  Uiso   1.00
H266   H     0.36284   0.65194   0.97493   0.00000  Uiso   1.00
H267   H     0.68582   0.33023   0.63416   0.00000  Uiso   1.00
O268   O     0.59483   0.94574   0.40367   0.00000  Uiso   1.00
O269   O     0.41304   0.72153   0.11333   0.00000  Uiso   1.00
O270   O     0.83678   0.29945   0.66625   0.00000  Uiso   1.00
N271   N     0.65346   0.89133   0.52190   0.00000  Uiso   1.00
N272   N     0.52390   0.73158   0.02762   0.00000  Uiso   1.00
N273   N     0.82585   0.43080   0.70906   0.00000  Uiso   1.00
N274   N     0.54778   0.83332   0.47165   0.00000  Uiso   1.00
N275   N     0.41822   0.67357   0.97737   0.00000  Uiso   1.00
N276   N     0.72017   0.37279   0.65880   0.00000  Uiso   1.00
C277   C     0.81032   0.17706   0.50724   0.00000  Uiso   1.00
C278   C     0.76893   0.14474   0.43009   0.00000  Uiso   1.00
C279   C     0.70181   0.17642   0.39323   0.00000  Uiso   1.00
C280   C     0.67301   0.13817   0.32304   0.00000  Uiso   1.00
C281   C     0.60308   0.09822   0.20816   0.00000  Uiso   1.00
C282   C     0.81295   0.10902   0.56947   0.00000  Uiso   1.00
C283   C     0.78284   0.11068   0.64979   0.00000  Uiso   1.00
C284   C     0.79111   0.04237   0.69694   0.00000  Uiso   1.00
C285   C     0.78957   0.94700   0.79847   0.00000  Uiso   1.00
C286   C     0.89584   0.19224   0.48166   0.00000  Uiso   1.00
C287   C     0.93544   0.26387   0.48817   0.00000  Uiso   1.00
C288   C     0.01350   0.26562   0.46141   0.00000  Uiso   1.00
C289   C     0.14065   0.29946   0.42660   0.00000  Uiso   1.00
C290   C     0.87854   0.05278   0.44814   0.00000  Uiso   1.00
C291   C     0.80599   0.07723   0.39800   0.00000  Uiso   1.00
C292   C     0.77729   0.03892   0.32784   0.00000  Uiso   1.00
C293   C     0.71013   0.07054   0.29088   0.00000  Uiso   1.00
C294   C     0.85000   0.04152   0.53737   0.00000  Uiso   1.00
C295   C     0.85832   0.97318   0.58441   0.00000  Uiso   1.00
C296   C     0.82823   0.97474   0.66478   0.00000  Uiso   1.00
C297   C     0.93289   0.12474   0.44956   0.00000  Uiso   1.00
C298   C     0.01091   0.12637   0.42279   0.00000  Uiso   1.00
C299   C     0.05062   0.19799   0.42925   0.00000  Uiso   1.00
H300   H     0.78148   0.22961   0.53223   0.00000  Uiso   1.00
H301   H     0.67314   0.22866   0.41809   0.00000  Uiso   1.00
H302   H     0.75418   0.16293   0.67462   0.00000  Uiso   1.00
H303   H     0.90674   0.31610   0.51302   0.00000  Uiso   1.00
H304   H     0.56937   0.19782   0.27740   0.00000  Uiso   1.00
H305   H     0.74025   0.05924   0.81832   0.00000  Uiso   1.00
H306   H     0.06197   0.38222   0.47756   0.00000  Uiso   1.00
H307   H     0.90739   0.00022   0.42315   0.00000  Uiso   1.00
H308   H     0.80597   0.98668   0.30302   0.00000  Uiso   1.00
H309   H     0.88700   0.92096   0.55955   0.00000  Uiso   1.00
H310   H     0.03957   0.07412   0.39795   0.00000  Uiso   1.00
H311   H     0.67717   0.00142   0.18401   0.00000  Uiso   1.00
H312   H     0.84806   0.86284   0.72493   0.00000  Uiso   1.00
H313   H     0.16977   0.18582   0.38416   0.00000  Uiso   1.00
O314   O     0.55426   0.09483   0.15367   0.00000  Uiso   1.00
O315   O     0.77847   0.91304   0.86333   0.00000  Uiso   1.00
O316   O     0.20055   0.33678   0.41625   0.00000  Uiso   1.00
N317   N     0.60867   0.15346   0.27190   0.00000  Uiso   1.00
N318   N     0.76842   0.02390   0.77762   0.00000  Uiso   1.00
N319   N     0.06920   0.32585   0.45906   0.00000  Uiso   1.00
N320   N     0.66668   0.04778   0.22165   0.00000  Uiso   1.00
N321   N     0.82643   0.91822   0.72737   0.00000  Uiso   1.00
N322   N     0.12721   0.22017   0.40880   0.00000  Uiso   1.00
C323   C     0.18968   0.82294   0.00724   0.00000  Uiso   1.00
C324   C     0.23107   0.85526   0.93009   0.00000  Uiso   1.00
C325   C     0.29819   0.82358   0.89323   0.00000  Uiso   1.00
C326   C     0.32699   0.86183   0.82304   0.00000  Uiso   1.00
C327   C     0.39692   0.90178   0.70816   0.00000  Uiso   1.00
C328   C     0.18705   0.89098   0.06947   0.00000  Uiso   1.00
C329   C     0.21716   0.88932   0.14979   0.00000  Uiso   1.00
C330   C     0.20889   0.95763   0.19694   0.00000  Uiso   1.00
C331   C     0.21043   0.05300   0.29847   0.00000  Uiso   1.00
C332   C     0.10416   0.80776   0.98166   0.00000  Uiso   1.00
C333   C     0.06456   0.73613   0.98817   0.00000  Uiso   1.00
C334   C     0.98650   0.73438   0.96141   0.00000  Uiso   1.00
C335   C     0.85935   0.70054   0.92660   0.00000  Uiso   1.00
C336   C     0.12146   0.94722   0.94814   0.00000  Uiso   1.00
C337   C     0.19401   0.92277   0.89800   0.00000  Uiso   1.00
C338   C     0.22271   0.96108   0.82784   0.00000  Uiso   1.00
C339   C     0.28987   0.92946   0.79088   0.00000  Uiso   1.00
C340   C     0.15000   0.95848   0.03737   0.00000  Uiso   1.00
C341   C     0.14168   0.02682   0.08441   0.00000  Uiso   1.00
C342   C     0.17177   0.02526   0.16478   0.00000  Uiso   1.00
C343   C     0.06711   0.87526   0.94956   0.00000  Uiso   1.00
C344   C     0.98909   0.87363   0.92279   0.00000  Uiso   1.00
C345   C     0.94938   0.80201   0.92925   0.00000  Uiso   1.00
H346   H     0.21852   0.77039   0.03223   0.00000  Uiso   1.00
H347   H     0.32686   0.77134   0.91809   0.00000  Uiso   1.00
H348   H     0.24582   0.83707   0.17462   0.00000  Uiso   1.00
H349   H     0.09326   0.68390   0.01302   0.00000  Uiso   1.00
H350   H     0.43063   0.80218   0.77740   0.00000  Uiso   1.00
H351   H     0.25975   0.94076   0.31832   0.00000  Uiso   1.00
H352   H     0.93803   0.61778   0.97756   0.00000  Uiso   1.00
H353   H     0.09261   0.99978   0.92315   0.00000  Uiso   1.00
H354   H     0.19403   0.01332   0.80302   0.00000  Uiso   1.00
H355   H     0.11300   0.07904   0.05955   0.00000  Uiso   1.00
H356   H     0.96043   0.92588   0.89795   0.00000  Uiso   1.00
H357   H     0.32283   0.99858   0.68401   0.00000  Uiso   1.00
H358   H     0.15194   0.13716   0.22493   0.00000  Uiso   1.00
H359   H     0.83023   0.81418   0.88416   0.00000  Uiso   1.00
O360   O     0.44574   0.90517   0.65367   0.00000  Uiso   1.00
O361   O     0.22153   0.08696   0.36333   0.00000  Uiso   1.00
O362   O     0.79945   0.66322   0.91625   0.00000  Uiso   1.00
N363   N     0.39133   0.84654   0.77190   0.00000  Uiso   1.00
N364   N     0.23158   0.97610   0.27762   0.00000  Uiso   1.00
N365   N     0.93080   0.67415   0.95906   0.00000  Uiso   1.00
N366   N     0.33332   0.95222   0.72165   0.00000  Uiso   1.00
N367   N     0.17357   0.08178   0.22737   0.00000  Uiso   1.00
N368   N     0.87279   0.77983   0.90880   0.00000  Uiso   1.00
