data_job_06130
_audit_creation_date              2018-12-19
_audit_creation_method            'Materials Studio'
_symmetry_space_group_name_H-M    'P1'
_symmetry_Int_Tables_number       1
_symmetry_cell_setting            triclinic
loop_
_symmetry_equiv_pos_as_xyz
  x,y,z
_cell_length_a                    15.5093
_cell_length_b                    15.1721
_cell_length_c                    14.3288
_cell_angle_alpha                 92.8715
_cell_angle_beta                  93.1406
_cell_angle_gamma                 91.9439
loop_
_atom_site_label
_atom_site_type_symbol
_atom_site_fract_x
_atom_site_fract_y
_atom_site_fract_z
_atom_site_U_iso_or_equiv
_atom_site_adp_type
_atom_site_occupancy
C1     C     0.78900   0.14799   0.52349   0.00000  Uiso   1.00
C2     C     0.80686   0.20204   0.61555   0.00000  Uiso   1.00
C3     C     0.79471   0.17247   0.70415   0.00000  Uiso   1.00
C4     C     0.81482   0.23204   0.77955   0.00000  Uiso   1.00
C5     C     0.83778   0.30289   0.92445   0.00000  Uiso   1.00
C6     C     0.72593   0.20040   0.46484   0.00000  Uiso   1.00
C7     C     0.64573   0.16946   0.42671   0.00000  Uiso   1.00
C8     C     0.59772   0.22765   0.37523   0.00000  Uiso   1.00
C9     C     0.49504   0.29595   0.28609   0.00000  Uiso   1.00
C10    C     0.87350   0.15005   0.47388   0.00000  Uiso   1.00
C11    C     0.91738   0.07677   0.44333   0.00000  Uiso   1.00
C12    C     0.99361   0.09258   0.39944   0.00000  Uiso   1.00
C13    C     0.12007   0.08269   0.32434   0.00000  Uiso   1.00
C14    C     0.84634   0.30635   0.49985   0.00000  Uiso   1.00
C15    C     0.83800   0.28805   0.60271   0.00000  Uiso   1.00
C16    C     0.85814   0.34768   0.67800   0.00000  Uiso   1.00
C17    C     0.84602   0.31821   0.76670   0.00000  Uiso   1.00
C18    C     0.75706   0.28642   0.45200   0.00000  Uiso   1.00
C19    C     0.70916   0.34467   0.40056   0.00000  Uiso   1.00
C20    C     0.62891   0.31383   0.36237   0.00000  Uiso   1.00
C21    C     0.90465   0.23607   0.46104   0.00000  Uiso   1.00
C22    C     0.98081   0.25198   0.41719   0.00000  Uiso   1.00
C23    C     0.02480   0.17875   0.38658   0.00000  Uiso   1.00
H24    H     0.76476   0.08102   0.53348   0.00000  Uiso   1.00
H25    H     0.77060   0.10590   0.71405   0.00000  Uiso   1.00
H26    H     0.62165   0.10289   0.43665   0.00000  Uiso   1.00
H27    H     0.89326   0.01022   0.45327   0.00000  Uiso   1.00
H28    H     0.79079   0.17143   0.90859   0.00000  Uiso   1.00
H29    H     0.47673   0.16507   0.32364   0.00000  Uiso   1.00
H30    H     0.04948   0.96965   0.35869   0.00000  Uiso   1.00
H31    H     0.87058   0.37332   0.48986   0.00000  Uiso   1.00
H32    H     0.88224   0.41424   0.66804   0.00000  Uiso   1.00
H33    H     0.73328   0.41122   0.39064   0.00000  Uiso   1.00
H34    H     0.00489   0.31855   0.40726   0.00000  Uiso   1.00
H35    H     0.88139   0.42169   0.87125   0.00000  Uiso   1.00
H36    H     0.56733   0.41532   0.28629   0.00000  Uiso   1.00
H37    H     0.14008   0.21991   0.32135   0.00000  Uiso   1.00
O38    O     0.84182   0.31821   0.00792   0.00000  Uiso   1.00
O39    O     0.42979   0.30986   0.24048   0.00000  Uiso   1.00
O40    O     0.18122   0.05348   0.28647   0.00000  Uiso   1.00
N41    N     0.81053   0.22471   0.87535   0.00000  Uiso   1.00
N42    N     0.51689   0.21876   0.32847   0.00000  Uiso   1.00
N43    N     0.05235   0.03607   0.36122   0.00000  Uiso   1.00
N44    N     0.85928   0.35937   0.85526   0.00000  Uiso   1.00
N45    N     0.56565   0.35342   0.30838   0.00000  Uiso   1.00
N46    N     0.10111   0.17073   0.34113   0.00000  Uiso   1.00
C47    C     0.51303   0.78838   0.14779   0.00000  Uiso   1.00
C48    C     0.59743   0.80661   0.20634   0.00000  Uiso   1.00
C49    C     0.67974   0.79380   0.17599   0.00000  Uiso   1.00
C50    C     0.74867   0.81441   0.24021   0.00000  Uiso   1.00
C51    C     0.88169   0.83776   0.31725   0.00000  Uiso   1.00
C52    C     0.45949   0.72432   0.20185   0.00000  Uiso   1.00
C53    C     0.42582   0.64233   0.16773   0.00000  Uiso   1.00
C54    C     0.37861   0.59367   0.22816   0.00000  Uiso   1.00
C55    C     0.29743   0.48930   0.29821   0.00000  Uiso   1.00
C56    C     0.46574   0.87489   0.15032   0.00000  Uiso   1.00
C57    C     0.43731   0.91949   0.07286   0.00000  Uiso   1.00
C58    C     0.39536   0.99759   0.08991   0.00000  Uiso   1.00
C59    C     0.32389   0.12700   0.07994   0.00000  Uiso   1.00
C60    C     0.48905   0.84775   0.31579   0.00000  Uiso   1.00
C61    C     0.58440   0.83885   0.29759   0.00000  Uiso   1.00
C62    C     0.65322   0.85948   0.36186   0.00000  Uiso   1.00
C63    C     0.73562   0.84671   0.33162   0.00000  Uiso   1.00
C64    C     0.44646   0.75656   0.29310   0.00000  Uiso   1.00
C65    C     0.39929   0.70802   0.35359   0.00000  Uiso   1.00
C66    C     0.36556   0.62597   0.31957   0.00000  Uiso   1.00
C67    C     0.45272   0.90714   0.24157   0.00000  Uiso   1.00
C68    C     0.41079   0.98518   0.25873   0.00000  Uiso   1.00
C69    C     0.38231   0.02989   0.18132   0.00000  Uiso   1.00
H70    H     0.52317   0.76327   0.07676   0.00000  Uiso   1.00
H71    H     0.68980   0.76884   0.10537   0.00000  Uiso   1.00
H72    H     0.43590   0.61740   0.09711   0.00000  Uiso   1.00
H73    H     0.44740   0.89452   0.00226   0.00000  Uiso   1.00
H74    H     0.86879   0.78920   0.17736   0.00000  Uiso   1.00
H75    H     0.33341   0.46990   0.15991   0.00000  Uiso   1.00
H76    H     0.35766   0.05425   0.95991   0.00000  Uiso   1.00
H77    H     0.47891   0.87285   0.38683   0.00000  Uiso   1.00
H78    H     0.64312   0.88444   0.43247   0.00000  Uiso   1.00
H79    H     0.38922   0.73299   0.42420   0.00000  Uiso   1.00
H80    H     0.40072   0.01011   0.32935   0.00000  Uiso   1.00
H81    H     0.83091   0.88302   0.44284   0.00000  Uiso   1.00
H82    H     0.29552   0.56371   0.42539   0.00000  Uiso   1.00
H83    H     0.31978   0.14807   0.22539   0.00000  Uiso   1.00
O84    O     0.95867   0.84172   0.33454   0.00000  Uiso   1.00
O85    O     0.25625   0.42282   0.31164   0.00000  Uiso   1.00
O86    O     0.28808   0.18948   0.04924   0.00000  Uiso   1.00
N87    N     0.83734   0.80971   0.23357   0.00000  Uiso   1.00
N88    N     0.33680   0.51117   0.21726   0.00000  Uiso   1.00
N89    N     0.35946   0.05748   0.03028   0.00000  Uiso   1.00
N90    N     0.81696   0.86019   0.37643   0.00000  Uiso   1.00
N91    N     0.31642   0.56166   0.36012   0.00000  Uiso   1.00
N92    N     0.33907   0.10797   0.17313   0.00000  Uiso   1.00
C93    C     0.14813   0.51600   0.78896   0.00000  Uiso   1.00
C94    C     0.20070   0.60216   0.80992   0.00000  Uiso   1.00
C95    C     0.17137   0.68632   0.79692   0.00000  Uiso   1.00
C96    C     0.22941   0.75666   0.82029   0.00000  Uiso   1.00
C97    C     0.29822   0.89249   0.84746   0.00000  Uiso   1.00
C98    C     0.19947   0.46083   0.72120   0.00000  Uiso   1.00
C99    C     0.16910   0.42616   0.63361   0.00000  Uiso   1.00
C100   C     0.22611   0.37752   0.58231   0.00000  Uiso   1.00
C101   C     0.29299   0.29389   0.47177   0.00000  Uiso   1.00
C102   C     0.15062   0.46805   0.88003   0.00000  Uiso   1.00
C103   C     0.07917   0.43942   0.92598   0.00000  Uiso   1.00
C104   C     0.09505   0.39684   0.00840   0.00000  Uiso   1.00
C105   C     0.08608   0.32441   0.14446   0.00000  Uiso   1.00
C106   C     0.30338   0.49127   0.85360   0.00000  Uiso   1.00
C107   C     0.28502   0.58873   0.84503   0.00000  Uiso   1.00
C108   C     0.34313   0.65896   0.86843   0.00000  Uiso   1.00
C109   C     0.31389   0.74321   0.85547   0.00000  Uiso   1.00
C110   C     0.28379   0.44740   0.75631   0.00000  Uiso   1.00
C111   C     0.34086   0.39880   0.70513   0.00000  Uiso   1.00
C112   C     0.31058   0.36407   0.61749   0.00000  Uiso   1.00
C113   C     0.23494   0.45462   0.91515   0.00000  Uiso   1.00
C114   C     0.25093   0.41207   0.99750   0.00000  Uiso   1.00
C115   C     0.17952   0.38338   0.04357   0.00000  Uiso   1.00
H116   H     0.08248   0.52645   0.76162   0.00000  Uiso   1.00
H117   H     0.10610   0.69668   0.76973   0.00000  Uiso   1.00
H118   H     0.10384   0.43655   0.60647   0.00000  Uiso   1.00
H119   H     0.01392   0.44982   0.89879   0.00000  Uiso   1.00
H120   H     0.16949   0.87949   0.79419   0.00000  Uiso   1.00
H121   H     0.16470   0.33097   0.44994   0.00000  Uiso   1.00
H122   H     0.97510   0.35894   0.06636   0.00000  Uiso   1.00
H123   H     0.36903   0.48082   0.88093   0.00000  Uiso   1.00
H124   H     0.40838   0.64855   0.89560   0.00000  Uiso   1.00
H125   H     0.40611   0.38842   0.73233   0.00000  Uiso   1.00
H126   H     0.31620   0.40169   0.02465   0.00000  Uiso   1.00
H127   H     0.41483   0.84043   0.89634   0.00000  Uiso   1.00
H128   H     0.41003   0.29190   0.55209   0.00000  Uiso   1.00
H129   H     0.22043   0.31988   0.16851   0.00000  Uiso   1.00
O130   O     0.31288   0.97112   0.85273   0.00000  Uiso   1.00
O131   O     0.30658   0.25148   0.40110   0.00000  Uiso   1.00
O132   O     0.05784   0.28818   0.20982   0.00000  Uiso   1.00
N133   N     0.22183   0.84728   0.81623   0.00000  Uiso   1.00
N134   N     0.21735   0.33446   0.49437   0.00000  Uiso   1.00
N135   N     0.04009   0.36059   0.07066   0.00000  Uiso   1.00
N136   N     0.35384   0.82626   0.87120   0.00000  Uiso   1.00
N137   N     0.34936   0.31344   0.54934   0.00000  Uiso   1.00
N138   N     0.17210   0.33957   0.12563   0.00000  Uiso   1.00
C139   C     0.21100   0.85201   0.47651   0.00000  Uiso   1.00
C140   C     0.19314   0.79796   0.38445   0.00000  Uiso   1.00
C141   C     0.20529   0.82753   0.29585   0.00000  Uiso   1.00
C142   C     0.18518   0.76796   0.22045   0.00000  Uiso   1.00
C143   C     0.16222   0.69711   0.07555   0.00000  Uiso   1.00
C144   C     0.27407   0.79960   0.53516   0.00000  Uiso   1.00
C145   C     0.35427   0.83054   0.57329   0.00000  Uiso   1.00
C146   C     0.40228   0.77235   0.62477   0.00000  Uiso   1.00
C147   C     0.50496   0.70405   0.71391   0.00000  Uiso   1.00
C148   C     0.12650   0.84995   0.52612   0.00000  Uiso   1.00
C149   C     0.08262   0.92323   0.55667   0.00000  Uiso   1.00
C150   C     0.00639   0.90742   0.60056   0.00000  Uiso   1.00
C151   C     0.87993   0.91731   0.67566   0.00000  Uiso   1.00
C152   C     0.15366   0.69365   0.50015   0.00000  Uiso   1.00
C153   C     0.16200   0.71195   0.39729   0.00000  Uiso   1.00
C154   C     0.14186   0.65232   0.32200   0.00000  Uiso   1.00
C155   C     0.15398   0.68179   0.23330   0.00000  Uiso   1.00
C156   C     0.24294   0.71358   0.54800   0.00000  Uiso   1.00
C157   C     0.29084   0.65533   0.59944   0.00000  Uiso   1.00
C158   C     0.37109   0.68617   0.63763   0.00000  Uiso   1.00
C159   C     0.09535   0.76393   0.53896   0.00000  Uiso   1.00
C160   C     0.01919   0.74802   0.58281   0.00000  Uiso   1.00
C161   C     0.97520   0.82125   0.61342   0.00000  Uiso   1.00
H162   H     0.23524   0.91898   0.46652   0.00000  Uiso   1.00
H163   H     0.22940   0.89410   0.28595   0.00000  Uiso   1.00
H164   H     0.37835   0.89711   0.56335   0.00000  Uiso   1.00
H165   H     0.10674   0.98978   0.54673   0.00000  Uiso   1.00
H166   H     0.20921   0.82857   0.09141   0.00000  Uiso   1.00
H167   H     0.52327   0.83493   0.67636   0.00000  Uiso   1.00
H168   H     0.95052   0.03035   0.64131   0.00000  Uiso   1.00
H169   H     0.12942   0.62668   0.51014   0.00000  Uiso   1.00
H170   H     0.11776   0.58576   0.33196   0.00000  Uiso   1.00
H171   H     0.26672   0.58878   0.60936   0.00000  Uiso   1.00
H172   H     0.99511   0.68144   0.59274   0.00000  Uiso   1.00
H173   H     0.11861   0.57831   0.12875   0.00000  Uiso   1.00
H174   H     0.43267   0.58468   0.71371   0.00000  Uiso   1.00
H175   H     0.85992   0.78009   0.67865   0.00000  Uiso   1.00
O176   O     0.15818   0.68179   0.99208   0.00000  Uiso   1.00
O177   O     0.57021   0.69014   0.75952   0.00000  Uiso   1.00
O178   O     0.81878   0.94652   0.71353   0.00000  Uiso   1.00
N179   N     0.18947   0.77529   0.12465   0.00000  Uiso   1.00
N180   N     0.48311   0.78124   0.67153   0.00000  Uiso   1.00
N181   N     0.94765   0.96393   0.63878   0.00000  Uiso   1.00
N182   N     0.14072   0.64063   0.14474   0.00000  Uiso   1.00
N183   N     0.43435   0.64658   0.69162   0.00000  Uiso   1.00
N184   N     0.89889   0.82927   0.65887   0.00000  Uiso   1.00
C185   C     0.48697   0.21162   0.85221   0.00000  Uiso   1.00
C186   C     0.40257   0.19339   0.79366   0.00000  Uiso   1.00
C187   C     0.32026   0.20620   0.82400   0.00000  Uiso   1.00
C188   C     0.25133   0.18559   0.75979   0.00000  Uiso   1.00
C189   C     0.11831   0.16224   0.68275   0.00000  Uiso   1.00
C190   C     0.54051   0.27568   0.79815   0.00000  Uiso   1.00
C191   C     0.57418   0.35767   0.83227   0.00000  Uiso   1.00
C192   C     0.62139   0.40633   0.77184   0.00000  Uiso   1.00
C193   C     0.70257   0.51070   0.70179   0.00000  Uiso   1.00
C194   C     0.53426   0.12511   0.84968   0.00000  Uiso   1.00
C195   C     0.56269   0.08051   0.92714   0.00000  Uiso   1.00
C196   C     0.60465   0.00241   0.91009   0.00000  Uiso   1.00
C197   C     0.67611   0.87300   0.92006   0.00000  Uiso   1.00
C198   C     0.51095   0.15225   0.68421   0.00000  Uiso   1.00
C199   C     0.41560   0.16115   0.70241   0.00000  Uiso   1.00
C200   C     0.34678   0.14052   0.63814   0.00000  Uiso   1.00
C201   C     0.26438   0.15329   0.66838   0.00000  Uiso   1.00
C202   C     0.55354   0.24344   0.70690   0.00000  Uiso   1.00
C203   C     0.60071   0.29198   0.64641   0.00000  Uiso   1.00
C204   C     0.63444   0.37403   0.68043   0.00000  Uiso   1.00
C205   C     0.54728   0.09286   0.75843   0.00000  Uiso   1.00
C206   C     0.58921   0.01482   0.74127   0.00000  Uiso   1.00
C207   C     0.61769   0.97011   0.81868   0.00000  Uiso   1.00
H208   H     0.47683   0.23673   0.92324   0.00000  Uiso   1.00
H209   H     0.31020   0.23116   0.89462   0.00000  Uiso   1.00
H210   H     0.56410   0.38260   0.90289   0.00000  Uiso   1.00
H211   H     0.55260   0.10548   0.99774   0.00000  Uiso   1.00
H212   H     0.13121   0.21080   0.82264   0.00000  Uiso   1.00
H213   H     0.66659   0.53010   0.84009   0.00000  Uiso   1.00
H214   H     0.64234   0.94575   0.04009   0.00000  Uiso   1.00
H215   H     0.52109   0.12715   0.61317   0.00000  Uiso   1.00
H216   H     0.35688   0.11556   0.56753   0.00000  Uiso   1.00
H217   H     0.61078   0.26701   0.57580   0.00000  Uiso   1.00
H218   H     0.59928   0.98989   0.67065   0.00000  Uiso   1.00
H219   H     0.16909   0.11698   0.55716   0.00000  Uiso   1.00
H220   H     0.70448   0.43629   0.57461   0.00000  Uiso   1.00
H221   H     0.68022   0.85193   0.77461   0.00000  Uiso   1.00
O222   O     0.04133   0.15828   0.66546   0.00000  Uiso   1.00
O223   O     0.74375   0.57718   0.68836   0.00000  Uiso   1.00
O224   O     0.71192   0.81052   0.95076   0.00000  Uiso   1.00
N225   N     0.16266   0.19029   0.76643   0.00000  Uiso   1.00
N226   N     0.66320   0.48883   0.78274   0.00000  Uiso   1.00
N227   N     0.64054   0.94252   0.96972   0.00000  Uiso   1.00
N228   N     0.18305   0.13981   0.62357   0.00000  Uiso   1.00
N229   N     0.68358   0.43834   0.63988   0.00000  Uiso   1.00
N230   N     0.66093   0.89203   0.82687   0.00000  Uiso   1.00
C231   C     0.85187   0.48400   0.21104   0.00000  Uiso   1.00
C232   C     0.79930   0.39784   0.19008   0.00000  Uiso   1.00
C233   C     0.82863   0.31368   0.20308   0.00000  Uiso   1.00
C234   C     0.77059   0.24334   0.17971   0.00000  Uiso   1.00
C235   C     0.70178   0.10751   0.15254   0.00000  Uiso   1.00
C236   C     0.80053   0.53916   0.27880   0.00000  Uiso   1.00
C237   C     0.83090   0.57384   0.36639   0.00000  Uiso   1.00
C238   C     0.77389   0.62248   0.41769   0.00000  Uiso   1.00
C239   C     0.70701   0.70611   0.52823   0.00000  Uiso   1.00
C240   C     0.84938   0.53195   0.11997   0.00000  Uiso   1.00
C241   C     0.92083   0.56058   0.07402   0.00000  Uiso   1.00
C242   C     0.90495   0.60316   0.99160   0.00000  Uiso   1.00
C243   C     0.91392   0.67559   0.85554   0.00000  Uiso   1.00
C244   C     0.69662   0.50873   0.14640   0.00000  Uiso   1.00
C245   C     0.71498   0.41127   0.15497   0.00000  Uiso   1.00
C246   C     0.65687   0.34104   0.13157   0.00000  Uiso   1.00
C247   C     0.68611   0.25679   0.14453   0.00000  Uiso   1.00
C248   C     0.71621   0.55259   0.24369   0.00000  Uiso   1.00
C249   C     0.65914   0.60120   0.29487   0.00000  Uiso   1.00
C250   C     0.68942   0.63593   0.38251   0.00000  Uiso   1.00
C251   C     0.76506   0.54538   0.08485   0.00000  Uiso   1.00
C252   C     0.74907   0.58793   0.00250   0.00000  Uiso   1.00
C253   C     0.82048   0.61662   0.95643   0.00000  Uiso   1.00
H254   H     0.91752   0.47355   0.23838   0.00000  Uiso   1.00
H255   H     0.89390   0.30332   0.23027   0.00000  Uiso   1.00
H256   H     0.89616   0.56345   0.39353   0.00000  Uiso   1.00
H257   H     0.98608   0.55018   0.10121   0.00000  Uiso   1.00
H258   H     0.83051   0.12051   0.20581   0.00000  Uiso   1.00
H259   H     0.83530   0.66902   0.55006   0.00000  Uiso   1.00
H260   H     0.02490   0.64106   0.93364   0.00000  Uiso   1.00
H261   H     0.63097   0.51918   0.11907   0.00000  Uiso   1.00
H262   H     0.59162   0.35145   0.10440   0.00000  Uiso   1.00
H263   H     0.59389   0.61158   0.26767   0.00000  Uiso   1.00
H264   H     0.68380   0.59831   0.97535   0.00000  Uiso   1.00
H265   H     0.58517   0.15957   0.10366   0.00000  Uiso   1.00
H266   H     0.58997   0.70810   0.44791   0.00000  Uiso   1.00
H267   H     0.77957   0.68012   0.83149   0.00000  Uiso   1.00
O268   O     0.68712   0.02888   0.14727   0.00000  Uiso   1.00
O269   O     0.69342   0.74852   0.59890   0.00000  Uiso   1.00
O270   O     0.94216   0.71182   0.79018   0.00000  Uiso   1.00
N271   N     0.77817   0.15272   0.18377   0.00000  Uiso   1.00
N272   N     0.78265   0.66554   0.50563   0.00000  Uiso   1.00
N273   N     0.95991   0.63941   0.92934   0.00000  Uiso   1.00
N274   N     0.64616   0.17374   0.12880   0.00000  Uiso   1.00
N275   N     0.65064   0.68656   0.45066   0.00000  Uiso   1.00
N276   N     0.82790   0.66043   0.87437   0.00000  Uiso   1.00
