data_job_05617
_audit_creation_date              2018-12-19
_audit_creation_method            'Materials Studio'
_symmetry_space_group_name_H-M    'P1'
_symmetry_Int_Tables_number       1
_symmetry_cell_setting            triclinic
loop_
_symmetry_equiv_pos_as_xyz
  x,y,z
_cell_length_a                    21.9297
_cell_length_b                    17.5320
_cell_length_c                    13.7069
_cell_angle_alpha                 90.0000
_cell_angle_beta                  90.0000
_cell_angle_gamma                 90.0000
loop_
_atom_site_label
_atom_site_type_symbol
_atom_site_fract_x
_atom_site_fract_y
_atom_site_fract_z
_atom_site_U_iso_or_equiv
_atom_site_adp_type
_atom_site_occupancy
C1     C     0.82180   0.63689   0.10729   0.00000  Uiso   1.00
C2     C     0.75460   0.64702   0.13275   0.00000  Uiso   1.00
C3     C     0.70594   0.63588   0.06960   0.00000  Uiso   1.00
C4     C     0.64789   0.64810   0.10688   0.00000  Uiso   1.00
C5     C     0.54490   0.66043   0.13164   0.00000  Uiso   1.00
C6     C     0.85249   0.71271   0.13102   0.00000  Uiso   1.00
C7     C     0.88615   0.75679   0.06642   0.00000  Uiso   1.00
C8     C     0.91051   0.82431   0.10225   0.00000  Uiso   1.00
C9     C     0.95954   0.93859   0.12435   0.00000  Uiso   1.00
C10    C     0.84697   0.57940   0.18042   0.00000  Uiso   1.00
C11    C     0.87600   0.51141   0.15737   0.00000  Uiso   1.00
C12    C     0.89573   0.46670   0.23479   0.00000  Uiso   1.00
C13    C     0.93620   0.37402   0.33360   0.00000  Uiso   1.00
C14    C     0.80524   0.67840   0.28578   0.00000  Uiso   1.00
C15    C     0.74560   0.66957   0.22970   0.00000  Uiso   1.00
C16    C     0.68761   0.68181   0.26708   0.00000  Uiso   1.00
C17    C     0.63887   0.67069   0.20400   0.00000  Uiso   1.00
C18    C     0.84349   0.73525   0.22796   0.00000  Uiso   1.00
C19    C     0.86781   0.80272   0.26390   0.00000  Uiso   1.00
C20    C     0.90149   0.84690   0.19937   0.00000  Uiso   1.00
C21    C     0.83797   0.60195   0.27737   0.00000  Uiso   1.00
C22    C     0.85767   0.55734   0.35485   0.00000  Uiso   1.00
C23    C     0.88672   0.48929   0.33192   0.00000  Uiso   1.00
H24    H     0.82881   0.61934   0.03181   0.00000  Uiso   1.00
H25    H     0.71292   0.61844   0.99457   0.00000  Uiso   1.00
H26    H     0.89311   0.73932   0.99140   0.00000  Uiso   1.00
H27    H     0.88296   0.49398   0.08233   0.00000  Uiso   1.00
H28    H     0.58047   0.62741   0.99603   0.00000  Uiso   1.00
H29    H     0.96041   0.88229   0.98935   0.00000  Uiso   1.00
H30    H     0.93902   0.36494   0.18110   0.00000  Uiso   1.00
H31    H     0.79823   0.69596   0.36127   0.00000  Uiso   1.00
H32    H     0.68066   0.69926   0.34211   0.00000  Uiso   1.00
H33    H     0.86084   0.82015   0.33893   0.00000  Uiso   1.00
H34    H     0.85069   0.57481   0.42987   0.00000  Uiso   1.00
H35    H     0.55428   0.69301   0.27811   0.00000  Uiso   1.00
H36    H     0.93423   0.94789   0.27142   0.00000  Uiso   1.00
H37    H     0.91283   0.43054   0.46317   0.00000  Uiso   1.00
O38    O     0.49059   0.66102   0.11852   0.00000  Uiso   1.00
O39    O     0.98907   0.99541   0.10975   0.00000  Uiso   1.00
O40    O     0.96099   0.31666   0.36132   0.00000  Uiso   1.00
N41    N     0.59044   0.64238   0.06506   0.00000  Uiso   1.00
N42    N     0.94566   0.88068   0.05880   0.00000  Uiso   1.00
N43    N     0.92567   0.39702   0.23807   0.00000  Uiso   1.00
N44    N     0.57635   0.67767   0.21684   0.00000  Uiso   1.00
N45    N     0.93157   0.91598   0.21058   0.00000  Uiso   1.00
N46    N     0.91158   0.43232   0.38985   0.00000  Uiso   1.00
C47    C     0.67820   0.86311   0.60729   0.00000  Uiso   1.00
C48    C     0.74540   0.85298   0.63275   0.00000  Uiso   1.00
C49    C     0.79406   0.86412   0.56960   0.00000  Uiso   1.00
C50    C     0.85211   0.85190   0.60688   0.00000  Uiso   1.00
C51    C     0.95510   0.83957   0.63164   0.00000  Uiso   1.00
C52    C     0.64751   0.78729   0.63102   0.00000  Uiso   1.00
C53    C     0.61385   0.74321   0.56642   0.00000  Uiso   1.00
C54    C     0.58949   0.67569   0.60225   0.00000  Uiso   1.00
C55    C     0.54046   0.56141   0.62435   0.00000  Uiso   1.00
C56    C     0.65303   0.92060   0.68042   0.00000  Uiso   1.00
C57    C     0.62400   0.98859   0.65737   0.00000  Uiso   1.00
C58    C     0.60427   0.03330   0.73479   0.00000  Uiso   1.00
C59    C     0.56380   0.12598   0.83360   0.00000  Uiso   1.00
C60    C     0.69476   0.82160   0.78578   0.00000  Uiso   1.00
C61    C     0.75440   0.83043   0.72970   0.00000  Uiso   1.00
C62    C     0.81239   0.81819   0.76708   0.00000  Uiso   1.00
C63    C     0.86113   0.82931   0.70400   0.00000  Uiso   1.00
C64    C     0.65651   0.76475   0.72796   0.00000  Uiso   1.00
C65    C     0.63219   0.69728   0.76390   0.00000  Uiso   1.00
C66    C     0.59851   0.65310   0.69937   0.00000  Uiso   1.00
C67    C     0.66203   0.89805   0.77737   0.00000  Uiso   1.00
C68    C     0.64233   0.94266   0.85485   0.00000  Uiso   1.00
C69    C     0.61328   0.01071   0.83192   0.00000  Uiso   1.00
H70    H     0.67119   0.88066   0.53181   0.00000  Uiso   1.00
H71    H     0.78708   0.88156   0.49457   0.00000  Uiso   1.00
H72    H     0.60689   0.76068   0.49140   0.00000  Uiso   1.00
H73    H     0.61704   0.00602   0.58233   0.00000  Uiso   1.00
H74    H     0.91953   0.87259   0.49603   0.00000  Uiso   1.00
H75    H     0.53959   0.61771   0.48935   0.00000  Uiso   1.00
H76    H     0.56098   0.13506   0.68110   0.00000  Uiso   1.00
H77    H     0.70177   0.80404   0.86127   0.00000  Uiso   1.00
H78    H     0.81934   0.80074   0.84211   0.00000  Uiso   1.00
H79    H     0.63916   0.67985   0.83893   0.00000  Uiso   1.00
H80    H     0.64931   0.92519   0.92987   0.00000  Uiso   1.00
H81    H     0.94572   0.80699   0.77811   0.00000  Uiso   1.00
H82    H     0.56577   0.55211   0.77142   0.00000  Uiso   1.00
H83    H     0.58717   0.06946   0.96317   0.00000  Uiso   1.00
O84    O     0.00941   0.83898   0.61852   0.00000  Uiso   1.00
O85    O     0.51093   0.50459   0.60975   0.00000  Uiso   1.00
O86    O     0.53901   0.18334   0.86132   0.00000  Uiso   1.00
N87    N     0.90956   0.85762   0.56506   0.00000  Uiso   1.00
N88    N     0.55434   0.61932   0.55880   0.00000  Uiso   1.00
N89    N     0.57433   0.10298   0.73807   0.00000  Uiso   1.00
N90    N     0.92365   0.82233   0.71684   0.00000  Uiso   1.00
N91    N     0.56843   0.58402   0.71058   0.00000  Uiso   1.00
N92    N     0.58842   0.06768   0.88985   0.00000  Uiso   1.00
C93    C     0.17820   0.63689   0.39271   0.00000  Uiso   1.00
C94    C     0.24540   0.64702   0.36725   0.00000  Uiso   1.00
C95    C     0.29406   0.63588   0.43040   0.00000  Uiso   1.00
C96    C     0.35211   0.64810   0.39312   0.00000  Uiso   1.00
C97    C     0.45510   0.66043   0.36836   0.00000  Uiso   1.00
C98    C     0.14751   0.71271   0.36898   0.00000  Uiso   1.00
C99    C     0.11385   0.75679   0.43358   0.00000  Uiso   1.00
C100   C     0.08949   0.82431   0.39775   0.00000  Uiso   1.00
C101   C     0.04046   0.93859   0.37565   0.00000  Uiso   1.00
C102   C     0.15303   0.57940   0.31958   0.00000  Uiso   1.00
C103   C     0.12400   0.51141   0.34263   0.00000  Uiso   1.00
C104   C     0.10427   0.46670   0.26521   0.00000  Uiso   1.00
C105   C     0.06380   0.37402   0.16640   0.00000  Uiso   1.00
C106   C     0.19476   0.67840   0.21422   0.00000  Uiso   1.00
C107   C     0.25440   0.66957   0.27030   0.00000  Uiso   1.00
C108   C     0.31239   0.68181   0.23292   0.00000  Uiso   1.00
C109   C     0.36113   0.67069   0.29600   0.00000  Uiso   1.00
C110   C     0.15651   0.73525   0.27204   0.00000  Uiso   1.00
C111   C     0.13219   0.80272   0.23610   0.00000  Uiso   1.00
C112   C     0.09851   0.84690   0.30063   0.00000  Uiso   1.00
C113   C     0.16203   0.60195   0.22263   0.00000  Uiso   1.00
C114   C     0.14233   0.55734   0.14515   0.00000  Uiso   1.00
C115   C     0.11328   0.48929   0.16808   0.00000  Uiso   1.00
H116   H     0.17119   0.61934   0.46819   0.00000  Uiso   1.00
H117   H     0.28708   0.61844   0.50543   0.00000  Uiso   1.00
H118   H     0.10689   0.73932   0.50860   0.00000  Uiso   1.00
H119   H     0.11704   0.49398   0.41767   0.00000  Uiso   1.00
H120   H     0.41953   0.62741   0.50397   0.00000  Uiso   1.00
H121   H     0.03959   0.88229   0.51065   0.00000  Uiso   1.00
H122   H     0.06098   0.36494   0.31890   0.00000  Uiso   1.00
H123   H     0.20177   0.69596   0.13873   0.00000  Uiso   1.00
H124   H     0.31934   0.69926   0.15789   0.00000  Uiso   1.00
H125   H     0.13916   0.82015   0.16107   0.00000  Uiso   1.00
H126   H     0.14931   0.57481   0.07013   0.00000  Uiso   1.00
H127   H     0.44572   0.69301   0.22189   0.00000  Uiso   1.00
H128   H     0.06577   0.94789   0.22858   0.00000  Uiso   1.00
H129   H     0.08717   0.43054   0.03683   0.00000  Uiso   1.00
O130   O     0.50941   0.66102   0.38148   0.00000  Uiso   1.00
O131   O     0.01093   0.99541   0.39025   0.00000  Uiso   1.00
O132   O     0.03901   0.31666   0.13868   0.00000  Uiso   1.00
N133   N     0.40956   0.64238   0.43494   0.00000  Uiso   1.00
N134   N     0.05434   0.88068   0.44120   0.00000  Uiso   1.00
N135   N     0.07433   0.39702   0.26193   0.00000  Uiso   1.00
N136   N     0.42365   0.67767   0.28316   0.00000  Uiso   1.00
N137   N     0.06843   0.91598   0.28942   0.00000  Uiso   1.00
N138   N     0.08842   0.43232   0.11015   0.00000  Uiso   1.00
C139   C     0.32180   0.86311   0.89271   0.00000  Uiso   1.00
C140   C     0.25460   0.85298   0.86725   0.00000  Uiso   1.00
C141   C     0.20594   0.86412   0.93040   0.00000  Uiso   1.00
C142   C     0.14789   0.85190   0.89312   0.00000  Uiso   1.00
C143   C     0.04490   0.83957   0.86836   0.00000  Uiso   1.00
C144   C     0.35249   0.78729   0.86898   0.00000  Uiso   1.00
C145   C     0.38615   0.74321   0.93358   0.00000  Uiso   1.00
C146   C     0.41051   0.67569   0.89775   0.00000  Uiso   1.00
C147   C     0.45954   0.56141   0.87565   0.00000  Uiso   1.00
C148   C     0.34697   0.92060   0.81958   0.00000  Uiso   1.00
C149   C     0.37600   0.98859   0.84263   0.00000  Uiso   1.00
C150   C     0.39573   0.03330   0.76521   0.00000  Uiso   1.00
C151   C     0.43620   0.12598   0.66640   0.00000  Uiso   1.00
C152   C     0.30524   0.82160   0.71422   0.00000  Uiso   1.00
C153   C     0.24560   0.83043   0.77030   0.00000  Uiso   1.00
C154   C     0.18761   0.81819   0.73292   0.00000  Uiso   1.00
C155   C     0.13887   0.82931   0.79600   0.00000  Uiso   1.00
C156   C     0.34349   0.76475   0.77204   0.00000  Uiso   1.00
C157   C     0.36781   0.69728   0.73610   0.00000  Uiso   1.00
C158   C     0.40149   0.65310   0.80063   0.00000  Uiso   1.00
C159   C     0.33797   0.89805   0.72263   0.00000  Uiso   1.00
C160   C     0.35767   0.94266   0.64515   0.00000  Uiso   1.00
C161   C     0.38672   0.01071   0.66808   0.00000  Uiso   1.00
H162   H     0.32881   0.88066   0.96819   0.00000  Uiso   1.00
H163   H     0.21292   0.88156   0.00543   0.00000  Uiso   1.00
H164   H     0.39311   0.76068   0.00860   0.00000  Uiso   1.00
H165   H     0.38296   0.00602   0.91767   0.00000  Uiso   1.00
H166   H     0.08047   0.87259   0.00397   0.00000  Uiso   1.00
H167   H     0.46041   0.61771   0.01065   0.00000  Uiso   1.00
H168   H     0.43902   0.13506   0.81890   0.00000  Uiso   1.00
H169   H     0.29823   0.80404   0.63873   0.00000  Uiso   1.00
H170   H     0.18066   0.80074   0.65789   0.00000  Uiso   1.00
H171   H     0.36084   0.67985   0.66107   0.00000  Uiso   1.00
H172   H     0.35069   0.92519   0.57013   0.00000  Uiso   1.00
H173   H     0.05428   0.80699   0.72189   0.00000  Uiso   1.00
H174   H     0.43423   0.55211   0.72858   0.00000  Uiso   1.00
H175   H     0.41283   0.06946   0.53683   0.00000  Uiso   1.00
O176   O     0.99059   0.83898   0.88148   0.00000  Uiso   1.00
O177   O     0.48907   0.50459   0.89025   0.00000  Uiso   1.00
O178   O     0.46099   0.18334   0.63868   0.00000  Uiso   1.00
N179   N     0.09044   0.85762   0.93494   0.00000  Uiso   1.00
N180   N     0.44566   0.61932   0.94120   0.00000  Uiso   1.00
N181   N     0.42567   0.10298   0.76193   0.00000  Uiso   1.00
N182   N     0.07635   0.82233   0.78316   0.00000  Uiso   1.00
N183   N     0.43157   0.58402   0.78942   0.00000  Uiso   1.00
N184   N     0.41158   0.06768   0.61015   0.00000  Uiso   1.00
C185   C     0.17820   0.36311   0.89271   0.00000  Uiso   1.00
C186   C     0.24540   0.35298   0.86725   0.00000  Uiso   1.00
C187   C     0.29406   0.36412   0.93040   0.00000  Uiso   1.00
C188   C     0.35211   0.35190   0.89312   0.00000  Uiso   1.00
C189   C     0.45510   0.33957   0.86836   0.00000  Uiso   1.00
C190   C     0.14751   0.28729   0.86898   0.00000  Uiso   1.00
C191   C     0.11385   0.24321   0.93358   0.00000  Uiso   1.00
C192   C     0.08949   0.17569   0.89775   0.00000  Uiso   1.00
C193   C     0.04046   0.06141   0.87565   0.00000  Uiso   1.00
C194   C     0.15303   0.42060   0.81958   0.00000  Uiso   1.00
C195   C     0.12400   0.48859   0.84263   0.00000  Uiso   1.00
C196   C     0.10427   0.53330   0.76521   0.00000  Uiso   1.00
C197   C     0.06380   0.62598   0.66640   0.00000  Uiso   1.00
C198   C     0.19476   0.32160   0.71422   0.00000  Uiso   1.00
C199   C     0.25440   0.33043   0.77030   0.00000  Uiso   1.00
C200   C     0.31239   0.31819   0.73292   0.00000  Uiso   1.00
C201   C     0.36113   0.32931   0.79600   0.00000  Uiso   1.00
C202   C     0.15651   0.26475   0.77204   0.00000  Uiso   1.00
C203   C     0.13219   0.19728   0.73610   0.00000  Uiso   1.00
C204   C     0.09851   0.15310   0.80063   0.00000  Uiso   1.00
C205   C     0.16203   0.39805   0.72263   0.00000  Uiso   1.00
C206   C     0.14233   0.44266   0.64515   0.00000  Uiso   1.00
C207   C     0.11328   0.51071   0.66808   0.00000  Uiso   1.00
H208   H     0.17119   0.38066   0.96819   0.00000  Uiso   1.00
H209   H     0.28708   0.38156   0.00543   0.00000  Uiso   1.00
H210   H     0.10689   0.26068   0.00860   0.00000  Uiso   1.00
H211   H     0.11704   0.50602   0.91767   0.00000  Uiso   1.00
H212   H     0.41953   0.37259   0.00397   0.00000  Uiso   1.00
H213   H     0.03959   0.11771   0.01065   0.00000  Uiso   1.00
H214   H     0.06098   0.63506   0.81890   0.00000  Uiso   1.00
H215   H     0.20177   0.30404   0.63873   0.00000  Uiso   1.00
H216   H     0.31934   0.30074   0.65789   0.00000  Uiso   1.00
H217   H     0.13916   0.17985   0.66107   0.00000  Uiso   1.00
H218   H     0.14931   0.42519   0.57013   0.00000  Uiso   1.00
H219   H     0.44572   0.30699   0.72189   0.00000  Uiso   1.00
H220   H     0.06577   0.05211   0.72858   0.00000  Uiso   1.00
H221   H     0.08717   0.56946   0.53683   0.00000  Uiso   1.00
O222   O     0.50941   0.33898   0.88148   0.00000  Uiso   1.00
O223   O     0.01093   0.00459   0.89025   0.00000  Uiso   1.00
O224   O     0.03901   0.68334   0.63868   0.00000  Uiso   1.00
N225   N     0.40956   0.35762   0.93494   0.00000  Uiso   1.00
N226   N     0.05434   0.11932   0.94120   0.00000  Uiso   1.00
N227   N     0.07433   0.60298   0.76193   0.00000  Uiso   1.00
N228   N     0.42365   0.32233   0.78316   0.00000  Uiso   1.00
N229   N     0.06843   0.08402   0.78942   0.00000  Uiso   1.00
N230   N     0.08842   0.56768   0.61015   0.00000  Uiso   1.00
C231   C     0.32180   0.13689   0.39271   0.00000  Uiso   1.00
C232   C     0.25460   0.14702   0.36725   0.00000  Uiso   1.00
C233   C     0.20594   0.13588   0.43040   0.00000  Uiso   1.00
C234   C     0.14789   0.14810   0.39312   0.00000  Uiso   1.00
C235   C     0.04490   0.16043   0.36836   0.00000  Uiso   1.00
C236   C     0.35249   0.21271   0.36898   0.00000  Uiso   1.00
C237   C     0.38615   0.25679   0.43358   0.00000  Uiso   1.00
C238   C     0.41051   0.32431   0.39775   0.00000  Uiso   1.00
C239   C     0.45954   0.43859   0.37565   0.00000  Uiso   1.00
C240   C     0.34697   0.07940   0.31958   0.00000  Uiso   1.00
C241   C     0.37600   0.01141   0.34263   0.00000  Uiso   1.00
C242   C     0.39573   0.96670   0.26521   0.00000  Uiso   1.00
C243   C     0.43620   0.87402   0.16640   0.00000  Uiso   1.00
C244   C     0.30524   0.17840   0.21422   0.00000  Uiso   1.00
C245   C     0.24560   0.16957   0.27030   0.00000  Uiso   1.00
C246   C     0.18761   0.18181   0.23292   0.00000  Uiso   1.00
C247   C     0.13887   0.17069   0.29600   0.00000  Uiso   1.00
C248   C     0.34349   0.23525   0.27204   0.00000  Uiso   1.00
C249   C     0.36781   0.30272   0.23610   0.00000  Uiso   1.00
C250   C     0.40149   0.34690   0.30063   0.00000  Uiso   1.00
C251   C     0.33797   0.10195   0.22263   0.00000  Uiso   1.00
C252   C     0.35767   0.05734   0.14515   0.00000  Uiso   1.00
C253   C     0.38672   0.98929   0.16808   0.00000  Uiso   1.00
H254   H     0.32881   0.11934   0.46819   0.00000  Uiso   1.00
H255   H     0.21292   0.11844   0.50543   0.00000  Uiso   1.00
H256   H     0.39311   0.23932   0.50860   0.00000  Uiso   1.00
H257   H     0.38296   0.99398   0.41767   0.00000  Uiso   1.00
H258   H     0.08047   0.12741   0.50397   0.00000  Uiso   1.00
H259   H     0.46041   0.38229   0.51065   0.00000  Uiso   1.00
H260   H     0.43902   0.86494   0.31890   0.00000  Uiso   1.00
H261   H     0.29823   0.19596   0.13873   0.00000  Uiso   1.00
H262   H     0.18066   0.19926   0.15789   0.00000  Uiso   1.00
H263   H     0.36084   0.32015   0.16107   0.00000  Uiso   1.00
H264   H     0.35069   0.07481   0.07013   0.00000  Uiso   1.00
H265   H     0.05428   0.19301   0.22189   0.00000  Uiso   1.00
H266   H     0.43423   0.44789   0.22858   0.00000  Uiso   1.00
H267   H     0.41283   0.93054   0.03683   0.00000  Uiso   1.00
O268   O     0.99059   0.16102   0.38148   0.00000  Uiso   1.00
O269   O     0.48907   0.49541   0.39025   0.00000  Uiso   1.00
O270   O     0.46099   0.81666   0.13868   0.00000  Uiso   1.00
N271   N     0.09044   0.14238   0.43494   0.00000  Uiso   1.00
N272   N     0.44566   0.38068   0.44120   0.00000  Uiso   1.00
N273   N     0.42567   0.89702   0.26193   0.00000  Uiso   1.00
N274   N     0.07635   0.17767   0.28316   0.00000  Uiso   1.00
N275   N     0.43157   0.41598   0.28942   0.00000  Uiso   1.00
N276   N     0.41158   0.93232   0.11015   0.00000  Uiso   1.00
C277   C     0.82180   0.36311   0.60729   0.00000  Uiso   1.00
C278   C     0.75460   0.35298   0.63275   0.00000  Uiso   1.00
C279   C     0.70594   0.36412   0.56960   0.00000  Uiso   1.00
C280   C     0.64789   0.35190   0.60688   0.00000  Uiso   1.00
C281   C     0.54490   0.33957   0.63164   0.00000  Uiso   1.00
C282   C     0.85249   0.28729   0.63102   0.00000  Uiso   1.00
C283   C     0.88615   0.24321   0.56642   0.00000  Uiso   1.00
C284   C     0.91051   0.17569   0.60225   0.00000  Uiso   1.00
C285   C     0.95954   0.06141   0.62435   0.00000  Uiso   1.00
C286   C     0.84697   0.42060   0.68042   0.00000  Uiso   1.00
C287   C     0.87600   0.48859   0.65737   0.00000  Uiso   1.00
C288   C     0.89573   0.53330   0.73479   0.00000  Uiso   1.00
C289   C     0.93620   0.62598   0.83360   0.00000  Uiso   1.00
C290   C     0.80524   0.32160   0.78578   0.00000  Uiso   1.00
C291   C     0.74560   0.33043   0.72970   0.00000  Uiso   1.00
C292   C     0.68761   0.31819   0.76708   0.00000  Uiso   1.00
C293   C     0.63887   0.32931   0.70400   0.00000  Uiso   1.00
C294   C     0.84349   0.26475   0.72796   0.00000  Uiso   1.00
C295   C     0.86781   0.19728   0.76390   0.00000  Uiso   1.00
C296   C     0.90149   0.15310   0.69937   0.00000  Uiso   1.00
C297   C     0.83797   0.39805   0.77737   0.00000  Uiso   1.00
C298   C     0.85767   0.44266   0.85485   0.00000  Uiso   1.00
C299   C     0.88672   0.51071   0.83192   0.00000  Uiso   1.00
H300   H     0.82881   0.38066   0.53181   0.00000  Uiso   1.00
H301   H     0.71292   0.38156   0.49457   0.00000  Uiso   1.00
H302   H     0.89311   0.26068   0.49140   0.00000  Uiso   1.00
H303   H     0.88296   0.50602   0.58233   0.00000  Uiso   1.00
H304   H     0.58047   0.37259   0.49603   0.00000  Uiso   1.00
H305   H     0.96041   0.11771   0.48935   0.00000  Uiso   1.00
H306   H     0.93902   0.63506   0.68110   0.00000  Uiso   1.00
H307   H     0.79823   0.30404   0.86127   0.00000  Uiso   1.00
H308   H     0.68066   0.30074   0.84211   0.00000  Uiso   1.00
H309   H     0.86084   0.17985   0.83893   0.00000  Uiso   1.00
H310   H     0.85069   0.42519   0.92987   0.00000  Uiso   1.00
H311   H     0.55428   0.30699   0.77811   0.00000  Uiso   1.00
H312   H     0.93423   0.05211   0.77142   0.00000  Uiso   1.00
H313   H     0.91283   0.56946   0.96317   0.00000  Uiso   1.00
O314   O     0.49059   0.33898   0.61852   0.00000  Uiso   1.00
O315   O     0.98907   0.00459   0.60975   0.00000  Uiso   1.00
O316   O     0.96099   0.68334   0.86132   0.00000  Uiso   1.00
N317   N     0.59044   0.35762   0.56506   0.00000  Uiso   1.00
N318   N     0.94566   0.11932   0.55880   0.00000  Uiso   1.00
N319   N     0.92567   0.60298   0.73807   0.00000  Uiso   1.00
N320   N     0.57635   0.32233   0.71684   0.00000  Uiso   1.00
N321   N     0.93157   0.08402   0.71058   0.00000  Uiso   1.00
N322   N     0.91158   0.56768   0.88985   0.00000  Uiso   1.00
C323   C     0.67820   0.13689   0.10729   0.00000  Uiso   1.00
C324   C     0.74540   0.14702   0.13275   0.00000  Uiso   1.00
C325   C     0.79406   0.13588   0.06960   0.00000  Uiso   1.00
C326   C     0.85211   0.14810   0.10688   0.00000  Uiso   1.00
C327   C     0.95510   0.16043   0.13164   0.00000  Uiso   1.00
C328   C     0.64751   0.21271   0.13102   0.00000  Uiso   1.00
C329   C     0.61385   0.25679   0.06642   0.00000  Uiso   1.00
C330   C     0.58949   0.32431   0.10225   0.00000  Uiso   1.00
C331   C     0.54046   0.43859   0.12435   0.00000  Uiso   1.00
C332   C     0.65303   0.07940   0.18042   0.00000  Uiso   1.00
C333   C     0.62400   0.01141   0.15737   0.00000  Uiso   1.00
C334   C     0.60427   0.96670   0.23479   0.00000  Uiso   1.00
C335   C     0.56380   0.87402   0.33360   0.00000  Uiso   1.00
C336   C     0.69476   0.17840   0.28578   0.00000  Uiso   1.00
C337   C     0.75440   0.16957   0.22970   0.00000  Uiso   1.00
C338   C     0.81239   0.18181   0.26708   0.00000  Uiso   1.00
C339   C     0.86113   0.17069   0.20400   0.00000  Uiso   1.00
C340   C     0.65651   0.23525   0.22796   0.00000  Uiso   1.00
C341   C     0.63219   0.30272   0.26390   0.00000  Uiso   1.00
C342   C     0.59851   0.34690   0.19937   0.00000  Uiso   1.00
C343   C     0.66203   0.10195   0.27737   0.00000  Uiso   1.00
C344   C     0.64233   0.05734   0.35485   0.00000  Uiso   1.00
C345   C     0.61328   0.98929   0.33192   0.00000  Uiso   1.00
H346   H     0.67119   0.11934   0.03181   0.00000  Uiso   1.00
H347   H     0.78708   0.11844   0.99457   0.00000  Uiso   1.00
H348   H     0.60689   0.23932   0.99140   0.00000  Uiso   1.00
H349   H     0.61704   0.99398   0.08233   0.00000  Uiso   1.00
H350   H     0.91953   0.12741   0.99603   0.00000  Uiso   1.00
H351   H     0.53959   0.38229   0.98935   0.00000  Uiso   1.00
H352   H     0.56098   0.86494   0.18110   0.00000  Uiso   1.00
H353   H     0.70177   0.19596   0.36127   0.00000  Uiso   1.00
H354   H     0.81934   0.19926   0.34211   0.00000  Uiso   1.00
H355   H     0.63916   0.32015   0.33893   0.00000  Uiso   1.00
H356   H     0.64931   0.07481   0.42987   0.00000  Uiso   1.00
H357   H     0.94572   0.19301   0.27811   0.00000  Uiso   1.00
H358   H     0.56577   0.44789   0.27142   0.00000  Uiso   1.00
H359   H     0.58717   0.93054   0.46317   0.00000  Uiso   1.00
O360   O     0.00941   0.16102   0.11852   0.00000  Uiso   1.00
O361   O     0.51093   0.49541   0.10975   0.00000  Uiso   1.00
O362   O     0.53901   0.81666   0.36132   0.00000  Uiso   1.00
N363   N     0.90956   0.14238   0.06506   0.00000  Uiso   1.00
N364   N     0.55434   0.38068   0.05880   0.00000  Uiso   1.00
N365   N     0.57433   0.89702   0.23807   0.00000  Uiso   1.00
N366   N     0.92365   0.17767   0.21684   0.00000  Uiso   1.00
N367   N     0.56843   0.41598   0.21058   0.00000  Uiso   1.00
N368   N     0.58842   0.93232   0.38985   0.00000  Uiso   1.00
