data_job_03708
_audit_creation_date              2018-12-19
_audit_creation_method            'Materials Studio'
_symmetry_space_group_name_H-M    'P1'
_symmetry_Int_Tables_number       1
_symmetry_cell_setting            triclinic
loop_
_symmetry_equiv_pos_as_xyz
  x,y,z
_cell_length_a                    24.9403
_cell_length_b                    24.9403
_cell_length_c                    11.1969
_cell_angle_alpha                 90.0000
_cell_angle_beta                  90.0000
_cell_angle_gamma                 90.0000
loop_
_atom_site_label
_atom_site_type_symbol
_atom_site_fract_x
_atom_site_fract_y
_atom_site_fract_z
_atom_site_U_iso_or_equiv
_atom_site_adp_type
_atom_site_occupancy
C1     C     0.21394   0.35872   0.27248   0.00000  Uiso   1.00
C2     C     0.19128   0.40796   0.33548   0.00000  Uiso   1.00
C3     C     0.17665   0.41079   0.45490   0.00000  Uiso   1.00
C4     C     0.15673   0.45947   0.49547   0.00000  Uiso   1.00
C5     C     0.12229   0.52920   0.60487   0.00000  Uiso   1.00
C6     C     0.17678   0.34782   0.16708   0.00000  Uiso   1.00
C7     C     0.14998   0.30008   0.14491   0.00000  Uiso   1.00
C8     C     0.11786   0.29815   0.04371   0.00000  Uiso   1.00
C9     C     0.06095   0.27450   0.89162   0.00000  Uiso   1.00
C10    C     0.26734   0.37617   0.21874   0.00000  Uiso   1.00
C11    C     0.31667   0.35226   0.23997   0.00000  Uiso   1.00
C12    C     0.36080   0.37418   0.18224   0.00000  Uiso   1.00
C13    C     0.44449   0.39455   0.11035   0.00000  Uiso   1.00
C14    C     0.20458   0.44015   0.13218   0.00000  Uiso   1.00
C15    C     0.18619   0.45219   0.25927   0.00000  Uiso   1.00
C16    C     0.16629   0.50089   0.29967   0.00000  Uiso   1.00
C17    C     0.15164   0.50379   0.41913   0.00000  Uiso   1.00
C18    C     0.17170   0.39205   0.09088   0.00000  Uiso   1.00
C19    C     0.13962   0.39019   0.98969   0.00000  Uiso   1.00
C20    C     0.11277   0.34246   0.96737   0.00000  Uiso   1.00
C21    C     0.26225   0.42041   0.14253   0.00000  Uiso   1.00
C22    C     0.30631   0.44237   0.08475   0.00000  Uiso   1.00
C23    C     0.35570   0.41850   0.10589   0.00000  Uiso   1.00
H24    H     0.21790   0.32428   0.33181   0.00000  Uiso   1.00
H25    H     0.18059   0.37655   0.51384   0.00000  Uiso   1.00
H26    H     0.15393   0.26586   0.20389   0.00000  Uiso   1.00
H27    H     0.32059   0.31803   0.29894   0.00000  Uiso   1.00
H28    H     0.13696   0.45400   0.68204   0.00000  Uiso   1.00
H29    H     0.08076   0.22060   0.02848   0.00000  Uiso   1.00
H30    H     0.43221   0.33062   0.22891   0.00000  Uiso   1.00
H31    H     0.20061   0.47459   0.07285   0.00000  Uiso   1.00
H32    H     0.16236   0.53511   0.24068   0.00000  Uiso   1.00
H33    H     0.13569   0.42442   0.93073   0.00000  Uiso   1.00
H34    H     0.30236   0.47660   0.02578   0.00000  Uiso   1.00
H35    H     0.12216   0.58269   0.46033   0.00000  Uiso   1.00
H36    H     0.06596   0.34930   0.80677   0.00000  Uiso   1.00
H37    H     0.41741   0.45931   0.00720   0.00000  Uiso   1.00
O38    O     0.10469   0.55544   0.68625   0.00000  Uiso   1.00
O39    O     0.03096   0.24923   0.82879   0.00000  Uiso   1.00
O40    O     0.49205   0.39357   0.09176   0.00000  Uiso   1.00
N41    N     0.13874   0.47598   0.60684   0.00000  Uiso   1.00
N42    N     0.08618   0.25778   0.99580   0.00000  Uiso   1.00
N43    N     0.41476   0.36062   0.18316   0.00000  Uiso   1.00
N44    N     0.13077   0.54523   0.48754   0.00000  Uiso   1.00
N45    N     0.07822   0.32703   0.87650   0.00000  Uiso   1.00
N46    N     0.40679   0.42987   0.06387   0.00000  Uiso   1.00
C47    C     0.78606   0.64128   0.27248   0.00000  Uiso   1.00
C48    C     0.80872   0.59204   0.33548   0.00000  Uiso   1.00
C49    C     0.82335   0.58921   0.45490   0.00000  Uiso   1.00
C50    C     0.84327   0.54053   0.49547   0.00000  Uiso   1.00
C51    C     0.87771   0.47080   0.60487   0.00000  Uiso   1.00
C52    C     0.82322   0.65218   0.16708   0.00000  Uiso   1.00
C53    C     0.85002   0.69992   0.14491   0.00000  Uiso   1.00
C54    C     0.88214   0.70185   0.04371   0.00000  Uiso   1.00
C55    C     0.93905   0.72550   0.89162   0.00000  Uiso   1.00
C56    C     0.73266   0.62383   0.21874   0.00000  Uiso   1.00
C57    C     0.68333   0.64774   0.23997   0.00000  Uiso   1.00
C58    C     0.63920   0.62582   0.18224   0.00000  Uiso   1.00
C59    C     0.55551   0.60545   0.11035   0.00000  Uiso   1.00
C60    C     0.79542   0.55985   0.13218   0.00000  Uiso   1.00
C61    C     0.81381   0.54781   0.25927   0.00000  Uiso   1.00
C62    C     0.83371   0.49911   0.29967   0.00000  Uiso   1.00
C63    C     0.84836   0.49621   0.41913   0.00000  Uiso   1.00
C64    C     0.82830   0.60795   0.09088   0.00000  Uiso   1.00
C65    C     0.86038   0.60981   0.98969   0.00000  Uiso   1.00
C66    C     0.88723   0.65754   0.96737   0.00000  Uiso   1.00
C67    C     0.73775   0.57959   0.14253   0.00000  Uiso   1.00
C68    C     0.69369   0.55763   0.08475   0.00000  Uiso   1.00
C69    C     0.64430   0.58150   0.10589   0.00000  Uiso   1.00
H70    H     0.78210   0.67572   0.33181   0.00000  Uiso   1.00
H71    H     0.81941   0.62345   0.51384   0.00000  Uiso   1.00
H72    H     0.84607   0.73414   0.20389   0.00000  Uiso   1.00
H73    H     0.67941   0.68197   0.29894   0.00000  Uiso   1.00
H74    H     0.86304   0.54600   0.68204   0.00000  Uiso   1.00
H75    H     0.91924   0.77940   0.02848   0.00000  Uiso   1.00
H76    H     0.56779   0.66938   0.22891   0.00000  Uiso   1.00
H77    H     0.79939   0.52541   0.07285   0.00000  Uiso   1.00
H78    H     0.83764   0.46489   0.24068   0.00000  Uiso   1.00
H79    H     0.86431   0.57558   0.93073   0.00000  Uiso   1.00
H80    H     0.69764   0.52340   0.02578   0.00000  Uiso   1.00
H81    H     0.87784   0.41731   0.46033   0.00000  Uiso   1.00
H82    H     0.93404   0.65070   0.80677   0.00000  Uiso   1.00
H83    H     0.58259   0.54069   0.00720   0.00000  Uiso   1.00
O84    O     0.89531   0.44456   0.68625   0.00000  Uiso   1.00
O85    O     0.96904   0.75077   0.82879   0.00000  Uiso   1.00
O86    O     0.50795   0.60643   0.09176   0.00000  Uiso   1.00
N87    N     0.86126   0.52402   0.60684   0.00000  Uiso   1.00
N88    N     0.91382   0.74222   0.99580   0.00000  Uiso   1.00
N89    N     0.58524   0.63938   0.18316   0.00000  Uiso   1.00
N90    N     0.86923   0.45477   0.48754   0.00000  Uiso   1.00
N91    N     0.92178   0.67297   0.87650   0.00000  Uiso   1.00
N92    N     0.59321   0.57013   0.06387   0.00000  Uiso   1.00
C93    C     0.14128   0.71394   0.27248   0.00000  Uiso   1.00
C94    C     0.09204   0.69128   0.33548   0.00000  Uiso   1.00
C95    C     0.08921   0.67665   0.45490   0.00000  Uiso   1.00
C96    C     0.04053   0.65673   0.49547   0.00000  Uiso   1.00
C97    C     0.97080   0.62229   0.60487   0.00000  Uiso   1.00
C98    C     0.15218   0.67678   0.16708   0.00000  Uiso   1.00
C99    C     0.19992   0.64998   0.14491   0.00000  Uiso   1.00
C100   C     0.20185   0.61786   0.04371   0.00000  Uiso   1.00
C101   C     0.22550   0.56095   0.89162   0.00000  Uiso   1.00
C102   C     0.12383   0.76734   0.21874   0.00000  Uiso   1.00
C103   C     0.14774   0.81667   0.23997   0.00000  Uiso   1.00
C104   C     0.12582   0.86080   0.18224   0.00000  Uiso   1.00
C105   C     0.10545   0.94449   0.11035   0.00000  Uiso   1.00
C106   C     0.05985   0.70458   0.13218   0.00000  Uiso   1.00
C107   C     0.04781   0.68619   0.25927   0.00000  Uiso   1.00
C108   C     0.99911   0.66629   0.29967   0.00000  Uiso   1.00
C109   C     0.99621   0.65164   0.41913   0.00000  Uiso   1.00
C110   C     0.10795   0.67170   0.09088   0.00000  Uiso   1.00
C111   C     0.10981   0.63962   0.98969   0.00000  Uiso   1.00
C112   C     0.15754   0.61277   0.96737   0.00000  Uiso   1.00
C113   C     0.07959   0.76225   0.14253   0.00000  Uiso   1.00
C114   C     0.05763   0.80631   0.08475   0.00000  Uiso   1.00
C115   C     0.08150   0.85570   0.10589   0.00000  Uiso   1.00
H116   H     0.17572   0.71790   0.33181   0.00000  Uiso   1.00
H117   H     0.12345   0.68059   0.51384   0.00000  Uiso   1.00
H118   H     0.23414   0.65393   0.20389   0.00000  Uiso   1.00
H119   H     0.18197   0.82059   0.29894   0.00000  Uiso   1.00
H120   H     0.04600   0.63696   0.68204   0.00000  Uiso   1.00
H121   H     0.27940   0.58076   0.02848   0.00000  Uiso   1.00
H122   H     0.16938   0.93221   0.22891   0.00000  Uiso   1.00
H123   H     0.02541   0.70061   0.07285   0.00000  Uiso   1.00
H124   H     0.96489   0.66236   0.24068   0.00000  Uiso   1.00
H125   H     0.07558   0.63569   0.93073   0.00000  Uiso   1.00
H126   H     0.02340   0.80236   0.02578   0.00000  Uiso   1.00
H127   H     0.91731   0.62216   0.46033   0.00000  Uiso   1.00
H128   H     0.15070   0.56596   0.80677   0.00000  Uiso   1.00
H129   H     0.04069   0.91741   0.00720   0.00000  Uiso   1.00
O130   O     0.94456   0.60469   0.68625   0.00000  Uiso   1.00
O131   O     0.25077   0.53096   0.82879   0.00000  Uiso   1.00
O132   O     0.10643   0.99205   0.09176   0.00000  Uiso   1.00
N133   N     0.02402   0.63874   0.60684   0.00000  Uiso   1.00
N134   N     0.24222   0.58618   0.99580   0.00000  Uiso   1.00
N135   N     0.13938   0.91476   0.18316   0.00000  Uiso   1.00
N136   N     0.95477   0.63077   0.48754   0.00000  Uiso   1.00
N137   N     0.17297   0.57822   0.87650   0.00000  Uiso   1.00
N138   N     0.07013   0.90679   0.06387   0.00000  Uiso   1.00
C139   C     0.85872   0.28606   0.27248   0.00000  Uiso   1.00
C140   C     0.90796   0.30872   0.33548   0.00000  Uiso   1.00
C141   C     0.91079   0.32335   0.45490   0.00000  Uiso   1.00
C142   C     0.95947   0.34327   0.49547   0.00000  Uiso   1.00
C143   C     0.02920   0.37771   0.60487   0.00000  Uiso   1.00
C144   C     0.84782   0.32322   0.16708   0.00000  Uiso   1.00
C145   C     0.80008   0.35002   0.14491   0.00000  Uiso   1.00
C146   C     0.79815   0.38214   0.04371   0.00000  Uiso   1.00
C147   C     0.77450   0.43905   0.89162   0.00000  Uiso   1.00
C148   C     0.87617   0.23266   0.21874   0.00000  Uiso   1.00
C149   C     0.85226   0.18333   0.23997   0.00000  Uiso   1.00
C150   C     0.87418   0.13920   0.18224   0.00000  Uiso   1.00
C151   C     0.89455   0.05551   0.11035   0.00000  Uiso   1.00
C152   C     0.94015   0.29542   0.13218   0.00000  Uiso   1.00
C153   C     0.95219   0.31381   0.25927   0.00000  Uiso   1.00
C154   C     0.00089   0.33371   0.29967   0.00000  Uiso   1.00
C155   C     0.00379   0.34836   0.41913   0.00000  Uiso   1.00
C156   C     0.89205   0.32830   0.09088   0.00000  Uiso   1.00
C157   C     0.89019   0.36038   0.98969   0.00000  Uiso   1.00
C158   C     0.84246   0.38723   0.96737   0.00000  Uiso   1.00
C159   C     0.92041   0.23775   0.14253   0.00000  Uiso   1.00
C160   C     0.94237   0.19369   0.08475   0.00000  Uiso   1.00
C161   C     0.91850   0.14430   0.10589   0.00000  Uiso   1.00
H162   H     0.82428   0.28210   0.33181   0.00000  Uiso   1.00
H163   H     0.87655   0.31941   0.51384   0.00000  Uiso   1.00
H164   H     0.76586   0.34607   0.20389   0.00000  Uiso   1.00
H165   H     0.81803   0.17941   0.29894   0.00000  Uiso   1.00
H166   H     0.95400   0.36304   0.68204   0.00000  Uiso   1.00
H167   H     0.72060   0.41924   0.02848   0.00000  Uiso   1.00
H168   H     0.83062   0.06779   0.22891   0.00000  Uiso   1.00
H169   H     0.97459   0.29939   0.07285   0.00000  Uiso   1.00
H170   H     0.03511   0.33764   0.24068   0.00000  Uiso   1.00
H171   H     0.92442   0.36431   0.93073   0.00000  Uiso   1.00
H172   H     0.97660   0.19764   0.02578   0.00000  Uiso   1.00
H173   H     0.08269   0.37784   0.46033   0.00000  Uiso   1.00
H174   H     0.84930   0.43404   0.80677   0.00000  Uiso   1.00
H175   H     0.95931   0.08259   0.00720   0.00000  Uiso   1.00
O176   O     0.05544   0.39531   0.68625   0.00000  Uiso   1.00
O177   O     0.74923   0.46904   0.82879   0.00000  Uiso   1.00
O178   O     0.89357   0.00795   0.09176   0.00000  Uiso   1.00
N179   N     0.97598   0.36126   0.60684   0.00000  Uiso   1.00
N180   N     0.75778   0.41382   0.99580   0.00000  Uiso   1.00
N181   N     0.86062   0.08524   0.18316   0.00000  Uiso   1.00
N182   N     0.04523   0.36923   0.48754   0.00000  Uiso   1.00
N183   N     0.82703   0.42178   0.87650   0.00000  Uiso   1.00
N184   N     0.92987   0.09321   0.06387   0.00000  Uiso   1.00
C185   C     0.28606   0.14128   0.72752   0.00000  Uiso   1.00
C186   C     0.30872   0.09204   0.66452   0.00000  Uiso   1.00
C187   C     0.32335   0.08921   0.54510   0.00000  Uiso   1.00
C188   C     0.34327   0.04053   0.50453   0.00000  Uiso   1.00
C189   C     0.37771   0.97080   0.39513   0.00000  Uiso   1.00
C190   C     0.32322   0.15218   0.83292   0.00000  Uiso   1.00
C191   C     0.35002   0.19992   0.85509   0.00000  Uiso   1.00
C192   C     0.38214   0.20185   0.95629   0.00000  Uiso   1.00
C193   C     0.43905   0.22550   0.10838   0.00000  Uiso   1.00
C194   C     0.23266   0.12383   0.78126   0.00000  Uiso   1.00
C195   C     0.18333   0.14774   0.76003   0.00000  Uiso   1.00
C196   C     0.13920   0.12582   0.81776   0.00000  Uiso   1.00
C197   C     0.05551   0.10545   0.88965   0.00000  Uiso   1.00
C198   C     0.29542   0.05985   0.86782   0.00000  Uiso   1.00
C199   C     0.31381   0.04781   0.74073   0.00000  Uiso   1.00
C200   C     0.33371   0.99911   0.70033   0.00000  Uiso   1.00
C201   C     0.34836   0.99621   0.58087   0.00000  Uiso   1.00
C202   C     0.32830   0.10795   0.90912   0.00000  Uiso   1.00
C203   C     0.36038   0.10981   0.01031   0.00000  Uiso   1.00
C204   C     0.38723   0.15754   0.03263   0.00000  Uiso   1.00
C205   C     0.23775   0.07959   0.85747   0.00000  Uiso   1.00
C206   C     0.19369   0.05763   0.91525   0.00000  Uiso   1.00
C207   C     0.14430   0.08150   0.89411   0.00000  Uiso   1.00
H208   H     0.28210   0.17572   0.66819   0.00000  Uiso   1.00
H209   H     0.31941   0.12345   0.48616   0.00000  Uiso   1.00
H210   H     0.34607   0.23414   0.79611   0.00000  Uiso   1.00
H211   H     0.17941   0.18197   0.70106   0.00000  Uiso   1.00
H212   H     0.36304   0.04600   0.31796   0.00000  Uiso   1.00
H213   H     0.41924   0.27940   0.97152   0.00000  Uiso   1.00
H214   H     0.06779   0.16938   0.77109   0.00000  Uiso   1.00
H215   H     0.29939   0.02541   0.92715   0.00000  Uiso   1.00
H216   H     0.33764   0.96489   0.75932   0.00000  Uiso   1.00
H217   H     0.36431   0.07558   0.06927   0.00000  Uiso   1.00
H218   H     0.19764   0.02340   0.97422   0.00000  Uiso   1.00
H219   H     0.37784   0.91731   0.53967   0.00000  Uiso   1.00
H220   H     0.43404   0.15070   0.19323   0.00000  Uiso   1.00
H221   H     0.08259   0.04069   0.99280   0.00000  Uiso   1.00
O222   O     0.39531   0.94456   0.31375   0.00000  Uiso   1.00
O223   O     0.46904   0.25077   0.17121   0.00000  Uiso   1.00
O224   O     0.00795   0.10643   0.90824   0.00000  Uiso   1.00
N225   N     0.36126   0.02402   0.39316   0.00000  Uiso   1.00
N226   N     0.41382   0.24222   0.00420   0.00000  Uiso   1.00
N227   N     0.08524   0.13938   0.81684   0.00000  Uiso   1.00
N228   N     0.36923   0.95477   0.51246   0.00000  Uiso   1.00
N229   N     0.42178   0.17297   0.12350   0.00000  Uiso   1.00
N230   N     0.09321   0.07013   0.93613   0.00000  Uiso   1.00
C231   C     0.71394   0.85872   0.72752   0.00000  Uiso   1.00
C232   C     0.69128   0.90796   0.66452   0.00000  Uiso   1.00
C233   C     0.67665   0.91079   0.54510   0.00000  Uiso   1.00
C234   C     0.65673   0.95947   0.50453   0.00000  Uiso   1.00
C235   C     0.62229   0.02920   0.39513   0.00000  Uiso   1.00
C236   C     0.67678   0.84782   0.83292   0.00000  Uiso   1.00
C237   C     0.64998   0.80008   0.85509   0.00000  Uiso   1.00
C238   C     0.61786   0.79815   0.95629   0.00000  Uiso   1.00
C239   C     0.56095   0.77450   0.10838   0.00000  Uiso   1.00
C240   C     0.76734   0.87617   0.78126   0.00000  Uiso   1.00
C241   C     0.81667   0.85226   0.76003   0.00000  Uiso   1.00
C242   C     0.86080   0.87418   0.81776   0.00000  Uiso   1.00
C243   C     0.94449   0.89455   0.88965   0.00000  Uiso   1.00
C244   C     0.70458   0.94015   0.86782   0.00000  Uiso   1.00
C245   C     0.68619   0.95219   0.74073   0.00000  Uiso   1.00
C246   C     0.66629   0.00089   0.70033   0.00000  Uiso   1.00
C247   C     0.65164   0.00379   0.58087   0.00000  Uiso   1.00
C248   C     0.67170   0.89205   0.90912   0.00000  Uiso   1.00
C249   C     0.63962   0.89019   0.01031   0.00000  Uiso   1.00
C250   C     0.61277   0.84246   0.03263   0.00000  Uiso   1.00
C251   C     0.76225   0.92041   0.85747   0.00000  Uiso   1.00
C252   C     0.80631   0.94237   0.91525   0.00000  Uiso   1.00
C253   C     0.85570   0.91850   0.89411   0.00000  Uiso   1.00
H254   H     0.71790   0.82428   0.66819   0.00000  Uiso   1.00
H255   H     0.68059   0.87655   0.48616   0.00000  Uiso   1.00
H256   H     0.65393   0.76586   0.79611   0.00000  Uiso   1.00
H257   H     0.82059   0.81803   0.70106   0.00000  Uiso   1.00
H258   H     0.63696   0.95400   0.31796   0.00000  Uiso   1.00
H259   H     0.58076   0.72060   0.97152   0.00000  Uiso   1.00
H260   H     0.93221   0.83062   0.77109   0.00000  Uiso   1.00
H261   H     0.70061   0.97459   0.92715   0.00000  Uiso   1.00
H262   H     0.66236   0.03511   0.75932   0.00000  Uiso   1.00
H263   H     0.63569   0.92442   0.06927   0.00000  Uiso   1.00
H264   H     0.80236   0.97660   0.97422   0.00000  Uiso   1.00
H265   H     0.62216   0.08269   0.53967   0.00000  Uiso   1.00
H266   H     0.56596   0.84930   0.19323   0.00000  Uiso   1.00
H267   H     0.91741   0.95931   0.99280   0.00000  Uiso   1.00
O268   O     0.60469   0.05544   0.31375   0.00000  Uiso   1.00
O269   O     0.53096   0.74923   0.17121   0.00000  Uiso   1.00
O270   O     0.99205   0.89357   0.90824   0.00000  Uiso   1.00
N271   N     0.63874   0.97598   0.39316   0.00000  Uiso   1.00
N272   N     0.58618   0.75778   0.00420   0.00000  Uiso   1.00
N273   N     0.91476   0.86062   0.81684   0.00000  Uiso   1.00
N274   N     0.63077   0.04523   0.51246   0.00000  Uiso   1.00
N275   N     0.57822   0.82703   0.12350   0.00000  Uiso   1.00
N276   N     0.90679   0.92987   0.93613   0.00000  Uiso   1.00
C277   C     0.35872   0.78606   0.72752   0.00000  Uiso   1.00
C278   C     0.40796   0.80872   0.66452   0.00000  Uiso   1.00
C279   C     0.41079   0.82335   0.54510   0.00000  Uiso   1.00
C280   C     0.45947   0.84327   0.50453   0.00000  Uiso   1.00
C281   C     0.52920   0.87771   0.39513   0.00000  Uiso   1.00
C282   C     0.34782   0.82322   0.83292   0.00000  Uiso   1.00
C283   C     0.30008   0.85002   0.85509   0.00000  Uiso   1.00
C284   C     0.29815   0.88214   0.95629   0.00000  Uiso   1.00
C285   C     0.27450   0.93905   0.10838   0.00000  Uiso   1.00
C286   C     0.37617   0.73266   0.78126   0.00000  Uiso   1.00
C287   C     0.35226   0.68333   0.76003   0.00000  Uiso   1.00
C288   C     0.37418   0.63920   0.81776   0.00000  Uiso   1.00
C289   C     0.39455   0.55551   0.88965   0.00000  Uiso   1.00
C290   C     0.44015   0.79542   0.86782   0.00000  Uiso   1.00
C291   C     0.45219   0.81381   0.74073   0.00000  Uiso   1.00
C292   C     0.50089   0.83371   0.70033   0.00000  Uiso   1.00
C293   C     0.50379   0.84836   0.58087   0.00000  Uiso   1.00
C294   C     0.39205   0.82830   0.90912   0.00000  Uiso   1.00
C295   C     0.39019   0.86038   0.01031   0.00000  Uiso   1.00
C296   C     0.34246   0.88723   0.03263   0.00000  Uiso   1.00
C297   C     0.42041   0.73775   0.85747   0.00000  Uiso   1.00
C298   C     0.44237   0.69369   0.91525   0.00000  Uiso   1.00
C299   C     0.41850   0.64430   0.89411   0.00000  Uiso   1.00
H300   H     0.32428   0.78210   0.66819   0.00000  Uiso   1.00
H301   H     0.37655   0.81941   0.48616   0.00000  Uiso   1.00
H302   H     0.26586   0.84607   0.79611   0.00000  Uiso   1.00
H303   H     0.31803   0.67941   0.70106   0.00000  Uiso   1.00
H304   H     0.45400   0.86304   0.31796   0.00000  Uiso   1.00
H305   H     0.22060   0.91924   0.97152   0.00000  Uiso   1.00
H306   H     0.33062   0.56779   0.77109   0.00000  Uiso   1.00
H307   H     0.47459   0.79939   0.92715   0.00000  Uiso   1.00
H308   H     0.53511   0.83764   0.75932   0.00000  Uiso   1.00
H309   H     0.42442   0.86431   0.06927   0.00000  Uiso   1.00
H310   H     0.47660   0.69764   0.97422   0.00000  Uiso   1.00
H311   H     0.58269   0.87784   0.53967   0.00000  Uiso   1.00
H312   H     0.34930   0.93404   0.19323   0.00000  Uiso   1.00
H313   H     0.45931   0.58259   0.99280   0.00000  Uiso   1.00
O314   O     0.55544   0.89531   0.31375   0.00000  Uiso   1.00
O315   O     0.24923   0.96904   0.17121   0.00000  Uiso   1.00
O316   O     0.39357   0.50795   0.90824   0.00000  Uiso   1.00
N317   N     0.47598   0.86126   0.39316   0.00000  Uiso   1.00
N318   N     0.25778   0.91382   0.00420   0.00000  Uiso   1.00
N319   N     0.36062   0.58524   0.81684   0.00000  Uiso   1.00
N320   N     0.54523   0.86923   0.51246   0.00000  Uiso   1.00
N321   N     0.32703   0.92178   0.12350   0.00000  Uiso   1.00
N322   N     0.42987   0.59321   0.93613   0.00000  Uiso   1.00
C323   C     0.64128   0.21394   0.72752   0.00000  Uiso   1.00
C324   C     0.59204   0.19128   0.66452   0.00000  Uiso   1.00
C325   C     0.58921   0.17665   0.54510   0.00000  Uiso   1.00
C326   C     0.54053   0.15673   0.50453   0.00000  Uiso   1.00
C327   C     0.47080   0.12229   0.39513   0.00000  Uiso   1.00
C328   C     0.65218   0.17678   0.83292   0.00000  Uiso   1.00
C329   C     0.69992   0.14998   0.85509   0.00000  Uiso   1.00
C330   C     0.70185   0.11786   0.95629   0.00000  Uiso   1.00
C331   C     0.72550   0.06095   0.10838   0.00000  Uiso   1.00
C332   C     0.62383   0.26734   0.78126   0.00000  Uiso   1.00
C333   C     0.64774   0.31667   0.76003   0.00000  Uiso   1.00
C334   C     0.62582   0.36080   0.81776   0.00000  Uiso   1.00
C335   C     0.60545   0.44449   0.88965   0.00000  Uiso   1.00
C336   C     0.55985   0.20458   0.86782   0.00000  Uiso   1.00
C337   C     0.54781   0.18619   0.74073   0.00000  Uiso   1.00
C338   C     0.49911   0.16629   0.70033   0.00000  Uiso   1.00
C339   C     0.49621   0.15164   0.58087   0.00000  Uiso   1.00
C340   C     0.60795   0.17170   0.90912   0.00000  Uiso   1.00
C341   C     0.60981   0.13962   0.01031   0.00000  Uiso   1.00
C342   C     0.65754   0.11277   0.03263   0.00000  Uiso   1.00
C343   C     0.57959   0.26225   0.85747   0.00000  Uiso   1.00
C344   C     0.55763   0.30631   0.91525   0.00000  Uiso   1.00
C345   C     0.58150   0.35570   0.89411   0.00000  Uiso   1.00
H346   H     0.67572   0.21790   0.66819   0.00000  Uiso   1.00
H347   H     0.62345   0.18059   0.48616   0.00000  Uiso   1.00
H348   H     0.73414   0.15393   0.79611   0.00000  Uiso   1.00
H349   H     0.68197   0.32059   0.70106   0.00000  Uiso   1.00
H350   H     0.54600   0.13696   0.31796   0.00000  Uiso   1.00
H351   H     0.77940   0.08076   0.97152   0.00000  Uiso   1.00
H352   H     0.66938   0.43221   0.77109   0.00000  Uiso   1.00
H353   H     0.52541   0.20061   0.92715   0.00000  Uiso   1.00
H354   H     0.46489   0.16236   0.75932   0.00000  Uiso   1.00
H355   H     0.57558   0.13569   0.06927   0.00000  Uiso   1.00
H356   H     0.52340   0.30236   0.97422   0.00000  Uiso   1.00
H357   H     0.41731   0.12216   0.53967   0.00000  Uiso   1.00
H358   H     0.65070   0.06596   0.19323   0.00000  Uiso   1.00
H359   H     0.54069   0.41741   0.99280   0.00000  Uiso   1.00
O360   O     0.44456   0.10469   0.31375   0.00000  Uiso   1.00
O361   O     0.75077   0.03096   0.17121   0.00000  Uiso   1.00
O362   O     0.60643   0.49205   0.90824   0.00000  Uiso   1.00
N363   N     0.52402   0.13874   0.39316   0.00000  Uiso   1.00
N364   N     0.74222   0.08618   0.00420   0.00000  Uiso   1.00
N365   N     0.63938   0.41476   0.81684   0.00000  Uiso   1.00
N366   N     0.45477   0.13077   0.51246   0.00000  Uiso   1.00
N367   N     0.67297   0.07822   0.12350   0.00000  Uiso   1.00
N368   N     0.57013   0.40679   0.93613   0.00000  Uiso   1.00
