data_job_05007
_audit_creation_date              2018-12-19
_audit_creation_method            'Materials Studio'
_symmetry_space_group_name_H-M    'P1'
_symmetry_Int_Tables_number       1
_symmetry_cell_setting            triclinic
loop_
_symmetry_equiv_pos_as_xyz
  x,y,z
_cell_length_a                    26.6340
_cell_length_b                    27.2478
_cell_length_c                    9.9267
_cell_angle_alpha                 90.0000
_cell_angle_beta                  114.5418
_cell_angle_gamma                 90.0000
loop_
_atom_site_label
_atom_site_type_symbol
_atom_site_fract_x
_atom_site_fract_y
_atom_site_fract_z
_atom_site_U_iso_or_equiv
_atom_site_adp_type
_atom_site_occupancy
C1     C     0.77456   0.21989   0.96227   0.00000  Uiso   1.00
C2     C     0.76507   0.17341   0.86932   0.00000  Uiso   1.00
C3     C     0.76992   0.16948   0.73584   0.00000  Uiso   1.00
C4     C     0.75952   0.12376   0.66795   0.00000  Uiso   1.00
C5     C     0.74701   0.05773   0.51395   0.00000  Uiso   1.00
C6     C     0.72148   0.22844   0.98227   0.00000  Uiso   1.00
C7     C     0.68967   0.27079   0.94376   0.00000  Uiso   1.00
C8     C     0.64258   0.27140   0.97097   0.00000  Uiso   1.00
C9     C     0.56241   0.29082   0.99241   0.00000  Uiso   1.00
C10    C     0.81856   0.20696   0.11525   0.00000  Uiso   1.00
C11    C     0.86837   0.23126   0.18858   0.00000  Uiso   1.00
C12    C     0.90301   0.21379   0.32778   0.00000  Uiso   1.00
C13    C     0.97356   0.19986   0.55569   0.00000  Uiso   1.00
C14    C     0.74748   0.14568   0.07907   0.00000  Uiso   1.00
C15    C     0.75037   0.13310   0.93277   0.00000  Uiso   1.00
C16    C     0.73996   0.08738   0.86507   0.00000  Uiso   1.00
C17    C     0.74479   0.08338   0.73151   0.00000  Uiso   1.00
C18    C     0.70677   0.18814   0.04571   0.00000  Uiso   1.00
C19    C     0.65972   0.18869   0.07299   0.00000  Uiso   1.00
C20    C     0.62785   0.23102   0.03453   0.00000  Uiso   1.00
C21    C     0.80385   0.16665   0.17870   0.00000  Uiso   1.00
C22    C     0.83842   0.14915   0.31781   0.00000  Uiso   1.00
C23    C     0.88827   0.17341   0.39134   0.00000  Uiso   1.00
H24    H     0.78600   0.25127   0.91288   0.00000  Uiso   1.00
H25    H     0.78130   0.20069   0.68677   0.00000  Uiso   1.00
H26    H     0.70107   0.30198   0.89468   0.00000  Uiso   1.00
H27    H     0.87974   0.26245   0.13945   0.00000  Uiso   1.00
H28    H     0.76957   0.12683   0.46405   0.00000  Uiso   1.00
H29    H     0.60041   0.34042   0.90247   0.00000  Uiso   1.00
H30    H     0.97718   0.25706   0.41864   0.00000  Uiso   1.00
H31    H     0.73603   0.11430   0.12847   0.00000  Uiso   1.00
H32    H     0.72858   0.05619   0.91420   0.00000  Uiso   1.00
H33    H     0.64835   0.15749   0.12210   0.00000  Uiso   1.00
H34    H     0.82702   0.11796   0.36687   0.00000  Uiso   1.00
H35    H     0.72679   0.00955   0.64863   0.00000  Uiso   1.00
H36    H     0.55763   0.22315   0.08706   0.00000  Uiso   1.00
H37    H     0.93439   0.13978   0.60322   0.00000  Uiso   1.00
O38    O     0.74416   0.03244   0.41146   0.00000  Uiso   1.00
O39    O     0.52224   0.31267   0.98669   0.00000  Uiso   1.00
O40    O     0.01654   0.20330   0.66387   0.00000  Uiso   1.00
N41    N     0.76054   0.10720   0.53691   0.00000  Uiso   1.00
N42    N     0.60238   0.30689   0.94679   0.00000  Uiso   1.00
N43    N     0.95461   0.22896   0.42937   0.00000  Uiso   1.00
N44    N     0.73751   0.04410   0.63623   0.00000  Uiso   1.00
N45    N     0.57936   0.24379   0.04611   0.00000  Uiso   1.00
N46    N     0.93159   0.16586   0.52870   0.00000  Uiso   1.00
C47    C     0.74186   0.71621   0.83650   0.00000  Uiso   1.00
C48    C     0.73279   0.67154   0.73652   0.00000  Uiso   1.00
C49    C     0.73829   0.67054   0.60352   0.00000  Uiso   1.00
C50    C     0.72818   0.62609   0.52852   0.00000  Uiso   1.00
C51    C     0.71636   0.56311   0.36471   0.00000  Uiso   1.00
C52    C     0.68840   0.72309   0.85581   0.00000  Uiso   1.00
C53    C     0.65659   0.76544   0.82312   0.00000  Uiso   1.00
C54    C     0.60913   0.76438   0.84855   0.00000  Uiso   1.00
C55    C     0.52843   0.78146   0.87005   0.00000  Uiso   1.00
C56    C     0.78537   0.70111   0.98794   0.00000  Uiso   1.00
C57    C     0.83508   0.72498   0.06638   0.00000  Uiso   1.00
C58    C     0.86925   0.70541   0.20308   0.00000  Uiso   1.00
C59    C     0.93911   0.68835   0.42973   0.00000  Uiso   1.00
C60    C     0.71413   0.63904   0.93980   0.00000  Uiso   1.00
C61    C     0.71772   0.62963   0.79263   0.00000  Uiso   1.00
C62    C     0.70761   0.58516   0.71781   0.00000  Uiso   1.00
C63    C     0.71310   0.58409   0.58473   0.00000  Uiso   1.00
C64    C     0.67334   0.68118   0.91191   0.00000  Uiso   1.00
C65    C     0.62592   0.68006   0.93741   0.00000  Uiso   1.00
C66    C     0.59404   0.72239   0.90476   0.00000  Uiso   1.00
C67    C     0.77031   0.65919   0.04405   0.00000  Uiso   1.00
C68    C     0.80441   0.63959   0.18066   0.00000  Uiso   1.00
C69    C     0.85417   0.66342   0.25929   0.00000  Uiso   1.00
H70    H     0.75358   0.74885   0.79282   0.00000  Uiso   1.00
H71    H     0.74994   0.70299   0.56013   0.00000  Uiso   1.00
H72    H     0.66826   0.79787   0.77972   0.00000  Uiso   1.00
H73    H     0.84672   0.75741   0.02293   0.00000  Uiso   1.00
H74    H     0.73924   0.63367   0.32688   0.00000  Uiso   1.00
H75    H     0.56703   0.83375   0.78993   0.00000  Uiso   1.00
H76    H     0.94336   0.74843   0.30280   0.00000  Uiso   1.00
H77    H     0.70240   0.60640   0.98348   0.00000  Uiso   1.00
H78    H     0.69596   0.55273   0.76126   0.00000  Uiso   1.00
H79    H     0.61428   0.64761   0.98084   0.00000  Uiso   1.00
H80    H     0.79274   0.60715   0.22405   0.00000  Uiso   1.00
H81    H     0.69542   0.51171   0.49011   0.00000  Uiso   1.00
H82    H     0.52321   0.71179   0.95317   0.00000  Uiso   1.00
H83    H     0.89954   0.62647   0.46603   0.00000  Uiso   1.00
O84    O     0.71400   0.53996   0.25884   0.00000  Uiso   1.00
O85    O     0.48807   0.80245   0.86638   0.00000  Uiso   1.00
O86    O     0.98180   0.69051   0.53924   0.00000  Uiso   1.00
N87    N     0.72982   0.61233   0.39581   0.00000  Uiso   1.00
N88    N     0.56881   0.79939   0.82871   0.00000  Uiso   1.00
N89    N     0.92064   0.71963   0.30822   0.00000  Uiso   1.00
N90    N     0.70625   0.54671   0.48364   0.00000  Uiso   1.00
N91    N     0.54524   0.73376   0.91655   0.00000  Uiso   1.00
N92    N     0.89706   0.65400   0.39605   0.00000  Uiso   1.00
C93    C     0.22544   0.71989   0.53773   0.00000  Uiso   1.00
C94    C     0.23493   0.67341   0.63068   0.00000  Uiso   1.00
C95    C     0.23008   0.66948   0.76416   0.00000  Uiso   1.00
C96    C     0.24048   0.62376   0.83205   0.00000  Uiso   1.00
C97    C     0.25299   0.55773   0.98605   0.00000  Uiso   1.00
C98    C     0.27852   0.72844   0.51773   0.00000  Uiso   1.00
C99    C     0.31033   0.77079   0.55624   0.00000  Uiso   1.00
C100   C     0.35742   0.77140   0.52903   0.00000  Uiso   1.00
C101   C     0.43759   0.79082   0.50759   0.00000  Uiso   1.00
C102   C     0.18144   0.70696   0.38475   0.00000  Uiso   1.00
C103   C     0.13163   0.73126   0.31142   0.00000  Uiso   1.00
C104   C     0.09699   0.71379   0.17222   0.00000  Uiso   1.00
C105   C     0.02644   0.69986   0.94431   0.00000  Uiso   1.00
C106   C     0.25252   0.64568   0.42093   0.00000  Uiso   1.00
C107   C     0.24963   0.63310   0.56723   0.00000  Uiso   1.00
C108   C     0.26004   0.58738   0.63493   0.00000  Uiso   1.00
C109   C     0.25521   0.58338   0.76849   0.00000  Uiso   1.00
C110   C     0.29323   0.68814   0.45429   0.00000  Uiso   1.00
C111   C     0.34028   0.68869   0.42701   0.00000  Uiso   1.00
C112   C     0.37215   0.73102   0.46547   0.00000  Uiso   1.00
C113   C     0.19615   0.66665   0.32130   0.00000  Uiso   1.00
C114   C     0.16158   0.64915   0.18219   0.00000  Uiso   1.00
C115   C     0.11173   0.67341   0.10866   0.00000  Uiso   1.00
H116   H     0.21400   0.75127   0.58712   0.00000  Uiso   1.00
H117   H     0.21870   0.70069   0.81323   0.00000  Uiso   1.00
H118   H     0.29893   0.80198   0.60532   0.00000  Uiso   1.00
H119   H     0.12026   0.76245   0.36055   0.00000  Uiso   1.00
H120   H     0.23043   0.62683   0.03595   0.00000  Uiso   1.00
H121   H     0.39959   0.84042   0.59753   0.00000  Uiso   1.00
H122   H     0.02282   0.75706   0.08136   0.00000  Uiso   1.00
H123   H     0.26397   0.61430   0.37153   0.00000  Uiso   1.00
H124   H     0.27142   0.55619   0.58580   0.00000  Uiso   1.00
H125   H     0.35165   0.65749   0.37790   0.00000  Uiso   1.00
H126   H     0.17298   0.61796   0.13313   0.00000  Uiso   1.00
H127   H     0.27321   0.50955   0.85137   0.00000  Uiso   1.00
H128   H     0.44237   0.72315   0.41294   0.00000  Uiso   1.00
H129   H     0.06561   0.63978   0.89678   0.00000  Uiso   1.00
O130   O     0.25584   0.53244   0.08854   0.00000  Uiso   1.00
O131   O     0.47776   0.81267   0.51331   0.00000  Uiso   1.00
O132   O     0.98346   0.70330   0.83613   0.00000  Uiso   1.00
N133   N     0.23946   0.60720   0.96309   0.00000  Uiso   1.00
N134   N     0.39762   0.80689   0.55321   0.00000  Uiso   1.00
N135   N     0.04539   0.72896   0.07063   0.00000  Uiso   1.00
N136   N     0.26249   0.54410   0.86377   0.00000  Uiso   1.00
N137   N     0.42064   0.74379   0.45389   0.00000  Uiso   1.00
N138   N     0.06841   0.66586   0.97130   0.00000  Uiso   1.00
C139   C     0.25814   0.21621   0.66350   0.00000  Uiso   1.00
C140   C     0.26721   0.17154   0.76348   0.00000  Uiso   1.00
C141   C     0.26171   0.17054   0.89648   0.00000  Uiso   1.00
C142   C     0.27182   0.12609   0.97148   0.00000  Uiso   1.00
C143   C     0.28364   0.06311   0.13529   0.00000  Uiso   1.00
C144   C     0.31160   0.22309   0.64419   0.00000  Uiso   1.00
C145   C     0.34341   0.26544   0.67688   0.00000  Uiso   1.00
C146   C     0.39087   0.26438   0.65145   0.00000  Uiso   1.00
C147   C     0.47157   0.28146   0.62995   0.00000  Uiso   1.00
C148   C     0.21463   0.20111   0.51206   0.00000  Uiso   1.00
C149   C     0.16492   0.22498   0.43362   0.00000  Uiso   1.00
C150   C     0.13075   0.20541   0.29692   0.00000  Uiso   1.00
C151   C     0.06089   0.18835   0.07027   0.00000  Uiso   1.00
C152   C     0.28587   0.13904   0.56020   0.00000  Uiso   1.00
C153   C     0.28228   0.12963   0.70737   0.00000  Uiso   1.00
C154   C     0.29239   0.08516   0.78219   0.00000  Uiso   1.00
C155   C     0.28690   0.08409   0.91527   0.00000  Uiso   1.00
C156   C     0.32666   0.18118   0.58809   0.00000  Uiso   1.00
C157   C     0.37408   0.18006   0.56259   0.00000  Uiso   1.00
C158   C     0.40596   0.22239   0.59524   0.00000  Uiso   1.00
C159   C     0.22969   0.15919   0.45595   0.00000  Uiso   1.00
C160   C     0.19559   0.13959   0.31934   0.00000  Uiso   1.00
C161   C     0.14583   0.16342   0.24071   0.00000  Uiso   1.00
H162   H     0.24642   0.24885   0.70718   0.00000  Uiso   1.00
H163   H     0.25006   0.20299   0.93987   0.00000  Uiso   1.00
H164   H     0.33174   0.29787   0.72028   0.00000  Uiso   1.00
H165   H     0.15328   0.25741   0.47707   0.00000  Uiso   1.00
H166   H     0.26076   0.13367   0.17312   0.00000  Uiso   1.00
H167   H     0.43297   0.33375   0.71007   0.00000  Uiso   1.00
H168   H     0.05664   0.24843   0.19720   0.00000  Uiso   1.00
H169   H     0.29760   0.10640   0.51652   0.00000  Uiso   1.00
H170   H     0.30404   0.05273   0.73874   0.00000  Uiso   1.00
H171   H     0.38572   0.14761   0.51916   0.00000  Uiso   1.00
H172   H     0.20726   0.10715   0.27595   0.00000  Uiso   1.00
H173   H     0.30458   0.01171   0.00989   0.00000  Uiso   1.00
H174   H     0.47679   0.21179   0.54683   0.00000  Uiso   1.00
H175   H     0.10046   0.12647   0.03397   0.00000  Uiso   1.00
O176   O     0.28600   0.03996   0.24116   0.00000  Uiso   1.00
O177   O     0.51193   0.30245   0.63362   0.00000  Uiso   1.00
O178   O     0.01820   0.19051   0.96076   0.00000  Uiso   1.00
N179   N     0.27018   0.11233   0.10419   0.00000  Uiso   1.00
N180   N     0.43119   0.29939   0.67129   0.00000  Uiso   1.00
N181   N     0.07936   0.21963   0.19178   0.00000  Uiso   1.00
N182   N     0.29375   0.04671   0.01636   0.00000  Uiso   1.00
N183   N     0.45476   0.23376   0.58345   0.00000  Uiso   1.00
N184   N     0.10294   0.15400   0.10395   0.00000  Uiso   1.00
C185   C     0.22544   0.78011   0.03773   0.00000  Uiso   1.00
C186   C     0.23493   0.82659   0.13068   0.00000  Uiso   1.00
C187   C     0.23008   0.83052   0.26416   0.00000  Uiso   1.00
C188   C     0.24048   0.87624   0.33205   0.00000  Uiso   1.00
C189   C     0.25299   0.94227   0.48605   0.00000  Uiso   1.00
C190   C     0.27852   0.77156   0.01773   0.00000  Uiso   1.00
C191   C     0.31033   0.72921   0.05624   0.00000  Uiso   1.00
C192   C     0.35742   0.72860   0.02903   0.00000  Uiso   1.00
C193   C     0.43759   0.70918   0.00759   0.00000  Uiso   1.00
C194   C     0.18144   0.79304   0.88475   0.00000  Uiso   1.00
C195   C     0.13163   0.76874   0.81142   0.00000  Uiso   1.00
C196   C     0.09699   0.78621   0.67222   0.00000  Uiso   1.00
C197   C     0.02644   0.80014   0.44431   0.00000  Uiso   1.00
C198   C     0.25252   0.85432   0.92093   0.00000  Uiso   1.00
C199   C     0.24963   0.86690   0.06723   0.00000  Uiso   1.00
C200   C     0.26004   0.91262   0.13493   0.00000  Uiso   1.00
C201   C     0.25521   0.91662   0.26849   0.00000  Uiso   1.00
C202   C     0.29323   0.81186   0.95429   0.00000  Uiso   1.00
C203   C     0.34028   0.81131   0.92701   0.00000  Uiso   1.00
C204   C     0.37215   0.76898   0.96547   0.00000  Uiso   1.00
C205   C     0.19615   0.83335   0.82130   0.00000  Uiso   1.00
C206   C     0.16158   0.85085   0.68219   0.00000  Uiso   1.00
C207   C     0.11173   0.82659   0.60866   0.00000  Uiso   1.00
H208   H     0.21400   0.74873   0.08712   0.00000  Uiso   1.00
H209   H     0.21870   0.79931   0.31323   0.00000  Uiso   1.00
H210   H     0.29893   0.69802   0.10532   0.00000  Uiso   1.00
H211   H     0.12026   0.73755   0.86055   0.00000  Uiso   1.00
H212   H     0.23043   0.87317   0.53595   0.00000  Uiso   1.00
H213   H     0.39959   0.65958   0.09753   0.00000  Uiso   1.00
H214   H     0.02282   0.74294   0.58136   0.00000  Uiso   1.00
H215   H     0.26397   0.88570   0.87153   0.00000  Uiso   1.00
H216   H     0.27142   0.94381   0.08580   0.00000  Uiso   1.00
H217   H     0.35165   0.84251   0.87790   0.00000  Uiso   1.00
H218   H     0.17298   0.88204   0.63313   0.00000  Uiso   1.00
H219   H     0.27321   0.99045   0.35137   0.00000  Uiso   1.00
H220   H     0.44237   0.77685   0.91294   0.00000  Uiso   1.00
H221   H     0.06561   0.86022   0.39678   0.00000  Uiso   1.00
O222   O     0.25584   0.96756   0.58854   0.00000  Uiso   1.00
O223   O     0.47776   0.68733   0.01331   0.00000  Uiso   1.00
O224   O     0.98346   0.79670   0.33613   0.00000  Uiso   1.00
N225   N     0.23946   0.89280   0.46309   0.00000  Uiso   1.00
N226   N     0.39762   0.69311   0.05321   0.00000  Uiso   1.00
N227   N     0.04539   0.77104   0.57063   0.00000  Uiso   1.00
N228   N     0.26249   0.95590   0.36377   0.00000  Uiso   1.00
N229   N     0.42064   0.75621   0.95389   0.00000  Uiso   1.00
N230   N     0.06841   0.83414   0.47130   0.00000  Uiso   1.00
C231   C     0.25814   0.28379   0.16350   0.00000  Uiso   1.00
C232   C     0.26721   0.32846   0.26348   0.00000  Uiso   1.00
C233   C     0.26171   0.32946   0.39648   0.00000  Uiso   1.00
C234   C     0.27182   0.37391   0.47148   0.00000  Uiso   1.00
C235   C     0.28364   0.43689   0.63529   0.00000  Uiso   1.00
C236   C     0.31160   0.27691   0.14419   0.00000  Uiso   1.00
C237   C     0.34341   0.23456   0.17688   0.00000  Uiso   1.00
C238   C     0.39087   0.23562   0.15145   0.00000  Uiso   1.00
C239   C     0.47157   0.21854   0.12995   0.00000  Uiso   1.00
C240   C     0.21463   0.29889   0.01206   0.00000  Uiso   1.00
C241   C     0.16492   0.27502   0.93362   0.00000  Uiso   1.00
C242   C     0.13075   0.29459   0.79692   0.00000  Uiso   1.00
C243   C     0.06089   0.31165   0.57027   0.00000  Uiso   1.00
C244   C     0.28587   0.36096   0.06020   0.00000  Uiso   1.00
C245   C     0.28228   0.37037   0.20737   0.00000  Uiso   1.00
C246   C     0.29239   0.41484   0.28219   0.00000  Uiso   1.00
C247   C     0.28690   0.41591   0.41527   0.00000  Uiso   1.00
C248   C     0.32666   0.31882   0.08809   0.00000  Uiso   1.00
C249   C     0.37408   0.31994   0.06259   0.00000  Uiso   1.00
C250   C     0.40596   0.27761   0.09524   0.00000  Uiso   1.00
C251   C     0.22969   0.34081   0.95595   0.00000  Uiso   1.00
C252   C     0.19559   0.36041   0.81934   0.00000  Uiso   1.00
C253   C     0.14583   0.33658   0.74071   0.00000  Uiso   1.00
H254   H     0.24642   0.25115   0.20718   0.00000  Uiso   1.00
H255   H     0.25006   0.29701   0.43987   0.00000  Uiso   1.00
H256   H     0.33174   0.20213   0.22028   0.00000  Uiso   1.00
H257   H     0.15328   0.24259   0.97707   0.00000  Uiso   1.00
H258   H     0.26076   0.36633   0.67312   0.00000  Uiso   1.00
H259   H     0.43297   0.16625   0.21007   0.00000  Uiso   1.00
H260   H     0.05664   0.25157   0.69720   0.00000  Uiso   1.00
H261   H     0.29760   0.39360   0.01652   0.00000  Uiso   1.00
H262   H     0.30404   0.44727   0.23874   0.00000  Uiso   1.00
H263   H     0.38572   0.35239   0.01916   0.00000  Uiso   1.00
H264   H     0.20726   0.39285   0.77595   0.00000  Uiso   1.00
H265   H     0.30458   0.48829   0.50989   0.00000  Uiso   1.00
H266   H     0.47679   0.28821   0.04683   0.00000  Uiso   1.00
H267   H     0.10046   0.37353   0.53397   0.00000  Uiso   1.00
O268   O     0.28600   0.46004   0.74116   0.00000  Uiso   1.00
O269   O     0.51193   0.19755   0.13362   0.00000  Uiso   1.00
O270   O     0.01820   0.30949   0.46076   0.00000  Uiso   1.00
N271   N     0.27018   0.38767   0.60419   0.00000  Uiso   1.00
N272   N     0.43119   0.20061   0.17129   0.00000  Uiso   1.00
N273   N     0.07936   0.28037   0.69178   0.00000  Uiso   1.00
N274   N     0.29375   0.45329   0.51636   0.00000  Uiso   1.00
N275   N     0.45476   0.26624   0.08345   0.00000  Uiso   1.00
N276   N     0.10294   0.34600   0.60395   0.00000  Uiso   1.00
C277   C     0.77456   0.28011   0.46227   0.00000  Uiso   1.00
C278   C     0.76507   0.32659   0.36932   0.00000  Uiso   1.00
C279   C     0.76992   0.33052   0.23584   0.00000  Uiso   1.00
C280   C     0.75952   0.37624   0.16795   0.00000  Uiso   1.00
C281   C     0.74701   0.44227   0.01395   0.00000  Uiso   1.00
C282   C     0.72148   0.27156   0.48227   0.00000  Uiso   1.00
C283   C     0.68967   0.22921   0.44376   0.00000  Uiso   1.00
C284   C     0.64258   0.22860   0.47097   0.00000  Uiso   1.00
C285   C     0.56241   0.20918   0.49241   0.00000  Uiso   1.00
C286   C     0.81856   0.29304   0.61525   0.00000  Uiso   1.00
C287   C     0.86837   0.26874   0.68858   0.00000  Uiso   1.00
C288   C     0.90301   0.28621   0.82778   0.00000  Uiso   1.00
C289   C     0.97356   0.30014   0.05569   0.00000  Uiso   1.00
C290   C     0.74748   0.35432   0.57907   0.00000  Uiso   1.00
C291   C     0.75037   0.36690   0.43277   0.00000  Uiso   1.00
C292   C     0.73996   0.41262   0.36507   0.00000  Uiso   1.00
C293   C     0.74479   0.41662   0.23151   0.00000  Uiso   1.00
C294   C     0.70677   0.31186   0.54571   0.00000  Uiso   1.00
C295   C     0.65972   0.31131   0.57299   0.00000  Uiso   1.00
C296   C     0.62785   0.26898   0.53453   0.00000  Uiso   1.00
C297   C     0.80385   0.33335   0.67870   0.00000  Uiso   1.00
C298   C     0.83842   0.35085   0.81781   0.00000  Uiso   1.00
C299   C     0.88827   0.32659   0.89134   0.00000  Uiso   1.00
H300   H     0.78600   0.24873   0.41288   0.00000  Uiso   1.00
H301   H     0.78130   0.29931   0.18677   0.00000  Uiso   1.00
H302   H     0.70107   0.19802   0.39468   0.00000  Uiso   1.00
H303   H     0.87974   0.23755   0.63945   0.00000  Uiso   1.00
H304   H     0.76957   0.37317   0.96405   0.00000  Uiso   1.00
H305   H     0.60041   0.15958   0.40247   0.00000  Uiso   1.00
H306   H     0.97718   0.24294   0.91864   0.00000  Uiso   1.00
H307   H     0.73603   0.38570   0.62847   0.00000  Uiso   1.00
H308   H     0.72858   0.44381   0.41420   0.00000  Uiso   1.00
H309   H     0.64835   0.34251   0.62210   0.00000  Uiso   1.00
H310   H     0.82702   0.38204   0.86687   0.00000  Uiso   1.00
H311   H     0.72679   0.49045   0.14863   0.00000  Uiso   1.00
H312   H     0.55763   0.27685   0.58706   0.00000  Uiso   1.00
H313   H     0.93439   0.36022   0.10322   0.00000  Uiso   1.00
O314   O     0.74416   0.46756   0.91146   0.00000  Uiso   1.00
O315   O     0.52224   0.18733   0.48669   0.00000  Uiso   1.00
O316   O     0.01654   0.29670   0.16387   0.00000  Uiso   1.00
N317   N     0.76054   0.39280   0.03691   0.00000  Uiso   1.00
N318   N     0.60238   0.19311   0.44679   0.00000  Uiso   1.00
N319   N     0.95461   0.27104   0.92937   0.00000  Uiso   1.00
N320   N     0.73751   0.45590   0.13623   0.00000  Uiso   1.00
N321   N     0.57936   0.25621   0.54611   0.00000  Uiso   1.00
N322   N     0.93159   0.33414   0.02870   0.00000  Uiso   1.00
C323   C     0.74186   0.78379   0.33650   0.00000  Uiso   1.00
C324   C     0.73279   0.82846   0.23652   0.00000  Uiso   1.00
C325   C     0.73829   0.82946   0.10352   0.00000  Uiso   1.00
C326   C     0.72818   0.87391   0.02852   0.00000  Uiso   1.00
C327   C     0.71636   0.93689   0.86471   0.00000  Uiso   1.00
C328   C     0.68840   0.77691   0.35581   0.00000  Uiso   1.00
C329   C     0.65659   0.73456   0.32312   0.00000  Uiso   1.00
C330   C     0.60913   0.73562   0.34855   0.00000  Uiso   1.00
C331   C     0.52843   0.71854   0.37005   0.00000  Uiso   1.00
C332   C     0.78537   0.79889   0.48794   0.00000  Uiso   1.00
C333   C     0.83508   0.77502   0.56638   0.00000  Uiso   1.00
C334   C     0.86925   0.79459   0.70308   0.00000  Uiso   1.00
C335   C     0.93911   0.81165   0.92973   0.00000  Uiso   1.00
C336   C     0.71413   0.86096   0.43980   0.00000  Uiso   1.00
C337   C     0.71772   0.87037   0.29263   0.00000  Uiso   1.00
C338   C     0.70761   0.91484   0.21781   0.00000  Uiso   1.00
C339   C     0.71310   0.91591   0.08473   0.00000  Uiso   1.00
C340   C     0.67334   0.81882   0.41191   0.00000  Uiso   1.00
C341   C     0.62592   0.81994   0.43741   0.00000  Uiso   1.00
C342   C     0.59404   0.77761   0.40476   0.00000  Uiso   1.00
C343   C     0.77031   0.84081   0.54405   0.00000  Uiso   1.00
C344   C     0.80441   0.86041   0.68066   0.00000  Uiso   1.00
C345   C     0.85417   0.83658   0.75929   0.00000  Uiso   1.00
H346   H     0.75358   0.75115   0.29282   0.00000  Uiso   1.00
H347   H     0.74994   0.79701   0.06013   0.00000  Uiso   1.00
H348   H     0.66826   0.70213   0.27972   0.00000  Uiso   1.00
H349   H     0.84672   0.74259   0.52293   0.00000  Uiso   1.00
H350   H     0.73924   0.86633   0.82688   0.00000  Uiso   1.00
H351   H     0.56703   0.66625   0.28993   0.00000  Uiso   1.00
H352   H     0.94336   0.75157   0.80280   0.00000  Uiso   1.00
H353   H     0.70240   0.89360   0.48348   0.00000  Uiso   1.00
H354   H     0.69596   0.94727   0.26126   0.00000  Uiso   1.00
H355   H     0.61428   0.85239   0.48084   0.00000  Uiso   1.00
H356   H     0.79274   0.89285   0.72405   0.00000  Uiso   1.00
H357   H     0.69542   0.98829   0.99011   0.00000  Uiso   1.00
H358   H     0.52321   0.78821   0.45317   0.00000  Uiso   1.00
H359   H     0.89954   0.87353   0.96603   0.00000  Uiso   1.00
O360   O     0.71400   0.96004   0.75884   0.00000  Uiso   1.00
O361   O     0.48807   0.69755   0.36638   0.00000  Uiso   1.00
O362   O     0.98180   0.80949   0.03924   0.00000  Uiso   1.00
N363   N     0.72982   0.88767   0.89581   0.00000  Uiso   1.00
N364   N     0.56881   0.70061   0.32871   0.00000  Uiso   1.00
N365   N     0.92064   0.78037   0.80822   0.00000  Uiso   1.00
N366   N     0.70625   0.95329   0.98364   0.00000  Uiso   1.00
N367   N     0.54524   0.76624   0.41655   0.00000  Uiso   1.00
N368   N     0.89706   0.84600   0.89605   0.00000  Uiso   1.00
