data_job_06269
_audit_creation_date              2018-12-19
_audit_creation_method            'Materials Studio'
_symmetry_space_group_name_H-M    'P1'
_symmetry_Int_Tables_number       1
_symmetry_cell_setting            triclinic
loop_
_symmetry_equiv_pos_as_xyz
  x,y,z
_cell_length_a                    16.4766
_cell_length_b                    16.1373
_cell_length_c                    15.3585
_cell_angle_alpha                 93.8946
_cell_angle_beta                  94.0990
_cell_angle_gamma                 93.0908
loop_
_atom_site_label
_atom_site_type_symbol
_atom_site_fract_x
_atom_site_fract_y
_atom_site_fract_z
_atom_site_U_iso_or_equiv
_atom_site_adp_type
_atom_site_occupancy
C1     C     0.72383   0.35784   0.87620   0.00000  Uiso   1.00
C2     C     0.64653   0.30421   0.88662   0.00000  Uiso   1.00
C3     C     0.64254   0.23126   0.92944   0.00000  Uiso   1.00
C4     C     0.56603   0.19133   0.93181   0.00000  Uiso   1.00
C5     C     0.45666   0.10318   0.95389   0.00000  Uiso   1.00
C6     C     0.72798   0.36480   0.77808   0.00000  Uiso   1.00
C7     C     0.79246   0.34280   0.72964   0.00000  Uiso   1.00
C8     C     0.78452   0.35389   0.64064   0.00000  Uiso   1.00
C9     C     0.80161   0.35987   0.49422   0.00000  Uiso   1.00
C10    C     0.70873   0.44480   0.91460   0.00000  Uiso   1.00
C11    C     0.75706   0.49007   0.98095   0.00000  Uiso   1.00
C12    C     0.73292   0.56852   0.00688   0.00000  Uiso   1.00
C13    C     0.72014   0.69870   0.07244   0.00000  Uiso   1.00
C14    C     0.59506   0.41666   0.80426   0.00000  Uiso   1.00
C15    C     0.57659   0.33616   0.84754   0.00000  Uiso   1.00
C16    C     0.50007   0.29634   0.84985   0.00000  Uiso   1.00
C17    C     0.49597   0.22334   0.89267   0.00000  Uiso   1.00
C18    C     0.65804   0.39675   0.73900   0.00000  Uiso   1.00
C19    C     0.65000   0.40788   0.65005   0.00000  Uiso   1.00
C20    C     0.71445   0.38590   0.60150   0.00000  Uiso   1.00
C21    C     0.63879   0.47675   0.87553   0.00000  Uiso   1.00
C22    C     0.61459   0.55515   0.90136   0.00000  Uiso   1.00
C23    C     0.66285   0.60053   0.96773   0.00000  Uiso   1.00
H24    H     0.77828   0.33296   0.90662   0.00000  Uiso   1.00
H25    H     0.69668   0.20655   0.95966   0.00000  Uiso   1.00
H26    H     0.84658   0.31809   0.75990   0.00000  Uiso   1.00
H27    H     0.81117   0.46533   0.01117   0.00000  Uiso   1.00
H28    H     0.57537   0.08047   0.00121   0.00000  Uiso   1.00
H29    H     0.89146   0.31568   0.58001   0.00000  Uiso   1.00
H30    H     0.81680   0.62617   0.10986   0.00000  Uiso   1.00
H31    H     0.54061   0.44154   0.77384   0.00000  Uiso   1.00
H32    H     0.44596   0.32108   0.81960   0.00000  Uiso   1.00
H33    H     0.59587   0.43262   0.61984   0.00000  Uiso   1.00
H34    H     0.56046   0.57986   0.87111   0.00000  Uiso   1.00
H35    H     0.37188   0.17342   0.88753   0.00000  Uiso   1.00
H36    H     0.68797   0.40864   0.46633   0.00000  Uiso   1.00
H37    H     0.61331   0.71912   0.99618   0.00000  Uiso   1.00
O38    O     0.41565   0.04573   0.97685   0.00000  Uiso   1.00
O39    O     0.83036   0.35433   0.42426   0.00000  Uiso   1.00
O40    O     0.73240   0.76168   0.11940   0.00000  Uiso   1.00
N41    N     0.54046   0.11889   0.96819   0.00000  Uiso   1.00
N42    N     0.83599   0.33878   0.57439   0.00000  Uiso   1.00
N43    N     0.76619   0.62907   0.06974   0.00000  Uiso   1.00
N44    N     0.43097   0.16890   0.90702   0.00000  Uiso   1.00
N45    N     0.72649   0.38880   0.51322   0.00000  Uiso   1.00
N46    N     0.65670   0.67909   0.00857   0.00000  Uiso   1.00
C47    C     0.87243   0.72387   0.35642   0.00000  Uiso   1.00
C48    C     0.88344   0.64471   0.29949   0.00000  Uiso   1.00
C49    C     0.92380   0.64018   0.22319   0.00000  Uiso   1.00
C50    C     0.92722   0.56190   0.18058   0.00000  Uiso   1.00
C51    C     0.94971   0.44981   0.08719   0.00000  Uiso   1.00
C52    C     0.78083   0.72843   0.36291   0.00000  Uiso   1.00
C53    C     0.73493   0.79431   0.33994   0.00000  Uiso   1.00
C54    C     0.65198   0.78652   0.35073   0.00000  Uiso   1.00
C55    C     0.51518   0.80444   0.35587   0.00000  Uiso   1.00
C56    C     0.90799   0.70873   0.44799   0.00000  Uiso   1.00
C57    C     0.96899   0.75805   0.49657   0.00000  Uiso   1.00
C58    C     0.99308   0.73368   0.57901   0.00000  Uiso   1.00
C59    C     0.05372   0.72100   0.71625   0.00000  Uiso   1.00
C60    C     0.80674   0.59291   0.41644   0.00000  Uiso   1.00
C61    C     0.84776   0.57357   0.33209   0.00000  Uiso   1.00
C62    C     0.85113   0.49529   0.28959   0.00000  Uiso   1.00
C63    C     0.89149   0.49064   0.21324   0.00000  Uiso   1.00
C64    C     0.74515   0.65730   0.39551   0.00000  Uiso   1.00
C65    C     0.66226   0.64942   0.40634   0.00000  Uiso   1.00
C66    C     0.61624   0.71526   0.38339   0.00000  Uiso   1.00
C67    C     0.87232   0.63759   0.48059   0.00000  Uiso   1.00
C68    C     0.89632   0.61315   0.56297   0.00000  Uiso   1.00
C69    C     0.95734   0.66242   0.61167   0.00000  Uiso   1.00
H70    H     0.90019   0.77925   0.33104   0.00000  Uiso   1.00
H71    H     0.95139   0.69524   0.19798   0.00000  Uiso   1.00
H72    H     0.76255   0.84935   0.31472   0.00000  Uiso   1.00
H73    H     0.99658   0.81309   0.47132   0.00000  Uiso   1.00
H74    H     0.99239   0.57073   0.06481   0.00000  Uiso   1.00
H75    H     0.59422   0.89570   0.31100   0.00000  Uiso   1.00
H76    H     0.08771   0.81923   0.64123   0.00000  Uiso   1.00
H77    H     0.77897   0.53753   0.44182   0.00000  Uiso   1.00
H78    H     0.82351   0.44025   0.31483   0.00000  Uiso   1.00
H79    H     0.63467   0.59436   0.43158   0.00000  Uiso   1.00
H80    H     0.86870   0.55810   0.58818   0.00000  Uiso   1.00
H81    H     0.88860   0.36378   0.15965   0.00000  Uiso   1.00
H82    H     0.49043   0.68874   0.40584   0.00000  Uiso   1.00
H83    H     0.98391   0.61227   0.73607   0.00000  Uiso   1.00
O84    O     0.97196   0.40763   0.02667   0.00000  Uiso   1.00
O85    O     0.44958   0.83397   0.34969   0.00000  Uiso   1.00
O86    O     0.09703   0.73365   0.78293   0.00000  Uiso   1.00
N87    N     0.96187   0.53538   0.10456   0.00000  Uiso   1.00
N88    N     0.58959   0.83919   0.33473   0.00000  Uiso   1.00
N89    N     0.05095   0.76771   0.64347   0.00000  Uiso   1.00
N90    N     0.90602   0.42401   0.15560   0.00000  Uiso   1.00
N91    N     0.53375   0.72783   0.38576   0.00000  Uiso   1.00
N92    N     0.99510   0.65635   0.69451   0.00000  Uiso   1.00
C93    C     0.35856   0.87380   0.72509   0.00000  Uiso   1.00
C94    C     0.30573   0.88486   0.64152   0.00000  Uiso   1.00
C95    C     0.23406   0.92627   0.63644   0.00000  Uiso   1.00
C96    C     0.19468   0.92955   0.55386   0.00000  Uiso   1.00
C97    C     0.10788   0.95230   0.43547   0.00000  Uiso   1.00
C98    C     0.36580   0.78030   0.72913   0.00000  Uiso   1.00
C99    C     0.34465   0.73380   0.79773   0.00000  Uiso   1.00
C100   C     0.35585   0.64907   0.78890   0.00000  Uiso   1.00
C101   C     0.36236   0.50950   0.80656   0.00000  Uiso   1.00
C102   C     0.44355   0.90975   0.71031   0.00000  Uiso   1.00
C103   C     0.48780   0.97208   0.76310   0.00000  Uiso   1.00
C104   C     0.56448   0.99632   0.73844   0.00000  Uiso   1.00
C105   C     0.69172   0.05774   0.72688   0.00000  Uiso   1.00
C106   C     0.41607   0.80600   0.58746   0.00000  Uiso   1.00
C107   C     0.33697   0.84803   0.56676   0.00000  Uiso   1.00
C108   C     0.29769   0.85126   0.48416   0.00000  Uiso   1.00
C109   C     0.22598   0.89267   0.47897   0.00000  Uiso   1.00
C110   C     0.39703   0.74347   0.65437   0.00000  Uiso   1.00
C111   C     0.40827   0.65879   0.64545   0.00000  Uiso   1.00
C112   C     0.38714   0.61217   0.71401   0.00000  Uiso   1.00
C113   C     0.47479   0.87293   0.63555   0.00000  Uiso   1.00
C114   C     0.55142   0.89707   0.61081   0.00000  Uiso   1.00
C115   C     0.59577   0.95943   0.66355   0.00000  Uiso   1.00
H116   H     0.33424   0.90246   0.78330   0.00000  Uiso   1.00
H117   H     0.20990   0.95476   0.69432   0.00000  Uiso   1.00
H118   H     0.32048   0.76232   0.85558   0.00000  Uiso   1.00
H119   H     0.46361   0.00056   0.82095   0.00000  Uiso   1.00
H120   H     0.08582   0.99647   0.56270   0.00000  Uiso   1.00
H121   H     0.31900   0.59071   0.90274   0.00000  Uiso   1.00
H122   H     0.62081   0.09309   0.82972   0.00000  Uiso   1.00
H123   H     0.44039   0.77732   0.52925   0.00000  Uiso   1.00
H124   H     0.32188   0.82275   0.42632   0.00000  Uiso   1.00
H125   H     0.43245   0.63031   0.58759   0.00000  Uiso   1.00
H126   H     0.57558   0.86856   0.55296   0.00000  Uiso   1.00
H127   H     0.17669   0.88932   0.34518   0.00000  Uiso   1.00
H128   H     0.40988   0.48357   0.68523   0.00000  Uiso   1.00
H129   H     0.71169   0.98595   0.61221   0.00000  Uiso   1.00
O130   O     0.05136   0.97501   0.39082   0.00000  Uiso   1.00
O131   O     0.35731   0.44268   0.83695   0.00000  Uiso   1.00
O132   O     0.75327   0.10180   0.74115   0.00000  Uiso   1.00
N133   N     0.12348   0.96503   0.52563   0.00000  Uiso   1.00
N134   N     0.34148   0.58567   0.84354   0.00000  Uiso   1.00
N135   N     0.62365   0.05534   0.77529   0.00000  Uiso   1.00
N136   N     0.17238   0.90738   0.40858   0.00000  Uiso   1.00
N137   N     0.39038   0.52802   0.72650   0.00000  Uiso   1.00
N138   N     0.67255   0.99769   0.65825   0.00000  Uiso   1.00
C139   C     0.27617   0.64216   0.12380   0.00000  Uiso   1.00
C140   C     0.35347   0.69579   0.11338   0.00000  Uiso   1.00
C141   C     0.35746   0.76874   0.07056   0.00000  Uiso   1.00
C142   C     0.43397   0.80867   0.06819   0.00000  Uiso   1.00
C143   C     0.54334   0.89682   0.04611   0.00000  Uiso   1.00
C144   C     0.27202   0.63520   0.22192   0.00000  Uiso   1.00
C145   C     0.20754   0.65720   0.27036   0.00000  Uiso   1.00
C146   C     0.21548   0.64611   0.35936   0.00000  Uiso   1.00
C147   C     0.19839   0.64013   0.50578   0.00000  Uiso   1.00
C148   C     0.29127   0.55520   0.08540   0.00000  Uiso   1.00
C149   C     0.24295   0.50993   0.01905   0.00000  Uiso   1.00
C150   C     0.26708   0.43148   0.99312   0.00000  Uiso   1.00
C151   C     0.27986   0.30130   0.92756   0.00000  Uiso   1.00
C152   C     0.40494   0.58334   0.19574   0.00000  Uiso   1.00
C153   C     0.42341   0.66384   0.15246   0.00000  Uiso   1.00
C154   C     0.49993   0.70366   0.15015   0.00000  Uiso   1.00
C155   C     0.50403   0.77666   0.10733   0.00000  Uiso   1.00
C156   C     0.34196   0.60325   0.26100   0.00000  Uiso   1.00
C157   C     0.35000   0.59212   0.34995   0.00000  Uiso   1.00
C158   C     0.28555   0.61410   0.39850   0.00000  Uiso   1.00
C159   C     0.36121   0.52325   0.12447   0.00000  Uiso   1.00
C160   C     0.38541   0.44485   0.09864   0.00000  Uiso   1.00
C161   C     0.33715   0.39947   0.03227   0.00000  Uiso   1.00
H162   H     0.22172   0.66704   0.09338   0.00000  Uiso   1.00
H163   H     0.30332   0.79345   0.04034   0.00000  Uiso   1.00
H164   H     0.15342   0.68191   0.24010   0.00000  Uiso   1.00
H165   H     0.18883   0.53467   0.98883   0.00000  Uiso   1.00
H166   H     0.42463   0.91953   0.99879   0.00000  Uiso   1.00
H167   H     0.10854   0.68432   0.41999   0.00000  Uiso   1.00
H168   H     0.18320   0.37383   0.89014   0.00000  Uiso   1.00
H169   H     0.45939   0.55846   0.22616   0.00000  Uiso   1.00
H170   H     0.55404   0.67892   0.18040   0.00000  Uiso   1.00
H171   H     0.40413   0.56738   0.38016   0.00000  Uiso   1.00
H172   H     0.43954   0.42014   0.12889   0.00000  Uiso   1.00
H173   H     0.62812   0.82658   0.11247   0.00000  Uiso   1.00
H174   H     0.31203   0.59136   0.53367   0.00000  Uiso   1.00
H175   H     0.38669   0.28088   0.00382   0.00000  Uiso   1.00
O176   O     0.58435   0.95427   0.02315   0.00000  Uiso   1.00
O177   O     0.16964   0.64567   0.57574   0.00000  Uiso   1.00
O178   O     0.26760   0.23832   0.88060   0.00000  Uiso   1.00
N179   N     0.45954   0.88111   0.03181   0.00000  Uiso   1.00
N180   N     0.16401   0.66122   0.42561   0.00000  Uiso   1.00
N181   N     0.23381   0.37093   0.93026   0.00000  Uiso   1.00
N182   N     0.56903   0.83110   0.09298   0.00000  Uiso   1.00
N183   N     0.27351   0.61120   0.48678   0.00000  Uiso   1.00
N184   N     0.34330   0.32091   0.99143   0.00000  Uiso   1.00
C185   C     0.12757   0.27613   0.64358   0.00000  Uiso   1.00
C186   C     0.11656   0.35529   0.70051   0.00000  Uiso   1.00
C187   C     0.07620   0.35982   0.77681   0.00000  Uiso   1.00
C188   C     0.07278   0.43810   0.81942   0.00000  Uiso   1.00
C189   C     0.05029   0.55019   0.91281   0.00000  Uiso   1.00
C190   C     0.21917   0.27157   0.63709   0.00000  Uiso   1.00
C191   C     0.26507   0.20569   0.66006   0.00000  Uiso   1.00
C192   C     0.34802   0.21348   0.64927   0.00000  Uiso   1.00
C193   C     0.48482   0.19556   0.64413   0.00000  Uiso   1.00
C194   C     0.09201   0.29127   0.55201   0.00000  Uiso   1.00
C195   C     0.03101   0.24195   0.50343   0.00000  Uiso   1.00
C196   C     0.00692   0.26632   0.42099   0.00000  Uiso   1.00
C197   C     0.94628   0.27900   0.28375   0.00000  Uiso   1.00
C198   C     0.19326   0.40709   0.58356   0.00000  Uiso   1.00
C199   C     0.15224   0.42643   0.66791   0.00000  Uiso   1.00
C200   C     0.14887   0.50472   0.71041   0.00000  Uiso   1.00
C201   C     0.10851   0.50936   0.78676   0.00000  Uiso   1.00
C202   C     0.25485   0.34270   0.60449   0.00000  Uiso   1.00
C203   C     0.33774   0.35058   0.59366   0.00000  Uiso   1.00
C204   C     0.38376   0.28474   0.61661   0.00000  Uiso   1.00
C205   C     0.12768   0.36241   0.51941   0.00000  Uiso   1.00
C206   C     0.10368   0.38685   0.43703   0.00000  Uiso   1.00
C207   C     0.04266   0.33758   0.38833   0.00000  Uiso   1.00
H208   H     0.09981   0.22075   0.66896   0.00000  Uiso   1.00
H209   H     0.04861   0.30476   0.80202   0.00000  Uiso   1.00
H210   H     0.23745   0.15065   0.68528   0.00000  Uiso   1.00
H211   H     0.00342   0.18691   0.52868   0.00000  Uiso   1.00
H212   H     0.00761   0.42927   0.93519   0.00000  Uiso   1.00
H213   H     0.40578   0.10430   0.68900   0.00000  Uiso   1.00
H214   H     0.91229   0.18077   0.35877   0.00000  Uiso   1.00
H215   H     0.22103   0.46247   0.55818   0.00000  Uiso   1.00
H216   H     0.17649   0.55975   0.68517   0.00000  Uiso   1.00
H217   H     0.36533   0.40564   0.56842   0.00000  Uiso   1.00
H218   H     0.13130   0.44190   0.41182   0.00000  Uiso   1.00
H219   H     0.11140   0.63622   0.84035   0.00000  Uiso   1.00
H220   H     0.50957   0.31126   0.59416   0.00000  Uiso   1.00
H221   H     0.01609   0.38773   0.26393   0.00000  Uiso   1.00
O222   O     0.02804   0.59237   0.97333   0.00000  Uiso   1.00
O223   O     0.55042   0.16603   0.65031   0.00000  Uiso   1.00
O224   O     0.90297   0.26635   0.21707   0.00000  Uiso   1.00
N225   N     0.03813   0.46462   0.89544   0.00000  Uiso   1.00
N226   N     0.41041   0.16081   0.66527   0.00000  Uiso   1.00
N227   N     0.94905   0.23229   0.35653   0.00000  Uiso   1.00
N228   N     0.09399   0.57599   0.84440   0.00000  Uiso   1.00
N229   N     0.46625   0.27217   0.61424   0.00000  Uiso   1.00
N230   N     0.00490   0.34365   0.30549   0.00000  Uiso   1.00
C231   C     0.64144   0.12621   0.27491   0.00000  Uiso   1.00
C232   C     0.69427   0.11514   0.35848   0.00000  Uiso   1.00
C233   C     0.76594   0.07373   0.36356   0.00000  Uiso   1.00
C234   C     0.80532   0.07045   0.44614   0.00000  Uiso   1.00
C235   C     0.89212   0.04770   0.56453   0.00000  Uiso   1.00
C236   C     0.63420   0.21970   0.27087   0.00000  Uiso   1.00
C237   C     0.65535   0.26620   0.20227   0.00000  Uiso   1.00
C238   C     0.64415   0.35093   0.21110   0.00000  Uiso   1.00
C239   C     0.63764   0.49050   0.19344   0.00000  Uiso   1.00
C240   C     0.55645   0.09025   0.28969   0.00000  Uiso   1.00
C241   C     0.51220   0.02792   0.23690   0.00000  Uiso   1.00
C242   C     0.43552   0.00368   0.26156   0.00000  Uiso   1.00
C243   C     0.30828   0.94226   0.27312   0.00000  Uiso   1.00
C244   C     0.58393   0.19400   0.41255   0.00000  Uiso   1.00
C245   C     0.66303   0.15197   0.43324   0.00000  Uiso   1.00
C246   C     0.70231   0.14874   0.51584   0.00000  Uiso   1.00
C247   C     0.77402   0.10733   0.52103   0.00000  Uiso   1.00
C248   C     0.60297   0.25653   0.34563   0.00000  Uiso   1.00
C249   C     0.59173   0.34121   0.35455   0.00000  Uiso   1.00
C250   C     0.61286   0.38783   0.28599   0.00000  Uiso   1.00
C251   C     0.52521   0.12707   0.36445   0.00000  Uiso   1.00
C252   C     0.44858   0.10293   0.38919   0.00000  Uiso   1.00
C253   C     0.40423   0.04057   0.33645   0.00000  Uiso   1.00
H254   H     0.66576   0.09754   0.21670   0.00000  Uiso   1.00
H255   H     0.79010   0.04524   0.30568   0.00000  Uiso   1.00
H256   H     0.67952   0.23768   0.14442   0.00000  Uiso   1.00
H257   H     0.53640   0.99944   0.17905   0.00000  Uiso   1.00
H258   H     0.91418   0.00353   0.43730   0.00000  Uiso   1.00
H259   H     0.68100   0.40929   0.09726   0.00000  Uiso   1.00
H260   H     0.37919   0.90691   0.17028   0.00000  Uiso   1.00
H261   H     0.55961   0.22268   0.47075   0.00000  Uiso   1.00
H262   H     0.67812   0.17725   0.57368   0.00000  Uiso   1.00
H263   H     0.56755   0.36969   0.41241   0.00000  Uiso   1.00
H264   H     0.42443   0.13144   0.44704   0.00000  Uiso   1.00
H265   H     0.82331   0.11068   0.65482   0.00000  Uiso   1.00
H266   H     0.59012   0.51643   0.31477   0.00000  Uiso   1.00
H267   H     0.28831   0.01405   0.38779   0.00000  Uiso   1.00
O268   O     0.94864   0.02499   0.60918   0.00000  Uiso   1.00
O269   O     0.64269   0.55732   0.16305   0.00000  Uiso   1.00
O270   O     0.24673   0.89820   0.25885   0.00000  Uiso   1.00
N271   N     0.87652   0.03497   0.47437   0.00000  Uiso   1.00
N272   N     0.65852   0.41433   0.15646   0.00000  Uiso   1.00
N273   N     0.37635   0.94466   0.22471   0.00000  Uiso   1.00
N274   N     0.82762   0.09262   0.59142   0.00000  Uiso   1.00
N275   N     0.60962   0.47198   0.27350   0.00000  Uiso   1.00
N276   N     0.32745   0.00231   0.34175   0.00000  Uiso   1.00
