data_job_05767
_audit_creation_date              2018-12-19
_audit_creation_method            'Materials Studio'
_symmetry_space_group_name_H-M    'P1'
_symmetry_Int_Tables_number       1
_symmetry_cell_setting            triclinic
loop_
_symmetry_equiv_pos_as_xyz
  x,y,z
_cell_length_a                    26.2242
_cell_length_b                    21.2336
_cell_length_c                    12.2849
_cell_angle_alpha                 90.0000
_cell_angle_beta                  108.8472
_cell_angle_gamma                 90.0000
loop_
_atom_site_label
_atom_site_type_symbol
_atom_site_fract_x
_atom_site_fract_y
_atom_site_fract_z
_atom_site_U_iso_or_equiv
_atom_site_adp_type
_atom_site_occupancy
C1     C     0.78986   0.96940   0.88185   0.00000  Uiso   1.00
C2     C     0.84453   0.99936   0.94259   0.00000  Uiso   1.00
C3     C     0.85674   0.06289   0.94133   0.00000  Uiso   1.00
C4     C     0.90909   0.08093   0.00226   0.00000  Uiso   1.00
C5     C     0.98809   0.13413   0.08740   0.00000  Uiso   1.00
C6     C     0.80001   0.91843   0.80383   0.00000  Uiso   1.00
C7     C     0.77480   0.91392   0.68591   0.00000  Uiso   1.00
C8     C     0.78968   0.86382   0.63004   0.00000  Uiso   1.00
C9     C     0.79955   0.79137   0.49977   0.00000  Uiso   1.00
C10    C     0.77387   0.93493   0.97481   0.00000  Uiso   1.00
C11    C     0.72666   0.94427   0.00062   0.00000  Uiso   1.00
C12    C     0.71951   0.90805   0.08868   0.00000  Uiso   1.00
C13    C     0.68878   0.86120   0.22388   0.00000  Uiso   1.00
C14    C     0.86110   0.88845   0.99230   0.00000  Uiso   1.00
C15    C     0.88322   0.95539   0.00258   0.00000  Uiso   1.00
C16    C     0.93556   0.97334   0.06353   0.00000  Uiso   1.00
C17    C     0.94786   0.03688   0.06236   0.00000  Uiso   1.00
C18    C     0.83871   0.87447   0.86382   0.00000  Uiso   1.00
C19    C     0.85362   0.82436   0.80811   0.00000  Uiso   1.00
C20    C     0.82844   0.81978   0.69014   0.00000  Uiso   1.00
C21    C     0.81256   0.89096   0.03480   0.00000  Uiso   1.00
C22    C     0.80548   0.85472   0.12283   0.00000  Uiso   1.00
C23    C     0.75828   0.86400   0.14878   0.00000  Uiso   1.00
H24    H     0.75973   0.00362   0.83514   0.00000  Uiso   1.00
H25    H     0.82679   0.09690   0.89488   0.00000  Uiso   1.00
H26    H     0.74486   0.94795   0.63951   0.00000  Uiso   1.00
H27    H     0.69673   0.97829   0.95418   0.00000  Uiso   1.00
H28    H     0.91820   0.18092   0.98754   0.00000  Uiso   1.00
H29    H     0.74543   0.86683   0.44908   0.00000  Uiso   1.00
H30    H     0.64393   0.93083   0.11262   0.00000  Uiso   1.00
H31    H     0.89123   0.85422   0.03901   0.00000  Uiso   1.00
H32    H     0.96550   0.93930   0.10995   0.00000  Uiso   1.00
H33    H     0.88357   0.79035   0.85457   0.00000  Uiso   1.00
H34    H     0.83544   0.82070   0.16924   0.00000  Uiso   1.00
H35    H     0.03078   0.05301   0.16209   0.00000  Uiso   1.00
H36    H     0.85801   0.73892   0.62363   0.00000  Uiso   1.00
H37    H     0.75651   0.80291   0.28717   0.00000  Uiso   1.00
O38    O     0.02098   0.17563   0.11777   0.00000  Uiso   1.00
O39    O     0.79430   0.76355   0.41133   0.00000  Uiso   1.00
O40    O     0.66114   0.84751   0.28188   0.00000  Uiso   1.00
N41    N     0.93450   0.13914   0.01891   0.00000  Uiso   1.00
N42    N     0.77297   0.84550   0.51547   0.00000  Uiso   1.00
N43    N     0.67808   0.90531   0.13581   0.00000  Uiso   1.00
N44    N     0.99508   0.07031   0.11283   0.00000  Uiso   1.00
N45    N     0.83356   0.77667   0.60940   0.00000  Uiso   1.00
N46    N     0.73866   0.83648   0.22973   0.00000  Uiso   1.00
C47    C     0.28986   0.46940   0.88185   0.00000  Uiso   1.00
C48    C     0.34453   0.49936   0.94259   0.00000  Uiso   1.00
C49    C     0.35674   0.56289   0.94133   0.00000  Uiso   1.00
C50    C     0.40909   0.58093   0.00226   0.00000  Uiso   1.00
C51    C     0.48809   0.63413   0.08740   0.00000  Uiso   1.00
C52    C     0.30001   0.41843   0.80383   0.00000  Uiso   1.00
C53    C     0.27480   0.41392   0.68591   0.00000  Uiso   1.00
C54    C     0.28968   0.36382   0.63004   0.00000  Uiso   1.00
C55    C     0.29955   0.29137   0.49977   0.00000  Uiso   1.00
C56    C     0.27387   0.43493   0.97481   0.00000  Uiso   1.00
C57    C     0.22666   0.44427   0.00062   0.00000  Uiso   1.00
C58    C     0.21951   0.40805   0.08868   0.00000  Uiso   1.00
C59    C     0.18878   0.36120   0.22388   0.00000  Uiso   1.00
C60    C     0.36110   0.38845   0.99230   0.00000  Uiso   1.00
C61    C     0.38322   0.45539   0.00258   0.00000  Uiso   1.00
C62    C     0.43556   0.47334   0.06353   0.00000  Uiso   1.00
C63    C     0.44786   0.53688   0.06236   0.00000  Uiso   1.00
C64    C     0.33871   0.37447   0.86382   0.00000  Uiso   1.00
C65    C     0.35362   0.32436   0.80811   0.00000  Uiso   1.00
C66    C     0.32844   0.31978   0.69014   0.00000  Uiso   1.00
C67    C     0.31256   0.39096   0.03480   0.00000  Uiso   1.00
C68    C     0.30548   0.35472   0.12283   0.00000  Uiso   1.00
C69    C     0.25828   0.36400   0.14878   0.00000  Uiso   1.00
H70    H     0.25973   0.50362   0.83514   0.00000  Uiso   1.00
H71    H     0.32679   0.59690   0.89488   0.00000  Uiso   1.00
H72    H     0.24486   0.44795   0.63951   0.00000  Uiso   1.00
H73    H     0.19673   0.47829   0.95418   0.00000  Uiso   1.00
H74    H     0.41820   0.68092   0.98754   0.00000  Uiso   1.00
H75    H     0.24543   0.36683   0.44908   0.00000  Uiso   1.00
H76    H     0.14393   0.43083   0.11262   0.00000  Uiso   1.00
H77    H     0.39123   0.35422   0.03901   0.00000  Uiso   1.00
H78    H     0.46550   0.43930   0.10995   0.00000  Uiso   1.00
H79    H     0.38357   0.29035   0.85457   0.00000  Uiso   1.00
H80    H     0.33544   0.32070   0.16924   0.00000  Uiso   1.00
H81    H     0.53078   0.55301   0.16209   0.00000  Uiso   1.00
H82    H     0.35801   0.23892   0.62363   0.00000  Uiso   1.00
H83    H     0.25651   0.30291   0.28717   0.00000  Uiso   1.00
O84    O     0.52098   0.67563   0.11777   0.00000  Uiso   1.00
O85    O     0.29430   0.26355   0.41133   0.00000  Uiso   1.00
O86    O     0.16114   0.34751   0.28188   0.00000  Uiso   1.00
N87    N     0.43450   0.63914   0.01891   0.00000  Uiso   1.00
N88    N     0.27297   0.34550   0.51547   0.00000  Uiso   1.00
N89    N     0.17808   0.40531   0.13581   0.00000  Uiso   1.00
N90    N     0.49508   0.57031   0.11283   0.00000  Uiso   1.00
N91    N     0.33356   0.27667   0.60940   0.00000  Uiso   1.00
N92    N     0.23866   0.33648   0.22973   0.00000  Uiso   1.00
C93    C     0.21014   0.96940   0.61815   0.00000  Uiso   1.00
C94    C     0.15547   0.99936   0.55741   0.00000  Uiso   1.00
C95    C     0.14326   0.06289   0.55867   0.00000  Uiso   1.00
C96    C     0.09091   0.08093   0.49774   0.00000  Uiso   1.00
C97    C     0.01191   0.13413   0.41260   0.00000  Uiso   1.00
C98    C     0.19999   0.91843   0.69617   0.00000  Uiso   1.00
C99    C     0.22520   0.91392   0.81409   0.00000  Uiso   1.00
C100   C     0.21032   0.86382   0.86996   0.00000  Uiso   1.00
C101   C     0.20045   0.79137   0.00023   0.00000  Uiso   1.00
C102   C     0.22613   0.93493   0.52519   0.00000  Uiso   1.00
C103   C     0.27334   0.94427   0.49938   0.00000  Uiso   1.00
C104   C     0.28049   0.90805   0.41132   0.00000  Uiso   1.00
C105   C     0.31122   0.86120   0.27612   0.00000  Uiso   1.00
C106   C     0.13890   0.88845   0.50770   0.00000  Uiso   1.00
C107   C     0.11678   0.95539   0.49742   0.00000  Uiso   1.00
C108   C     0.06444   0.97334   0.43647   0.00000  Uiso   1.00
C109   C     0.05214   0.03688   0.43764   0.00000  Uiso   1.00
C110   C     0.16129   0.87447   0.63618   0.00000  Uiso   1.00
C111   C     0.14638   0.82436   0.69189   0.00000  Uiso   1.00
C112   C     0.17156   0.81978   0.80986   0.00000  Uiso   1.00
C113   C     0.18744   0.89096   0.46520   0.00000  Uiso   1.00
C114   C     0.19452   0.85472   0.37717   0.00000  Uiso   1.00
C115   C     0.24172   0.86400   0.35122   0.00000  Uiso   1.00
H116   H     0.24027   0.00362   0.66486   0.00000  Uiso   1.00
H117   H     0.17321   0.09690   0.60512   0.00000  Uiso   1.00
H118   H     0.25514   0.94795   0.86049   0.00000  Uiso   1.00
H119   H     0.30327   0.97829   0.54582   0.00000  Uiso   1.00
H120   H     0.08180   0.18092   0.51246   0.00000  Uiso   1.00
H121   H     0.25457   0.86683   0.05092   0.00000  Uiso   1.00
H122   H     0.35607   0.93083   0.38738   0.00000  Uiso   1.00
H123   H     0.10877   0.85422   0.46099   0.00000  Uiso   1.00
H124   H     0.03450   0.93930   0.39005   0.00000  Uiso   1.00
H125   H     0.11643   0.79035   0.64543   0.00000  Uiso   1.00
H126   H     0.16456   0.82070   0.33076   0.00000  Uiso   1.00
H127   H     0.96922   0.05301   0.33791   0.00000  Uiso   1.00
H128   H     0.14199   0.73892   0.87637   0.00000  Uiso   1.00
H129   H     0.24349   0.80291   0.21283   0.00000  Uiso   1.00
O130   O     0.97902   0.17563   0.38223   0.00000  Uiso   1.00
O131   O     0.20570   0.76355   0.08867   0.00000  Uiso   1.00
O132   O     0.33886   0.84751   0.21812   0.00000  Uiso   1.00
N133   N     0.06550   0.13914   0.48109   0.00000  Uiso   1.00
N134   N     0.22703   0.84550   0.98453   0.00000  Uiso   1.00
N135   N     0.32192   0.90531   0.36419   0.00000  Uiso   1.00
N136   N     0.00492   0.07031   0.38717   0.00000  Uiso   1.00
N137   N     0.16644   0.77667   0.89060   0.00000  Uiso   1.00
N138   N     0.26134   0.83648   0.27027   0.00000  Uiso   1.00
C139   C     0.71014   0.46940   0.61815   0.00000  Uiso   1.00
C140   C     0.65547   0.49936   0.55741   0.00000  Uiso   1.00
C141   C     0.64326   0.56289   0.55867   0.00000  Uiso   1.00
C142   C     0.59091   0.58093   0.49774   0.00000  Uiso   1.00
C143   C     0.51191   0.63413   0.41260   0.00000  Uiso   1.00
C144   C     0.69999   0.41843   0.69617   0.00000  Uiso   1.00
C145   C     0.72520   0.41392   0.81409   0.00000  Uiso   1.00
C146   C     0.71032   0.36382   0.86996   0.00000  Uiso   1.00
C147   C     0.70045   0.29137   0.00023   0.00000  Uiso   1.00
C148   C     0.72613   0.43493   0.52519   0.00000  Uiso   1.00
C149   C     0.77334   0.44427   0.49938   0.00000  Uiso   1.00
C150   C     0.78049   0.40805   0.41132   0.00000  Uiso   1.00
C151   C     0.81122   0.36120   0.27612   0.00000  Uiso   1.00
C152   C     0.63890   0.38845   0.50770   0.00000  Uiso   1.00
C153   C     0.61678   0.45539   0.49742   0.00000  Uiso   1.00
C154   C     0.56444   0.47334   0.43647   0.00000  Uiso   1.00
C155   C     0.55214   0.53688   0.43764   0.00000  Uiso   1.00
C156   C     0.66129   0.37447   0.63618   0.00000  Uiso   1.00
C157   C     0.64638   0.32436   0.69189   0.00000  Uiso   1.00
C158   C     0.67156   0.31978   0.80986   0.00000  Uiso   1.00
C159   C     0.68744   0.39096   0.46520   0.00000  Uiso   1.00
C160   C     0.69452   0.35472   0.37717   0.00000  Uiso   1.00
C161   C     0.74172   0.36400   0.35122   0.00000  Uiso   1.00
H162   H     0.74027   0.50362   0.66486   0.00000  Uiso   1.00
H163   H     0.67321   0.59690   0.60512   0.00000  Uiso   1.00
H164   H     0.75514   0.44795   0.86049   0.00000  Uiso   1.00
H165   H     0.80327   0.47829   0.54582   0.00000  Uiso   1.00
H166   H     0.58180   0.68092   0.51246   0.00000  Uiso   1.00
H167   H     0.75457   0.36683   0.05092   0.00000  Uiso   1.00
H168   H     0.85607   0.43083   0.38738   0.00000  Uiso   1.00
H169   H     0.60877   0.35422   0.46099   0.00000  Uiso   1.00
H170   H     0.53450   0.43930   0.39005   0.00000  Uiso   1.00
H171   H     0.61643   0.29035   0.64543   0.00000  Uiso   1.00
H172   H     0.66456   0.32070   0.33076   0.00000  Uiso   1.00
H173   H     0.46922   0.55301   0.33791   0.00000  Uiso   1.00
H174   H     0.64199   0.23892   0.87637   0.00000  Uiso   1.00
H175   H     0.74349   0.30291   0.21283   0.00000  Uiso   1.00
O176   O     0.47902   0.67563   0.38223   0.00000  Uiso   1.00
O177   O     0.70570   0.26355   0.08867   0.00000  Uiso   1.00
O178   O     0.83886   0.34751   0.21812   0.00000  Uiso   1.00
N179   N     0.56550   0.63914   0.48109   0.00000  Uiso   1.00
N180   N     0.72703   0.34550   0.98453   0.00000  Uiso   1.00
N181   N     0.82192   0.40531   0.36419   0.00000  Uiso   1.00
N182   N     0.50492   0.57031   0.38717   0.00000  Uiso   1.00
N183   N     0.66644   0.27667   0.89060   0.00000  Uiso   1.00
N184   N     0.76134   0.33648   0.27027   0.00000  Uiso   1.00
C185   C     0.21014   0.03060   0.11815   0.00000  Uiso   1.00
C186   C     0.15547   0.00064   0.05741   0.00000  Uiso   1.00
C187   C     0.14326   0.93711   0.05867   0.00000  Uiso   1.00
C188   C     0.09091   0.91907   0.99774   0.00000  Uiso   1.00
C189   C     0.01191   0.86587   0.91260   0.00000  Uiso   1.00
C190   C     0.19999   0.08157   0.19617   0.00000  Uiso   1.00
C191   C     0.22520   0.08608   0.31409   0.00000  Uiso   1.00
C192   C     0.21032   0.13618   0.36996   0.00000  Uiso   1.00
C193   C     0.20045   0.20863   0.50023   0.00000  Uiso   1.00
C194   C     0.22613   0.06507   0.02519   0.00000  Uiso   1.00
C195   C     0.27334   0.05573   0.99938   0.00000  Uiso   1.00
C196   C     0.28049   0.09195   0.91132   0.00000  Uiso   1.00
C197   C     0.31122   0.13880   0.77612   0.00000  Uiso   1.00
C198   C     0.13890   0.11155   0.00770   0.00000  Uiso   1.00
C199   C     0.11678   0.04461   0.99742   0.00000  Uiso   1.00
C200   C     0.06444   0.02666   0.93647   0.00000  Uiso   1.00
C201   C     0.05214   0.96312   0.93764   0.00000  Uiso   1.00
C202   C     0.16129   0.12553   0.13618   0.00000  Uiso   1.00
C203   C     0.14638   0.17564   0.19189   0.00000  Uiso   1.00
C204   C     0.17156   0.18022   0.30986   0.00000  Uiso   1.00
C205   C     0.18744   0.10904   0.96520   0.00000  Uiso   1.00
C206   C     0.19452   0.14528   0.87717   0.00000  Uiso   1.00
C207   C     0.24172   0.13600   0.85122   0.00000  Uiso   1.00
H208   H     0.24027   0.99638   0.16486   0.00000  Uiso   1.00
H209   H     0.17321   0.90310   0.10512   0.00000  Uiso   1.00
H210   H     0.25514   0.05205   0.36049   0.00000  Uiso   1.00
H211   H     0.30327   0.02171   0.04582   0.00000  Uiso   1.00
H212   H     0.08180   0.81908   0.01246   0.00000  Uiso   1.00
H213   H     0.25457   0.13317   0.55092   0.00000  Uiso   1.00
H214   H     0.35607   0.06917   0.88738   0.00000  Uiso   1.00
H215   H     0.10877   0.14578   0.96099   0.00000  Uiso   1.00
H216   H     0.03450   0.06070   0.89005   0.00000  Uiso   1.00
H217   H     0.11643   0.20965   0.14543   0.00000  Uiso   1.00
H218   H     0.16456   0.17930   0.83076   0.00000  Uiso   1.00
H219   H     0.96922   0.94699   0.83791   0.00000  Uiso   1.00
H220   H     0.14199   0.26108   0.37637   0.00000  Uiso   1.00
H221   H     0.24349   0.19709   0.71283   0.00000  Uiso   1.00
O222   O     0.97902   0.82437   0.88223   0.00000  Uiso   1.00
O223   O     0.20570   0.23645   0.58867   0.00000  Uiso   1.00
O224   O     0.33886   0.15249   0.71812   0.00000  Uiso   1.00
N225   N     0.06550   0.86086   0.98109   0.00000  Uiso   1.00
N226   N     0.22703   0.15450   0.48453   0.00000  Uiso   1.00
N227   N     0.32192   0.09469   0.86419   0.00000  Uiso   1.00
N228   N     0.00492   0.92969   0.88717   0.00000  Uiso   1.00
N229   N     0.16644   0.22333   0.39060   0.00000  Uiso   1.00
N230   N     0.26134   0.16352   0.77027   0.00000  Uiso   1.00
C231   C     0.71014   0.53060   0.11815   0.00000  Uiso   1.00
C232   C     0.65547   0.50064   0.05741   0.00000  Uiso   1.00
C233   C     0.64326   0.43711   0.05867   0.00000  Uiso   1.00
C234   C     0.59091   0.41907   0.99774   0.00000  Uiso   1.00
C235   C     0.51191   0.36587   0.91260   0.00000  Uiso   1.00
C236   C     0.69999   0.58157   0.19617   0.00000  Uiso   1.00
C237   C     0.72520   0.58608   0.31409   0.00000  Uiso   1.00
C238   C     0.71032   0.63618   0.36996   0.00000  Uiso   1.00
C239   C     0.70045   0.70863   0.50023   0.00000  Uiso   1.00
C240   C     0.72613   0.56507   0.02519   0.00000  Uiso   1.00
C241   C     0.77334   0.55573   0.99938   0.00000  Uiso   1.00
C242   C     0.78049   0.59195   0.91132   0.00000  Uiso   1.00
C243   C     0.81122   0.63880   0.77612   0.00000  Uiso   1.00
C244   C     0.63890   0.61155   0.00770   0.00000  Uiso   1.00
C245   C     0.61678   0.54461   0.99742   0.00000  Uiso   1.00
C246   C     0.56444   0.52666   0.93647   0.00000  Uiso   1.00
C247   C     0.55214   0.46312   0.93764   0.00000  Uiso   1.00
C248   C     0.66129   0.62553   0.13618   0.00000  Uiso   1.00
C249   C     0.64638   0.67564   0.19189   0.00000  Uiso   1.00
C250   C     0.67156   0.68022   0.30986   0.00000  Uiso   1.00
C251   C     0.68744   0.60904   0.96520   0.00000  Uiso   1.00
C252   C     0.69452   0.64528   0.87717   0.00000  Uiso   1.00
C253   C     0.74172   0.63600   0.85122   0.00000  Uiso   1.00
H254   H     0.74027   0.49638   0.16486   0.00000  Uiso   1.00
H255   H     0.67321   0.40310   0.10512   0.00000  Uiso   1.00
H256   H     0.75514   0.55205   0.36049   0.00000  Uiso   1.00
H257   H     0.80327   0.52171   0.04582   0.00000  Uiso   1.00
H258   H     0.58180   0.31908   0.01246   0.00000  Uiso   1.00
H259   H     0.75457   0.63317   0.55092   0.00000  Uiso   1.00
H260   H     0.85607   0.56917   0.88738   0.00000  Uiso   1.00
H261   H     0.60877   0.64578   0.96099   0.00000  Uiso   1.00
H262   H     0.53450   0.56070   0.89005   0.00000  Uiso   1.00
H263   H     0.61643   0.70965   0.14543   0.00000  Uiso   1.00
H264   H     0.66456   0.67930   0.83076   0.00000  Uiso   1.00
H265   H     0.46922   0.44699   0.83791   0.00000  Uiso   1.00
H266   H     0.64199   0.76108   0.37637   0.00000  Uiso   1.00
H267   H     0.74349   0.69709   0.71283   0.00000  Uiso   1.00
O268   O     0.47902   0.32437   0.88223   0.00000  Uiso   1.00
O269   O     0.70570   0.73645   0.58867   0.00000  Uiso   1.00
O270   O     0.83886   0.65249   0.71812   0.00000  Uiso   1.00
N271   N     0.56550   0.36086   0.98109   0.00000  Uiso   1.00
N272   N     0.72703   0.65450   0.48453   0.00000  Uiso   1.00
N273   N     0.82192   0.59469   0.86419   0.00000  Uiso   1.00
N274   N     0.50492   0.42969   0.88717   0.00000  Uiso   1.00
N275   N     0.66644   0.72333   0.39060   0.00000  Uiso   1.00
N276   N     0.76134   0.66352   0.77027   0.00000  Uiso   1.00
C277   C     0.78986   0.03060   0.38185   0.00000  Uiso   1.00
C278   C     0.84453   0.00064   0.44259   0.00000  Uiso   1.00
C279   C     0.85674   0.93711   0.44133   0.00000  Uiso   1.00
C280   C     0.90909   0.91907   0.50226   0.00000  Uiso   1.00
C281   C     0.98809   0.86587   0.58740   0.00000  Uiso   1.00
C282   C     0.80001   0.08157   0.30383   0.00000  Uiso   1.00
C283   C     0.77480   0.08608   0.18591   0.00000  Uiso   1.00
C284   C     0.78968   0.13618   0.13004   0.00000  Uiso   1.00
C285   C     0.79955   0.20863   0.99977   0.00000  Uiso   1.00
C286   C     0.77387   0.06507   0.47481   0.00000  Uiso   1.00
C287   C     0.72666   0.05573   0.50062   0.00000  Uiso   1.00
C288   C     0.71951   0.09195   0.58868   0.00000  Uiso   1.00
C289   C     0.68878   0.13880   0.72388   0.00000  Uiso   1.00
C290   C     0.86110   0.11155   0.49230   0.00000  Uiso   1.00
C291   C     0.88322   0.04461   0.50258   0.00000  Uiso   1.00
C292   C     0.93556   0.02666   0.56353   0.00000  Uiso   1.00
C293   C     0.94786   0.96312   0.56236   0.00000  Uiso   1.00
C294   C     0.83871   0.12553   0.36382   0.00000  Uiso   1.00
C295   C     0.85362   0.17564   0.30811   0.00000  Uiso   1.00
C296   C     0.82844   0.18022   0.19014   0.00000  Uiso   1.00
C297   C     0.81256   0.10904   0.53480   0.00000  Uiso   1.00
C298   C     0.80548   0.14528   0.62283   0.00000  Uiso   1.00
C299   C     0.75828   0.13600   0.64878   0.00000  Uiso   1.00
H300   H     0.75973   0.99638   0.33514   0.00000  Uiso   1.00
H301   H     0.82679   0.90310   0.39488   0.00000  Uiso   1.00
H302   H     0.74486   0.05205   0.13951   0.00000  Uiso   1.00
H303   H     0.69673   0.02171   0.45418   0.00000  Uiso   1.00
H304   H     0.91820   0.81908   0.48754   0.00000  Uiso   1.00
H305   H     0.74543   0.13317   0.94908   0.00000  Uiso   1.00
H306   H     0.64393   0.06917   0.61262   0.00000  Uiso   1.00
H307   H     0.89123   0.14578   0.53901   0.00000  Uiso   1.00
H308   H     0.96550   0.06070   0.60995   0.00000  Uiso   1.00
H309   H     0.88357   0.20965   0.35457   0.00000  Uiso   1.00
H310   H     0.83544   0.17930   0.66924   0.00000  Uiso   1.00
H311   H     0.03078   0.94699   0.66209   0.00000  Uiso   1.00
H312   H     0.85801   0.26108   0.12363   0.00000  Uiso   1.00
H313   H     0.75651   0.19709   0.78717   0.00000  Uiso   1.00
O314   O     0.02098   0.82437   0.61777   0.00000  Uiso   1.00
O315   O     0.79430   0.23645   0.91133   0.00000  Uiso   1.00
O316   O     0.66114   0.15249   0.78188   0.00000  Uiso   1.00
N317   N     0.93450   0.86086   0.51891   0.00000  Uiso   1.00
N318   N     0.77297   0.15450   0.01547   0.00000  Uiso   1.00
N319   N     0.67808   0.09469   0.63581   0.00000  Uiso   1.00
N320   N     0.99508   0.92969   0.61283   0.00000  Uiso   1.00
N321   N     0.83356   0.22333   0.10940   0.00000  Uiso   1.00
N322   N     0.73866   0.16352   0.72973   0.00000  Uiso   1.00
C323   C     0.28986   0.53060   0.38185   0.00000  Uiso   1.00
C324   C     0.34453   0.50064   0.44259   0.00000  Uiso   1.00
C325   C     0.35674   0.43711   0.44133   0.00000  Uiso   1.00
C326   C     0.40909   0.41907   0.50226   0.00000  Uiso   1.00
C327   C     0.48809   0.36587   0.58740   0.00000  Uiso   1.00
C328   C     0.30001   0.58157   0.30383   0.00000  Uiso   1.00
C329   C     0.27480   0.58608   0.18591   0.00000  Uiso   1.00
C330   C     0.28968   0.63618   0.13004   0.00000  Uiso   1.00
C331   C     0.29955   0.70863   0.99977   0.00000  Uiso   1.00
C332   C     0.27387   0.56507   0.47481   0.00000  Uiso   1.00
C333   C     0.22666   0.55573   0.50062   0.00000  Uiso   1.00
C334   C     0.21951   0.59195   0.58868   0.00000  Uiso   1.00
C335   C     0.18878   0.63880   0.72388   0.00000  Uiso   1.00
C336   C     0.36110   0.61155   0.49230   0.00000  Uiso   1.00
C337   C     0.38322   0.54461   0.50258   0.00000  Uiso   1.00
C338   C     0.43556   0.52666   0.56353   0.00000  Uiso   1.00
C339   C     0.44786   0.46312   0.56236   0.00000  Uiso   1.00
C340   C     0.33871   0.62553   0.36382   0.00000  Uiso   1.00
C341   C     0.35362   0.67564   0.30811   0.00000  Uiso   1.00
C342   C     0.32844   0.68022   0.19014   0.00000  Uiso   1.00
C343   C     0.31256   0.60904   0.53480   0.00000  Uiso   1.00
C344   C     0.30548   0.64528   0.62283   0.00000  Uiso   1.00
C345   C     0.25828   0.63600   0.64878   0.00000  Uiso   1.00
H346   H     0.25973   0.49638   0.33514   0.00000  Uiso   1.00
H347   H     0.32679   0.40310   0.39488   0.00000  Uiso   1.00
H348   H     0.24486   0.55205   0.13951   0.00000  Uiso   1.00
H349   H     0.19673   0.52171   0.45418   0.00000  Uiso   1.00
H350   H     0.41820   0.31908   0.48754   0.00000  Uiso   1.00
H351   H     0.24543   0.63317   0.94908   0.00000  Uiso   1.00
H352   H     0.14393   0.56917   0.61262   0.00000  Uiso   1.00
H353   H     0.39123   0.64578   0.53901   0.00000  Uiso   1.00
H354   H     0.46550   0.56070   0.60995   0.00000  Uiso   1.00
H355   H     0.38357   0.70965   0.35457   0.00000  Uiso   1.00
H356   H     0.33544   0.67930   0.66924   0.00000  Uiso   1.00
H357   H     0.53078   0.44699   0.66209   0.00000  Uiso   1.00
H358   H     0.35801   0.76108   0.12363   0.00000  Uiso   1.00
H359   H     0.25651   0.69709   0.78717   0.00000  Uiso   1.00
O360   O     0.52098   0.32437   0.61777   0.00000  Uiso   1.00
O361   O     0.29430   0.73645   0.91133   0.00000  Uiso   1.00
O362   O     0.16114   0.65249   0.78188   0.00000  Uiso   1.00
N363   N     0.43450   0.36086   0.51891   0.00000  Uiso   1.00
N364   N     0.27297   0.65450   0.01547   0.00000  Uiso   1.00
N365   N     0.17808   0.59469   0.63581   0.00000  Uiso   1.00
N366   N     0.49508   0.42969   0.61283   0.00000  Uiso   1.00
N367   N     0.33356   0.72333   0.10940   0.00000  Uiso   1.00
N368   N     0.23866   0.66352   0.72973   0.00000  Uiso   1.00
