data_job_06497
_audit_creation_date              2018-12-19
_audit_creation_method            'Materials Studio'
_symmetry_space_group_name_H-M    'P1'
_symmetry_Int_Tables_number       1
_symmetry_cell_setting            triclinic
loop_
_symmetry_equiv_pos_as_xyz
  x,y,z
_cell_length_a                    21.0663
_cell_length_b                    21.3029
_cell_length_c                    21.6829
_cell_angle_alpha                 104.0873
_cell_angle_beta                  61.0954
_cell_angle_gamma                 117.1216
loop_
_atom_site_label
_atom_site_type_symbol
_atom_site_fract_x
_atom_site_fract_y
_atom_site_fract_z
_atom_site_U_iso_or_equiv
_atom_site_adp_type
_atom_site_occupancy
C1     C     0.71059   0.82218   0.54088   0.00000  Uiso   1.00
C2     C     0.63883   0.75695   0.53949   0.00000  Uiso   1.00
C3     C     0.63292   0.71789   0.47968   0.00000  Uiso   1.00
C4     C     0.56230   0.66003   0.48949   0.00000  Uiso   1.00
C5     C     0.46036   0.56152   0.47709   0.00000  Uiso   1.00
C6     C     0.68091   0.88070   0.57758   0.00000  Uiso   1.00
C7     C     0.71040   0.94570   0.54980   0.00000  Uiso   1.00
C8     C     0.67521   0.99202   0.59169   0.00000  Uiso   1.00
C9     C     0.63864   0.08566   0.63845   0.00000  Uiso   1.00
C10    C     0.73328   0.80605   0.59041   0.00000  Uiso   1.00
C11    C     0.80679   0.80830   0.57343   0.00000  Uiso   1.00
C12    C     0.81569   0.79177   0.62613   0.00000  Uiso   1.00
C13    C     0.86042   0.76951   0.69282   0.00000  Uiso   1.00
C14    C     0.59568   0.78886   0.66467   0.00000  Uiso   1.00
C15    C     0.57642   0.73886   0.60673   0.00000  Uiso   1.00
C16    C     0.50579   0.68103   0.61664   0.00000  Uiso   1.00
C17    C     0.49978   0.64189   0.55685   0.00000  Uiso   1.00
C18    C     0.61850   0.86261   0.64481   0.00000  Uiso   1.00
C19    C     0.58326   0.90884   0.68676   0.00000  Uiso   1.00
C20    C     0.61268   0.97389   0.65904   0.00000  Uiso   1.00
C21    C     0.67086   0.78795   0.65765   0.00000  Uiso   1.00
C22    C     0.67966   0.77143   0.71039   0.00000  Uiso   1.00
C23    C     0.75317   0.77365   0.69349   0.00000  Uiso   1.00
H24    H     0.75918   0.83627   0.48854   0.00000  Uiso   1.00
H25    H     0.68124   0.73192   0.42765   0.00000  Uiso   1.00
H26    H     0.75870   0.95969   0.49777   0.00000  Uiso   1.00
H27    H     0.85508   0.82230   0.52140   0.00000  Uiso   1.00
H28    H     0.56728   0.60826   0.38980   0.00000  Uiso   1.00
H29    H     0.73064   0.08855   0.53765   0.00000  Uiso   1.00
H30    H     0.93387   0.79884   0.58748   0.00000  Uiso   1.00
H31    H     0.54709   0.77477   0.71702   0.00000  Uiso   1.00
H32    H     0.45750   0.66704   0.66867   0.00000  Uiso   1.00
H33    H     0.53497   0.89482   0.73879   0.00000  Uiso   1.00
H34    H     0.63134   0.75743   0.76242   0.00000  Uiso   1.00
H35    H     0.38569   0.55560   0.58542   0.00000  Uiso   1.00
H36    H     0.54905   0.03590   0.73327   0.00000  Uiso   1.00
H37    H     0.75228   0.74618   0.78310   0.00000  Uiso   1.00
O38    O     0.42137   0.51219   0.45168   0.00000  Uiso   1.00
O39    O     0.63570   0.14231   0.64566   0.00000  Uiso   1.00
O40    O     0.90233   0.76221   0.71103   0.00000  Uiso   1.00
N41    N     0.53685   0.61064   0.44248   0.00000  Uiso   1.00
N42    N     0.68957   0.05968   0.58070   0.00000  Uiso   1.00
N43    N     0.87958   0.78884   0.62729   0.00000  Uiso   1.00
N44    N     0.43913   0.58231   0.54774   0.00000  Uiso   1.00
N45    N     0.59185   0.03135   0.68596   0.00000  Uiso   1.00
N46    N     0.78186   0.76051   0.73255   0.00000  Uiso   1.00
C47    C     0.37266   0.44363   0.19570   0.00000  Uiso   1.00
C48    C     0.37817   0.50625   0.16827   0.00000  Uiso   1.00
C49    C     0.37545   0.56858   0.20577   0.00000  Uiso   1.00
C50    C     0.38145   0.61948   0.17134   0.00000  Uiso   1.00
C51    C     0.38868   0.71840   0.13933   0.00000  Uiso   1.00
C52    C     0.30360   0.37998   0.18732   0.00000  Uiso   1.00
C53    C     0.23818   0.33612   0.24083   0.00000  Uiso   1.00
C54    C     0.18141   0.28072   0.22241   0.00000  Uiso   1.00
C55    C     0.07289   0.18356   0.21996   0.00000  Uiso   1.00
C56    C     0.44683   0.43065   0.14390   0.00000  Uiso   1.00
C57    C     0.50184   0.42939   0.16091   0.00000  Uiso   1.00
C58    C     0.56566   0.41664   0.10594   0.00000  Uiso   1.00
C59    C     0.67954   0.39816   0.03608   0.00000  Uiso   1.00
C60    C     0.38816   0.42321   0.06786   0.00000  Uiso   1.00
C61    C     0.38658   0.49516   0.09883   0.00000  Uiso   1.00
C62    C     0.39259   0.54599   0.06433   0.00000  Uiso   1.00
C63    C     0.38988   0.60838   0.10177   0.00000  Uiso   1.00
C64    C     0.31201   0.36889   0.11788   0.00000  Uiso   1.00
C65    C     0.25533   0.31354   0.09938   0.00000  Uiso   1.00
C66    C     0.18984   0.26961   0.15285   0.00000  Uiso   1.00
C67    C     0.45525   0.41957   0.07446   0.00000  Uiso   1.00
C68    C     0.51899   0.40681   0.01946   0.00000  Uiso   1.00
C69    C     0.57409   0.40553   0.03638   0.00000  Uiso   1.00
H70    H     0.36611   0.45226   0.24976   0.00000  Uiso   1.00
H71    H     0.36893   0.57714   0.25951   0.00000  Uiso   1.00
H72    H     0.23169   0.34471   0.29456   0.00000  Uiso   1.00
H73    H     0.49531   0.43797   0.21465   0.00000  Uiso   1.00
H74    H     0.37574   0.71069   0.23971   0.00000  Uiso   1.00
H75    H     0.08638   0.22060   0.31360   0.00000  Uiso   1.00
H76    H     0.64227   0.41725   0.14510   0.00000  Uiso   1.00
H77    H     0.39471   0.41457   0.01379   0.00000  Uiso   1.00
H78    H     0.39910   0.53739   0.01059   0.00000  Uiso   1.00
H79    H     0.26186   0.30497   0.04564   0.00000  Uiso   1.00
H80    H     0.52548   0.39823   0.96573   0.00000  Uiso   1.00
H81    H     0.40023   0.67843   0.03768   0.00000  Uiso   1.00
H82    H     0.11086   0.18834   0.11157   0.00000  Uiso   1.00
H83    H     0.66676   0.38499   0.94307   0.00000  Uiso   1.00
O84    O     0.39033   0.77602   0.14086   0.00000  Uiso   1.00
O85    O     0.01071   0.13304   0.23779   0.00000  Uiso   1.00
O86    O     0.74003   0.39105   0.01672   0.00000  Uiso   1.00
N87    N     0.38092   0.68625   0.19260   0.00000  Uiso   1.00
N88    N     0.11037   0.22805   0.26168   0.00000  Uiso   1.00
N89    N     0.63008   0.41189   0.10415   0.00000  Uiso   1.00
N90    N     0.39409   0.66889   0.08388   0.00000  Uiso   1.00
N91    N     0.12355   0.21069   0.15297   0.00000  Uiso   1.00
N92    N     0.64325   0.39453   0.99544   0.00000  Uiso   1.00
C93    C     0.25149   0.85341   0.14394   0.00000  Uiso   1.00
C94    C     0.18553   0.83237   0.21776   0.00000  Uiso   1.00
C95    C     0.19562   0.83352   0.27677   0.00000  Uiso   1.00
C96    C     0.12780   0.81225   0.33950   0.00000  Uiso   1.00
C97    C     0.03680   0.78283   0.45359   0.00000  Uiso   1.00
C98    C     0.23200   0.78971   0.09557   0.00000  Uiso   1.00
C99    C     0.28117   0.75500   0.05184   0.00000  Uiso   1.00
C100   C     0.25246   0.69783   0.01170   0.00000  Uiso   1.00
C101   C     0.23364   0.60222   0.93605   0.00000  Uiso   1.00
C102   C     0.24211   0.91088   0.12290   0.00000  Uiso   1.00
C103   C     0.29979   0.97804   0.10212   0.00000  Uiso   1.00
C104   C     0.27961   0.02288   0.08497   0.00000  Uiso   1.00
C105   C     0.27649   0.11540   0.05175   0.00000  Uiso   1.00
C106   C     0.11310   0.81361   0.15039   0.00000  Uiso   1.00
C107   C     0.11036   0.81074   0.22127   0.00000  Uiso   1.00
C108   C     0.04250   0.78948   0.28392   0.00000  Uiso   1.00
C109   C     0.05249   0.79060   0.34301   0.00000  Uiso   1.00
C110   C     0.15683   0.76809   0.09908   0.00000  Uiso   1.00
C111   C     0.12805   0.71096   0.05899   0.00000  Uiso   1.00
C112   C     0.17716   0.67617   0.01521   0.00000  Uiso   1.00
C113   C     0.16694   0.88926   0.12641   0.00000  Uiso   1.00
C114   C     0.14667   0.93400   0.10927   0.00000  Uiso   1.00
C115   C     0.20430   0.00122   0.08848   0.00000  Uiso   1.00
H116   H     0.31002   0.87024   0.14120   0.00000  Uiso   1.00
H117   H     0.25380   0.85024   0.27404   0.00000  Uiso   1.00
H118   H     0.33934   0.77175   0.04914   0.00000  Uiso   1.00
H119   H     0.35795   0.99475   0.09942   0.00000  Uiso   1.00
H120   H     0.15833   0.81852   0.42285   0.00000  Uiso   1.00
H121   H     0.33869   0.65302   0.94861   0.00000  Uiso   1.00
H122   H     0.37795   0.12327   0.05464   0.00000  Uiso   1.00
H123   H     0.05457   0.79677   0.15312   0.00000  Uiso   1.00
H124   H     0.98434   0.77275   0.28662   0.00000  Uiso   1.00
H125   H     0.06988   0.69425   0.06171   0.00000  Uiso   1.00
H126   H     0.08849   0.91725   0.11199   0.00000  Uiso   1.00
H127   H     0.93962   0.75561   0.43306   0.00000  Uiso   1.00
H128   H     0.11999   0.59011   0.95882   0.00000  Uiso   1.00
H129   H     0.15924   0.06036   0.06484   0.00000  Uiso   1.00
O130   O     0.00738   0.77256   0.51555   0.00000  Uiso   1.00
O131   O     0.24402   0.55544   0.89336   0.00000  Uiso   1.00
O132   O     0.29552   0.17240   0.03246   0.00000  Uiso   1.00
N133   N     0.11649   0.80702   0.40694   0.00000  Uiso   1.00
N134   N     0.28512   0.65228   0.96356   0.00000  Uiso   1.00
N135   N     0.32183   0.09192   0.06267   0.00000  Uiso   1.00
N136   N     0.99881   0.77318   0.41243   0.00000  Uiso   1.00
N137   N     0.16743   0.61844   0.96905   0.00000  Uiso   1.00
N138   N     0.20415   0.05807   0.06816   0.00000  Uiso   1.00
C139   C     0.94931   0.47942   0.78263   0.00000  Uiso   1.00
C140   C     0.95085   0.45164   0.71033   0.00000  Uiso   1.00
C141   C     0.92553   0.38115   0.68887   0.00000  Uiso   1.00
C142   C     0.93180   0.36660   0.62063   0.00000  Uiso   1.00
C143   C     0.92952   0.31524   0.51524   0.00000  Uiso   1.00
C144   C     0.90156   0.52487   0.81154   0.00000  Uiso   1.00
C145   C     0.83480   0.51594   0.87519   0.00000  Uiso   1.00
C146   C     0.79958   0.56304   0.89216   0.00000  Uiso   1.00
C147   C     0.72079   0.62540   0.94393   0.00000  Uiso   1.00
C148   C     0.03401   0.52996   0.76912   0.00000  Uiso   1.00
C149   C     0.07862   0.52532   0.79711   0.00000  Uiso   1.00
C150   C     0.15491   0.57672   0.77837   0.00000  Uiso   1.00
C151   C     0.28178   0.64698   0.76428   0.00000  Uiso   1.00
C152   C     0.00548   0.57895   0.69961   0.00000  Uiso   1.00
C153   C     0.98136   0.50571   0.66524   0.00000  Uiso   1.00
C154   C     0.98767   0.49126   0.59702   0.00000  Uiso   1.00
C155   C     0.96237   0.42076   0.57546   0.00000  Uiso   1.00
C156   C     0.93206   0.57893   0.76645   0.00000  Uiso   1.00
C157   C     0.89693   0.62606   0.78334   0.00000  Uiso   1.00
C158   C     0.83014   0.61720   0.84699   0.00000  Uiso   1.00
C159   C     0.06452   0.58402   0.72403   0.00000  Uiso   1.00
C160   C     0.14075   0.63544   0.70525   0.00000  Uiso   1.00
C161   C     0.18547   0.63088   0.73320   0.00000  Uiso   1.00
H162   H     0.92556   0.43733   0.81773   0.00000  Uiso   1.00
H163   H     0.90192   0.33932   0.72378   0.00000  Uiso   1.00
H164   H     0.81121   0.47410   0.91007   0.00000  Uiso   1.00
H165   H     0.05499   0.48348   0.83200   0.00000  Uiso   1.00
H166   H     0.88914   0.25450   0.59974   0.00000  Uiso   1.00
H167   H     0.69788   0.53870   0.99256   0.00000  Uiso   1.00
H168   H     0.21194   0.55848   0.82793   0.00000  Uiso   1.00
H169   H     0.02923   0.62104   0.66450   0.00000  Uiso   1.00
H170   H     0.01128   0.53311   0.56213   0.00000  Uiso   1.00
H171   H     0.92056   0.66789   0.74843   0.00000  Uiso   1.00
H172   H     0.16434   0.67727   0.67036   0.00000  Uiso   1.00
H173   H     0.97790   0.41179   0.46854   0.00000  Uiso   1.00
H174   H     0.78663   0.69599   0.86136   0.00000  Uiso   1.00
H175   H     0.30069   0.71576   0.69673   0.00000  Uiso   1.00
O176   O     0.91982   0.27198   0.46957   0.00000  Uiso   1.00
O177   O     0.66890   0.64485   0.98494   0.00000  Uiso   1.00
O178   O     0.34333   0.67079   0.76895   0.00000  Uiso   1.00
N179   N     0.91251   0.30358   0.58291   0.00000  Uiso   1.00
N180   N     0.73368   0.56929   0.95016   0.00000  Uiso   1.00
N181   N     0.21428   0.58779   0.79626   0.00000  Uiso   1.00
N182   N     0.96027   0.38822   0.51231   0.00000  Uiso   1.00
N183   N     0.78144   0.65393   0.87957   0.00000  Uiso   1.00
N184   N     0.26204   0.67242   0.72567   0.00000  Uiso   1.00
C185   C     0.70935   0.16918   0.35203   0.00000  Uiso   1.00
C186   C     0.63327   0.11951   0.40684   0.00000  Uiso   1.00
C187   C     0.61463   0.12027   0.47770   0.00000  Uiso   1.00
C188   C     0.54207   0.07050   0.51921   0.00000  Uiso   1.00
C189   C     0.43182   0.00082   0.60865   0.00000  Uiso   1.00
C190   C     0.68400   0.20442   0.31967   0.00000  Uiso   1.00
C191   C     0.70802   0.27658   0.31725   0.00000  Uiso   1.00
C192   C     0.67818   0.29829   0.28537   0.00000  Uiso   1.00
C193   C     0.64673   0.36044   0.23944   0.00000  Uiso   1.00
C194   C     0.74520   0.12209   0.29372   0.00000  Uiso   1.00
C195   C     0.82069   0.12503   0.26945   0.00000  Uiso   1.00
C196   C     0.84238   0.07743   0.21570   0.00000  Uiso   1.00
C197   C     0.90596   0.01174   0.12947   0.00000  Uiso   1.00
C198   C     0.61365   0.07942   0.29971   0.00000  Uiso   1.00
C199   C     0.58128   0.07076   0.37842   0.00000  Uiso   1.00
C200   C     0.50874   0.02097   0.41983   0.00000  Uiso   1.00
C201   C     0.48999   0.02165   0.49074   0.00000  Uiso   1.00
C202   C     0.63202   0.15568   0.29126   0.00000  Uiso   1.00
C203   C     0.60213   0.17728   0.25937   0.00000  Uiso   1.00
C204   C     0.62610   0.24945   0.25690   0.00000  Uiso   1.00
C205   C     0.69322   0.07334   0.26530   0.00000  Uiso   1.00
C206   C     0.71480   0.02572   0.21158   0.00000  Uiso   1.00
C207   C     0.79030   0.02859   0.18723   0.00000  Uiso   1.00
H208   H     0.74983   0.20714   0.37414   0.00000  Uiso   1.00
H209   H     0.65487   0.15801   0.49968   0.00000  Uiso   1.00
H210   H     0.74826   0.31430   0.33923   0.00000  Uiso   1.00
H211   H     0.86090   0.16277   0.29145   0.00000  Uiso   1.00
H212   H     0.52665   0.08207   0.62632   0.00000  Uiso   1.00
H213   H     0.72359   0.41160   0.28800   0.00000  Uiso   1.00
H214   H     0.96113   0.09207   0.18723   0.00000  Uiso   1.00
H215   H     0.57317   0.04146   0.27759   0.00000  Uiso   1.00
H216   H     0.46852   0.98325   0.39783   0.00000  Uiso   1.00
H217   H     0.56191   0.13954   0.23739   0.00000  Uiso   1.00
H218   H     0.67455   0.98800   0.18960   0.00000  Uiso   1.00
H219   H     0.37540   0.94023   0.54366   0.00000  Uiso   1.00
H220   H     0.57234   0.26976   0.20534   0.00000  Uiso   1.00
H221   H     0.80988   0.95023   0.10457   0.00000  Uiso   1.00
O222   O     0.38536   0.97586   0.66583   0.00000  Uiso   1.00
O223   O     0.64375   0.40819   0.22196   0.00000  Uiso   1.00
O224   O     0.95539   0.98897   0.08976   0.00000  Uiso   1.00
N225   N     0.50543   0.05667   0.59036   0.00000  Uiso   1.00
N226   N     0.68954   0.36476   0.27407   0.00000  Uiso   1.00
N227   N     0.91163   0.06604   0.17984   0.00000  Uiso   1.00
N228   N     0.42404   0.98034   0.54588   0.00000  Uiso   1.00
N229   N     0.60815   0.28844   0.22959   0.00000  Uiso   1.00
N230   N     0.83024   0.98971   0.13536   0.00000  Uiso   1.00
C231   C     0.28841   0.17608   0.68410   0.00000  Uiso   1.00
C232   C     0.27043   0.23361   0.67408   0.00000  Uiso   1.00
C233   C     0.32505   0.30106   0.65096   0.00000  Uiso   1.00
C234   C     0.29684   0.34592   0.64526   0.00000  Uiso   1.00
C235   C     0.28108   0.43857   0.62711   0.00000  Uiso   1.00
C236   C     0.25971   0.11280   0.63900   0.00000  Uiso   1.00
C237   C     0.30532   0.07869   0.58640   0.00000  Uiso   1.00
C238   C     0.26807   0.02184   0.55118   0.00000  Uiso   1.00
C239   C     0.23566   0.92691   0.47861   0.00000  Uiso   1.00
C240   C     0.23420   0.15419   0.76046   0.00000  Uiso   1.00
C241   C     0.25836   0.15486   0.80997   0.00000  Uiso   1.00
C242   C     0.19964   0.13284   0.87701   0.00000  Uiso   1.00
C243   C     0.12762   0.10218   0.99301   0.00000  Uiso   1.00
C244   C     0.14117   0.13577   0.71511   0.00000  Uiso   1.00
C245   C     0.19045   0.21171   0.69092   0.00000  Uiso   1.00
C246   C     0.16214   0.25648   0.68526   0.00000  Uiso   1.00
C247   C     0.21672   0.32399   0.66214   0.00000  Uiso   1.00
C248   C     0.17973   0.09091   0.65584   0.00000  Uiso   1.00
C249   C     0.14241   0.03410   0.62070   0.00000  Uiso   1.00
C250   C     0.18795   0.99991   0.56805   0.00000  Uiso   1.00
C251   C     0.15422   0.13230   0.77730   0.00000  Uiso   1.00
C252   C     0.09545   0.11027   0.84427   0.00000  Uiso   1.00
C253   C     0.11952   0.11091   0.89388   0.00000  Uiso   1.00
H254   H     0.35068   0.19311   0.67099   0.00000  Uiso   1.00
H255   H     0.38694   0.31798   0.63792   0.00000  Uiso   1.00
H256   H     0.36721   0.09564   0.57338   0.00000  Uiso   1.00
H257   H     0.32026   0.17180   0.79692   0.00000  Uiso   1.00
H258   H     0.39188   0.44676   0.60867   0.00000  Uiso   1.00
H259   H     0.35026   0.97792   0.47259   0.00000  Uiso   1.00
H260   H     0.25126   0.13852   0.94397   0.00000  Uiso   1.00
H261   H     0.07890   0.11873   0.72822   0.00000  Uiso   1.00
H262   H     0.10025   0.23952   0.69830   0.00000  Uiso   1.00
H263   H     0.08052   0.01717   0.63375   0.00000  Uiso   1.00
H264   H     0.03356   0.09334   0.85729   0.00000  Uiso   1.00
H265   H     0.15919   0.38308   0.65767   0.00000  Uiso   1.00
H266   H     0.11757   0.91423   0.52159   0.00000  Uiso   1.00
H267   H     0.01857   0.07484   0.99297   0.00000  Uiso   1.00
O268   O     0.29449   0.49571   0.61243   0.00000  Uiso   1.00
O269   O     0.23989   0.88060   0.43392   0.00000  Uiso   1.00
O270   O     0.10999   0.09132   0.05235   0.00000  Uiso   1.00
N271   N     0.33419   0.41520   0.62432   0.00000  Uiso   1.00
N272   N     0.29528   0.97687   0.49709   0.00000  Uiso   1.00
N273   N     0.20272   0.12700   0.93778   0.00000  Uiso   1.00
N274   N     0.20898   0.38093   0.65069   0.00000  Uiso   1.00
N275   N     0.17007   0.94260   0.52346   0.00000  Uiso   1.00
N276   N     0.07751   0.09273   0.96415   0.00000  Uiso   1.00
C277   C     0.33362   0.22454   0.25601   0.00000  Uiso   1.00
C278   C     0.36995   0.25120   0.30834   0.00000  Uiso   1.00
C279   C     0.37821   0.31475   0.34648   0.00000  Uiso   1.00
C280   C     0.41297   0.32948   0.39164   0.00000  Uiso   1.00
C281   C     0.46547   0.37804   0.47190   0.00000  Uiso   1.00
C282   C     0.26675   0.15271   0.28154   0.00000  Uiso   1.00
C283   C     0.18824   0.13344   0.29712   0.00000  Uiso   1.00
C284   C     0.13613   0.06525   0.31971   0.00000  Uiso   1.00
C285   C     0.02842   0.96088   0.35831   0.00000  Uiso   1.00
C286   C     0.39637   0.21020   0.18666   0.00000  Uiso   1.00
C287   C     0.42684   0.23925   0.12247   0.00000  Uiso   1.00
C288   C     0.48384   0.21945   0.06517   0.00000  Uiso   1.00
C289   C     0.57738   0.20434   0.95645   0.00000  Uiso   1.00
C290   C     0.38066   0.13770   0.26841   0.00000  Uiso   1.00
C291   C     0.39550   0.20403   0.31508   0.00000  Uiso   1.00
C292   C     0.43026   0.21867   0.36019   0.00000  Uiso   1.00
C293   C     0.43857   0.28223   0.39838   0.00000  Uiso   1.00
C294   C     0.29230   0.10554   0.28827   0.00000  Uiso   1.00
C295   C     0.24029   0.03736   0.31084   0.00000  Uiso   1.00
C296   C     0.16172   0.01800   0.32646   0.00000  Uiso   1.00
C297   C     0.42192   0.16303   0.19339   0.00000  Uiso   1.00
C298   C     0.47888   0.14318   0.13619   0.00000  Uiso   1.00
C299   C     0.50944   0.17220   0.07192   0.00000  Uiso   1.00
H300   H     0.31372   0.26126   0.25077   0.00000  Uiso   1.00
H301   H     0.35842   0.35124   0.34125   0.00000  Uiso   1.00
H302   H     0.16849   0.16995   0.29190   0.00000  Uiso   1.00
H303   H     0.40705   0.27575   0.11728   0.00000  Uiso   1.00
H304   H     0.41923   0.43018   0.44456   0.00000  Uiso   1.00
H305   H     0.01875   0.04793   0.34047   0.00000  Uiso   1.00
H306   H     0.52180   0.27102   0.97224   0.00000  Uiso   1.00
H307   H     0.40055   0.10097   0.27365   0.00000  Uiso   1.00
H308   H     0.45002   0.18216   0.36539   0.00000  Uiso   1.00
H309   H     0.26008   0.00088   0.31604   0.00000  Uiso   1.00
H310   H     0.49864   0.10667   0.14142   0.00000  Uiso   1.00
H311   H     0.49357   0.29294   0.46415   0.00000  Uiso   1.00
H312   H     0.09309   0.91069   0.36006   0.00000  Uiso   1.00
H313   H     0.59614   0.13379   0.99183   0.00000  Uiso   1.00
O314   O     0.48736   0.41785   0.51431   0.00000  Uiso   1.00
O315   O     0.96194   0.91635   0.37774   0.00000  Uiso   1.00
O316   O     0.62193   0.20904   0.89463   0.00000  Uiso   1.00
N317   N     0.42995   0.38674   0.43657   0.00000  Uiso   1.00
N318   N     0.05552   0.02937   0.33927   0.00000  Uiso   1.00
N319   N     0.52581   0.23793   0.99500   0.00000  Uiso   1.00
N320   N     0.46995   0.31290   0.44711   0.00000  Uiso   1.00
N321   N     0.09553   0.95552   0.34981   0.00000  Uiso   1.00
N322   N     0.56582   0.16408   0.00554   0.00000  Uiso   1.00
C323   C     0.57387   0.43175   0.67694   0.00000  Uiso   1.00
C324   C     0.57291   0.37468   0.70872   0.00000  Uiso   1.00
C325   C     0.52434   0.30344   0.71050   0.00000  Uiso   1.00
C326   C     0.53249   0.25975   0.74193   0.00000  Uiso   1.00
C327   C     0.52269   0.16708   0.78691   0.00000  Uiso   1.00
C328   C     0.65875   0.46726   0.62242   0.00000  Uiso   1.00
C329   C     0.68234   0.47388   0.55164   0.00000  Uiso   1.00
C330   C     0.76276   0.50814   0.51042   0.00000  Uiso   1.00
C331   C     0.88622   0.55925   0.42142   0.00000  Uiso   1.00
C332   C     0.55908   0.48694   0.73573   0.00000  Uiso   1.00
C333   C     0.49888   0.51012   0.76022   0.00000  Uiso   1.00
C334   C     0.49539   0.56096   0.81439   0.00000  Uiso   1.00
C335   C     0.46410   0.64262   0.90133   0.00000  Uiso   1.00
C336   C     0.67472   0.48084   0.72958   0.00000  Uiso   1.00
C337   C     0.62769   0.40134   0.73732   0.00000  Uiso   1.00
C338   C     0.63592   0.35775   0.76875   0.00000  Uiso   1.00
C339   C     0.58737   0.28646   0.77058   0.00000  Uiso   1.00
C340   C     0.71353   0.49393   0.65101   0.00000  Uiso   1.00
C341   C     0.79392   0.52819   0.60989   0.00000  Uiso   1.00
C342   C     0.81764   0.53485   0.53907   0.00000  Uiso   1.00
C343   C     0.61385   0.51360   0.76433   0.00000  Uiso   1.00
C344   C     0.61046   0.56442   0.81847   0.00000  Uiso   1.00
C345   C     0.55027   0.58767   0.84304   0.00000  Uiso   1.00
H346   H     0.53123   0.41100   0.65467   0.00000  Uiso   1.00
H347   H     0.48196   0.28283   0.68836   0.00000  Uiso   1.00
H348   H     0.63994   0.45325   0.52953   0.00000  Uiso   1.00
H349   H     0.45651   0.48948   0.73808   0.00000  Uiso   1.00
H350   H     0.45151   0.15249   0.73831   0.00000  Uiso   1.00
H351   H     0.78462   0.51185   0.40340   0.00000  Uiso   1.00
H352   H     0.39781   0.58824   0.84317   0.00000  Uiso   1.00
H353   H     0.71737   0.50160   0.75184   0.00000  Uiso   1.00
H354   H     0.67831   0.37840   0.79087   0.00000  Uiso   1.00
H355   H     0.83629   0.54882   0.63204   0.00000  Uiso   1.00
H356   H     0.65286   0.58504   0.84058   0.00000  Uiso   1.00
H357   H     0.61088   0.23006   0.82150   0.00000  Uiso   1.00
H358   H     0.94399   0.58942   0.48660   0.00000  Uiso   1.00
H359   H     0.55718   0.66581   0.92637   0.00000  Uiso   1.00
O360   O     0.50216   0.10859   0.80380   0.00000  Uiso   1.00
O361   O     0.93918   0.58007   0.36443   0.00000  Uiso   1.00
O362   O     0.43170   0.68029   0.94139   0.00000  Uiso   1.00
N363   N     0.49437   0.18765   0.75254   0.00000  Uiso   1.00
N364   N     0.80580   0.52362   0.43943   0.00000  Uiso   1.00
N365   N     0.44418   0.59506   0.85056   0.00000  Uiso   1.00
N366   N     0.58012   0.22939   0.79731   0.00000  Uiso   1.00
N367   N     0.89156   0.56536   0.48419   0.00000  Uiso   1.00
N368   N     0.52994   0.63680   0.89532   0.00000  Uiso   1.00
C369   C     0.79631   0.12500   0.76938   0.00000  Uiso   1.00
C370   C     0.85259   0.12685   0.69125   0.00000  Uiso   1.00
C371   C     0.83936   0.13251   0.63644   0.00000  Uiso   1.00
C372   C     0.89810   0.13332   0.56862   0.00000  Uiso   1.00
C373   C     0.97494   0.13696   0.44920   0.00000  Uiso   1.00
C374   C     0.84340   0.18517   0.80506   0.00000  Uiso   1.00
C375   C     0.82242   0.23986   0.84594   0.00000  Uiso   1.00
C376   C     0.87343   0.28975   0.87394   0.00000  Uiso   1.00
C377   C     0.93597   0.38390   0.93125   0.00000  Uiso   1.00
C378   C     0.78057   0.05706   0.79610   0.00000  Uiso   1.00
C379   C     0.70676   0.00403   0.82947   0.00000  Uiso   1.00
C380   C     0.70486   0.94607   0.84995   0.00000  Uiso   1.00
C381   C     0.66984   0.84129   0.89336   0.00000  Uiso   1.00
C382   C     0.92417   0.11636   0.74643   0.00000  Uiso   1.00
C383   C     0.92204   0.12217   0.67879   0.00000  Uiso   1.00
C384   C     0.98082   0.12296   0.61104   0.00000  Uiso   1.00
C385   C     0.96767   0.12862   0.55613   0.00000  Uiso   1.00
C386   C     0.91285   0.18049   0.79259   0.00000  Uiso   1.00
C387   C     0.96389   0.23031   0.82054   0.00000  Uiso   1.00
C388   C     0.94300   0.28506   0.86145   0.00000  Uiso   1.00
C389   C     0.85002   0.05237   0.78364   0.00000  Uiso   1.00
C390   C     0.84822   0.99448   0.80407   0.00000  Uiso   1.00
C391   C     0.77443   0.94137   0.83746   0.00000  Uiso   1.00
H392   H     0.74224   0.12865   0.77909   0.00000  Uiso   1.00
H393   H     0.78560   0.13615   0.64611   0.00000  Uiso   1.00
H394   H     0.76867   0.24347   0.85558   0.00000  Uiso   1.00
H395   H     0.65303   0.00768   0.83911   0.00000  Uiso   1.00
H396   H     0.86432   0.14242   0.49317   0.00000  Uiso   1.00
H397   H     0.82861   0.36870   0.93488   0.00000  Uiso   1.00
H398   H     0.58474   0.87148   0.90016   0.00000  Uiso   1.00
H399   H     0.97824   0.11272   0.73672   0.00000  Uiso   1.00
H400   H     0.03456   0.11934   0.60140   0.00000  Uiso   1.00
H401   H     0.01762   0.22666   0.81088   0.00000  Uiso   1.00
H402   H     0.90198   0.99087   0.79441   0.00000  Uiso   1.00
H403   H     0.06638   0.12878   0.45689   0.00000  Uiso   1.00
H404   H     0.03066   0.35506   0.89861   0.00000  Uiso   1.00
H405   H     0.78680   0.85784   0.86387   0.00000  Uiso   1.00
O406   O     0.99815   0.14027   0.38678   0.00000  Uiso   1.00
O407   O     0.95128   0.43713   0.96630   0.00000  Uiso   1.00
O408   O     0.63134   0.78479   0.92074   0.00000  Uiso   1.00
N409   N     0.90414   0.13829   0.50320   0.00000  Uiso   1.00
N410   N     0.87075   0.34985   0.91617   0.00000  Uiso   1.00
N411   N     0.64276   0.88500   0.88372   0.00000  Uiso   1.00
N412   N     0.01286   0.13094   0.48368   0.00000  Uiso   1.00
N413   N     0.97948   0.34251   0.89664   0.00000  Uiso   1.00
N414   N     0.75149   0.87766   0.86419   0.00000  Uiso   1.00
C415   C     0.98097   0.36924   0.07613   0.00000  Uiso   1.00
C416   C     0.98294   0.37274   0.14631   0.00000  Uiso   1.00
C417   C     0.98138   0.42811   0.19570   0.00000  Uiso   1.00
C418   C     0.98366   0.42124   0.25657   0.00000  Uiso   1.00
C419   C     0.98619   0.43584   0.36384   0.00000  Uiso   1.00
C420   C     0.05426   0.35740   0.01957   0.00000  Uiso   1.00
C421   C     0.11266   0.39988   0.96239   0.00000  Uiso   1.00
C422   C     0.17497   0.38009   0.91657   0.00000  Uiso   1.00
C423   C     0.28820   0.37085   0.82704   0.00000  Uiso   1.00
C424   C     0.91038   0.30172   0.07642   0.00000  Uiso   1.00
C425   C     0.84782   0.29737   0.06703   0.00000  Uiso   1.00
C426   C     0.78900   0.23070   0.06906   0.00000  Uiso   1.00
C427   C     0.67884   0.13500   0.06782   0.00000  Uiso   1.00
C428   C     0.98777   0.25855   0.09642   0.00000  Uiso   1.00
C429   C     0.98663   0.31262   0.15732   0.00000  Uiso   1.00
C430   C     0.98891   0.30565   0.21814   0.00000  Uiso   1.00
C431   C     0.98736   0.36101   0.26761   0.00000  Uiso   1.00
C432   C     0.05796   0.29728   0.03058   0.00000  Uiso   1.00
C433   C     0.12019   0.27742   0.98483   0.00000  Uiso   1.00
C434   C     0.17867   0.31986   0.92760   0.00000  Uiso   1.00
C435   C     0.91407   0.24160   0.08744   0.00000  Uiso   1.00
C436   C     0.85534   0.17491   0.08948   0.00000  Uiso   1.00
C437   C     0.79270   0.17047   0.08010   0.00000  Uiso   1.00
H438   H     0.97810   0.41604   0.06755   0.00000  Uiso   1.00
H439   H     0.97853   0.47464   0.18715   0.00000  Uiso   1.00
H440   H     0.10978   0.44640   0.95387   0.00000  Uiso   1.00
H441   H     0.84498   0.34391   0.05851   0.00000  Uiso   1.00
H442   H     0.98067   0.51310   0.32459   0.00000  Uiso   1.00
H443   H     0.25741   0.45354   0.83270   0.00000  Uiso   1.00
H444   H     0.69902   0.23743   0.05334   0.00000  Uiso   1.00
H445   H     0.99065   0.21174   0.10499   0.00000  Uiso   1.00
H446   H     0.99177   0.25912   0.22665   0.00000  Uiso   1.00
H447   H     0.12302   0.23089   0.99337   0.00000  Uiso   1.00
H448   H     0.85822   0.12840   0.09801   0.00000  Uiso   1.00
H449   H     0.99142   0.33818   0.35665   0.00000  Uiso   1.00
H450   H     0.26816   0.27863   0.86476   0.00000  Uiso   1.00
H451   H     0.70977   0.06251   0.08540   0.00000  Uiso   1.00
O452   O     0.98658   0.46050   0.41996   0.00000  Uiso   1.00
O453   O     0.34964   0.38236   0.77462   0.00000  Uiso   1.00
O454   O     0.61705   0.09883   0.06410   0.00000  Uiso   1.00
N455   N     0.98303   0.46542   0.31545   0.00000  Uiso   1.00
N456   N     0.24177   0.40975   0.85557   0.00000  Uiso   1.00
N457   N     0.71973   0.20770   0.06183   0.00000  Uiso   1.00
N458   N     0.98881   0.37130   0.33270   0.00000  Uiso   1.00
N459   N     0.24755   0.31563   0.87282   0.00000  Uiso   1.00
N460   N     0.72552   0.11357   0.07908   0.00000  Uiso   1.00
C461   C     0.21129   0.70856   0.46363   0.00000  Uiso   1.00
C462   C     0.29323   0.75649   0.41339   0.00000  Uiso   1.00
C463   C     0.31185   0.78118   0.35063   0.00000  Uiso   1.00
C464   C     0.39026   0.82444   0.31217   0.00000  Uiso   1.00
C465   C     0.50872   0.89611   0.23056   0.00000  Uiso   1.00
C466   C     0.21995   0.64427   0.47209   0.00000  Uiso   1.00
C467   C     0.17697   0.57460   0.45870   0.00000  Uiso   1.00
C468   C     0.19369   0.52339   0.46966   0.00000  Uiso   1.00
C469   C     0.19835   0.42083   0.47923   0.00000  Uiso   1.00
C470   C     0.19341   0.74750   0.53508   0.00000  Uiso   1.00
C471   C     0.12810   0.76461   0.57467   0.00000  Uiso   1.00
C472   C     0.12246   0.80031   0.63868   0.00000  Uiso   1.00
C473   C     0.08592   0.85803   0.74605   0.00000  Uiso   1.00
C474   C     0.31740   0.74151   0.50692   0.00000  Uiso   1.00
C475   C     0.35086   0.77438   0.43690   0.00000  Uiso   1.00
C476   C     0.42926   0.81763   0.39853   0.00000  Uiso   1.00
C477   C     0.44800   0.84237   0.33573   0.00000  Uiso   1.00
C478   C     0.27759   0.66216   0.49560   0.00000  Uiso   1.00
C479   C     0.29437   0.61105   0.50659   0.00000  Uiso   1.00
C480   C     0.25143   0.54132   0.49321   0.00000  Uiso   1.00
C481   C     0.25105   0.76540   0.55859   0.00000  Uiso   1.00
C482   C     0.24551   0.80107   0.62256   0.00000  Uiso   1.00
C483   C     0.18020   0.81823   0.66223   0.00000  Uiso   1.00
H484   H     0.16642   0.69463   0.44533   0.00000  Uiso   1.00
H485   H     0.26723   0.76731   0.33245   0.00000  Uiso   1.00
H486   H     0.13236   0.56076   0.44051   0.00000  Uiso   1.00
H487   H     0.08351   0.75076   0.55646   0.00000  Uiso   1.00
H488   H     0.40443   0.85576   0.21767   0.00000  Uiso   1.00
H489   H     0.12003   0.42025   0.44553   0.00000  Uiso   1.00
H490   H     0.01701   0.82088   0.69003   0.00000  Uiso   1.00
H491   H     0.36228   0.75544   0.52523   0.00000  Uiso   1.00
H492   H     0.47385   0.83146   0.41673   0.00000  Uiso   1.00
H493   H     0.33897   0.62491   0.52479   0.00000  Uiso   1.00
H494   H     0.29012   0.81491   0.64074   0.00000  Uiso   1.00
H495   H     0.57213   0.90783   0.28607   0.00000  Uiso   1.00
H496   H     0.28772   0.47231   0.51393   0.00000  Uiso   1.00
H497   H     0.18471   0.87295   0.75844   0.00000  Uiso   1.00
O498   O     0.55814   0.93069   0.17905   0.00000  Uiso   1.00
O499   O     0.18501   0.35931   0.47800   0.00000  Uiso   1.00
O500   O     0.04985   0.88494   0.79878   0.00000  Uiso   1.00
N501   N     0.42859   0.85759   0.24866   0.00000  Uiso   1.00
N502   N     0.16269   0.45041   0.46169   0.00000  Uiso   1.00
N503   N     0.06637   0.82496   0.69029   0.00000  Uiso   1.00
N504   N     0.51882   0.88561   0.28547   0.00000  Uiso   1.00
N505   N     0.25293   0.47843   0.49850   0.00000  Uiso   1.00
N506   N     0.15660   0.85297   0.72709   0.00000  Uiso   1.00
C507   C     0.72337   0.78284   0.23451   0.00000  Uiso   1.00
C508   C     0.75185   0.73334   0.24429   0.00000  Uiso   1.00
C509   C     0.70392   0.66816   0.27557   0.00000  Uiso   1.00
C510   C     0.74137   0.63090   0.27950   0.00000  Uiso   1.00
C511   C     0.77304   0.54994   0.29874   0.00000  Uiso   1.00
C512   C     0.75676   0.85293   0.27009   0.00000  Uiso   1.00
C513   C     0.71297   0.88829   0.32306   0.00000  Uiso   1.00
C514   C     0.75456   0.95172   0.34870   0.00000  Uiso   1.00
C515   C     0.79387   0.05644   0.40796   0.00000  Uiso   1.00
C516   C     0.76548   0.79636   0.15580   0.00000  Uiso   1.00
C517   C     0.72902   0.78419   0.11268   0.00000  Uiso   1.00
C518   C     0.77795   0.80000   0.04209   0.00000  Uiso   1.00
C519   C     0.83080   0.81690   0.92390   0.00000  Uiso   1.00
C520   C     0.87510   0.83260   0.18584   0.00000  Uiso   1.00
C521   C     0.83426   0.76037   0.21785   0.00000  Uiso   1.00
C522   C     0.87178   0.72320   0.22173   0.00000  Uiso   1.00
C523   C     0.82392   0.65797   0.25301   0.00000  Uiso   1.00
C524   C     0.83917   0.87995   0.24366   0.00000  Uiso   1.00
C525   C     0.88083   0.94334   0.26922   0.00000  Uiso   1.00
C526   C     0.83711   0.97879   0.32222   0.00000  Uiso   1.00
C527   C     0.84789   0.82338   0.12936   0.00000  Uiso   1.00
C528   C     0.89689   0.83923   0.05883   0.00000  Uiso   1.00
C529   C     0.86051   0.82707   0.01561   0.00000  Uiso   1.00
H530   H     0.65922   0.76181   0.25509   0.00000  Uiso   1.00
H531   H     0.64015   0.64727   0.29603   0.00000  Uiso   1.00
H532   H     0.64920   0.86737   0.34351   0.00000  Uiso   1.00
H533   H     0.66525   0.76327   0.13315   0.00000  Uiso   1.00
H534   H     0.65535   0.53220   0.32979   0.00000  Uiso   1.00
H535   H     0.67443   0.99632   0.42987   0.00000  Uiso   1.00
H536   H     0.70828   0.77681   0.98630   0.00000  Uiso   1.00
H537   H     0.93926   0.85364   0.16526   0.00000  Uiso   1.00
H538   H     0.93556   0.74413   0.20127   0.00000  Uiso   1.00
H539   H     0.94460   0.96424   0.24874   0.00000  Uiso   1.00
H540   H     0.96066   0.86014   0.03839   0.00000  Uiso   1.00
H541   H     0.89512   0.61082   0.25287   0.00000  Uiso   1.00
H542   H     0.91419   0.07494   0.35296   0.00000  Uiso   1.00
H543   H     0.94804   0.85543   0.90939   0.00000  Uiso   1.00
O544   O     0.76775   0.49783   0.31666   0.00000  Uiso   1.00
O545   O     0.79278   0.10674   0.44796   0.00000  Uiso   1.00
O546   O     0.83718   0.81874   0.86601   0.00000  Uiso   1.00
N547   N     0.71229   0.56573   0.30673   0.00000  Uiso   1.00
N548   N     0.73013   0.99964   0.40031   0.00000  Uiso   1.00
N549   N     0.76177   0.79444   0.98562   0.00000  Uiso   1.00
N550   N     0.84130   0.60803   0.26534   0.00000  Uiso   1.00
N551   N     0.85914   0.04195   0.35893   0.00000  Uiso   1.00
N552   N     0.89079   0.83675   0.94423   0.00000  Uiso   1.00
