data_job_05982
_audit_creation_date              2018-12-19
_audit_creation_method            'Materials Studio'
_symmetry_space_group_name_H-M    'P1'
_symmetry_Int_Tables_number       1
_symmetry_cell_setting            triclinic
loop_
_symmetry_equiv_pos_as_xyz
  x,y,z
_cell_length_a                    7.8170
_cell_length_b                    24.7686
_cell_length_c                    24.8644
_cell_angle_alpha                 118.9190
_cell_angle_beta                  83.5108
_cell_angle_gamma                 84.9304
loop_
_atom_site_label
_atom_site_type_symbol
_atom_site_fract_x
_atom_site_fract_y
_atom_site_fract_z
_atom_site_U_iso_or_equiv
_atom_site_adp_type
_atom_site_occupancy
C1     C     0.86600   0.83743   0.17675   0.00000  Uiso   1.00
C2     C     0.96511   0.80150   0.20219   0.00000  Uiso   1.00
C3     C     0.93650   0.74424   0.19551   0.00000  Uiso   1.00
C4     C     0.04090   0.71908   0.22220   0.00000  Uiso   1.00
C5     C     0.17521   0.65859   0.25683   0.00000  Uiso   1.00
C6     C     0.79116   0.90175   0.23277   0.00000  Uiso   1.00
C7     C     0.61630   0.92876   0.25180   0.00000  Uiso   1.00
C8     C     0.57428   0.98799   0.30423   0.00000  Uiso   1.00
C9     C     0.43855   0.08315   0.38631   0.00000  Uiso   1.00
C10    C     0.00364   0.84819   0.13592   0.00000  Uiso   1.00
C11    C     0.00741   0.83020   0.07351   0.00000  Uiso   1.00
C12    C     0.14427   0.84435   0.04440   0.00000  Uiso   1.00
C13    C     0.33845   0.85636   0.97610   0.00000  Uiso   1.00
C14    C     0.10229   0.89457   0.23604   0.00000  Uiso   1.00
C15    C     0.09345   0.83254   0.23439   0.00000  Uiso   1.00
C16    C     0.19793   0.80746   0.26110   0.00000  Uiso   1.00
C17    C     0.16948   0.75016   0.25446   0.00000  Uiso   1.00
C18    C     0.91950   0.93278   0.26498   0.00000  Uiso   1.00
C19    C     0.87773   0.99198   0.31739   0.00000  Uiso   1.00
C20    C     0.70286   0.01908   0.33649   0.00000  Uiso   1.00
C21    C     0.13199   0.87923   0.16812   0.00000  Uiso   1.00
C22    C     0.26885   0.89342   0.13910   0.00000  Uiso   1.00
C23    C     0.27284   0.87545   0.07666   0.00000  Uiso   1.00
H24    H     0.76607   0.81327   0.15168   0.00000  Uiso   1.00
H25    H     0.83715   0.72024   0.17059   0.00000  Uiso   1.00
H26    H     0.51701   0.90474   0.22687   0.00000  Uiso   1.00
H27    H     0.90807   0.80619   0.04860   0.00000  Uiso   1.00
H28    H     0.97251   0.63080   0.20577   0.00000  Uiso   1.00
H29    H     0.29749   0.01983   0.32442   0.00000  Uiso   1.00
H30    H     0.12211   0.81202   0.94852   0.00000  Uiso   1.00
H31    H     0.20221   0.91873   0.26111   0.00000  Uiso   1.00
H32    H     0.29724   0.83149   0.28602   0.00000  Uiso   1.00
H33    H     0.97709   0.01599   0.34229   0.00000  Uiso   1.00
H34    H     0.36815   0.91743   0.16404   0.00000  Uiso   1.00
H35    H     0.34593   0.72109   0.29946   0.00000  Uiso   1.00
H36    H     0.67090   0.11013   0.41811   0.00000  Uiso   1.00
H37    H     0.49553   0.90231   0.04221   0.00000  Uiso   1.00
O38    O     0.21382   0.61666   0.26705   0.00000  Uiso   1.00
O39    O     0.32822   0.12706   0.42270   0.00000  Uiso   1.00
O40    O     0.41011   0.85441   0.92953   0.00000  Uiso   1.00
N41    N     0.04738   0.66401   0.22439   0.00000  Uiso   1.00
N42    N     0.41627   0.02773   0.33533   0.00000  Uiso   1.00
N43    N     0.18720   0.83346   0.98390   0.00000  Uiso   1.00
N44    N     0.24831   0.71260   0.27480   0.00000  Uiso   1.00
N45    N     0.61721   0.07632   0.38574   0.00000  Uiso   1.00
N46    N     0.38813   0.88205   0.03431   0.00000  Uiso   1.00
C47    C     0.04325   0.82254   0.66136   0.00000  Uiso   1.00
C48    C     0.16907   0.79743   0.59985   0.00000  Uiso   1.00
C49    C     0.13583   0.80407   0.54951   0.00000  Uiso   1.00
C50    C     0.26781   0.77772   0.49746   0.00000  Uiso   1.00
C51    C     0.43889   0.74355   0.40218   0.00000  Uiso   1.00
C52    C     0.02208   0.76627   0.66971   0.00000  Uiso   1.00
C53    C     0.86524   0.74673   0.67812   0.00000  Uiso   1.00
C54    C     0.87348   0.69415   0.68489   0.00000  Uiso   1.00
C55    C     0.81633   0.61164   0.69812   0.00000  Uiso   1.00
C56    C     0.13973   0.86374   0.71251   0.00000  Uiso   1.00
C57    C     0.08179   0.92614   0.75692   0.00000  Uiso   1.00
C58    C     0.18907   0.95562   0.79974   0.00000  Uiso   1.00
C59    C     0.31460   0.02444   0.87942   0.00000  Uiso   1.00
C60    C     0.33674   0.76392   0.65842   0.00000  Uiso   1.00
C61    C     0.32848   0.76559   0.59825   0.00000  Uiso   1.00
C62    C     0.46055   0.73922   0.54627   0.00000  Uiso   1.00
C63    C     0.42751   0.74583   0.49586   0.00000  Uiso   1.00
C64    C     0.18148   0.73444   0.66811   0.00000  Uiso   1.00
C65    C     0.18995   0.68188   0.67488   0.00000  Uiso   1.00
C66    C     0.03317   0.66226   0.68329   0.00000  Uiso   1.00
C67    C     0.29914   0.83190   0.71091   0.00000  Uiso   1.00
C68    C     0.40651   0.86129   0.75367   0.00000  Uiso   1.00
C69    C     0.34877   0.92373   0.79814   0.00000  Uiso   1.00
H70    H     0.91914   0.84732   0.66260   0.00000  Uiso   1.00
H71    H     0.01244   0.82870   0.55076   0.00000  Uiso   1.00
H72    H     0.74190   0.77137   0.67936   0.00000  Uiso   1.00
H73    H     0.95843   0.95076   0.75814   0.00000  Uiso   1.00
H74    H     0.18617   0.79401   0.42606   0.00000  Uiso   1.00
H75    H     0.61570   0.67314   0.69723   0.00000  Uiso   1.00
H76    H     0.07229   0.05141   0.86337   0.00000  Uiso   1.00
H77    H     0.46085   0.73914   0.65718   0.00000  Uiso   1.00
H78    H     0.58389   0.71459   0.54505   0.00000  Uiso   1.00
H79    H     0.31334   0.65726   0.67364   0.00000  Uiso   1.00
H80    H     0.52987   0.83664   0.75243   0.00000  Uiso   1.00
H81    H     0.64997   0.70139   0.42142   0.00000  Uiso   1.00
H82    H     0.07949   0.58052   0.69260   0.00000  Uiso   1.00
H83    H     0.53609   0.95879   0.85872   0.00000  Uiso   1.00
O84    O     0.48921   0.73349   0.35006   0.00000  Uiso   1.00
O85    O     0.74077   0.57491   0.70584   0.00000  Uiso   1.00
O86    O     0.33981   0.07119   0.92380   0.00000  Uiso   1.00
N87    N     0.27845   0.77559   0.44036   0.00000  Uiso   1.00
N88    N     0.74510   0.66258   0.69388   0.00000  Uiso   1.00
N89    N     0.17195   0.01622   0.84921   0.00000  Uiso   1.00
N90    N     0.52802   0.72575   0.43786   0.00000  Uiso   1.00
N91    N     0.99467   0.61274   0.69138   0.00000  Uiso   1.00
N92    N     0.42152   0.96638   0.84672   0.00000  Uiso   1.00
C93    C     0.70294   0.33779   0.16186   0.00000  Uiso   1.00
C94    C     0.76822   0.39966   0.19794   0.00000  Uiso   1.00
C95    C     0.68446   0.44986   0.25495   0.00000  Uiso   1.00
C96    C     0.76538   0.50229   0.28033   0.00000  Uiso   1.00
C97    C     0.84251   0.59805   0.34099   0.00000  Uiso   1.00
C98    C     0.69212   0.32943   0.09748   0.00000  Uiso   1.00
C99    C     0.54438   0.32058   0.07003   0.00000  Uiso   1.00
C100   C     0.56127   0.31388   0.01083   0.00000  Uiso   1.00
C101   C     0.52029   0.30057   0.91550   0.00000  Uiso   1.00
C102   C     0.84904   0.28692   0.15156   0.00000  Uiso   1.00
C103   C     0.83325   0.24231   0.16955   0.00000  Uiso   1.00
C104   C     0.98224   0.19981   0.15586   0.00000  Uiso   1.00
C105   C     0.18491   0.12048   0.14450   0.00000  Uiso   1.00
C106   C     0.99562   0.34163   0.10554   0.00000  Uiso   1.00
C107   C     0.92719   0.40174   0.16735   0.00000  Uiso   1.00
C108   C     0.00827   0.45411   0.19265   0.00000  Uiso   1.00
C109   C     0.92464   0.50438   0.24968   0.00000  Uiso   1.00
C110   C     0.85108   0.33152   0.06689   0.00000  Uiso   1.00
C111   C     0.86820   0.32483   0.00772   0.00000  Uiso   1.00
C112   C     0.72052   0.31597   0.98018   0.00000  Uiso   1.00
C113   C     0.00802   0.28900   0.12097   0.00000  Uiso   1.00
C114   C     0.15706   0.24656   0.10724   0.00000  Uiso   1.00
C115   C     0.14150   0.20189   0.12521   0.00000  Uiso   1.00
H116   H     0.57917   0.33617   0.18567   0.00000  Uiso   1.00
H117   H     0.56142   0.44824   0.27861   0.00000  Uiso   1.00
H118   H     0.42139   0.31896   0.09371   0.00000  Uiso   1.00
H119   H     0.71021   0.24071   0.19322   0.00000  Uiso   1.00
H120   H     0.61182   0.57341   0.36815   0.00000  Uiso   1.00
H121   H     0.31655   0.30081   0.97826   0.00000  Uiso   1.00
H122   H     0.92559   0.13579   0.18810   0.00000  Uiso   1.00
H123   H     0.11939   0.34325   0.08172   0.00000  Uiso   1.00
H124   H     0.13129   0.45571   0.16896   0.00000  Uiso   1.00
H125   H     0.99124   0.32644   0.98406   0.00000  Uiso   1.00
H126   H     0.28006   0.24819   0.08357   0.00000  Uiso   1.00
H127   H     0.07433   0.57948   0.27915   0.00000  Uiso   1.00
H128   H     0.77907   0.30688   0.88926   0.00000  Uiso   1.00
H129   H     0.38810   0.14186   0.09910   0.00000  Uiso   1.00
O130   O     0.84113   0.65030   0.38290   0.00000  Uiso   1.00
O131   O     0.45376   0.29265   0.87138   0.00000  Uiso   1.00
O132   O     0.25279   0.07616   0.14669   0.00000  Uiso   1.00
N133   N     0.71906   0.55940   0.33524   0.00000  Uiso   1.00
N134   N     0.44299   0.30455   0.97072   0.00000  Uiso   1.00
N135   N     0.01237   0.15026   0.16689   0.00000  Uiso   1.00
N136   N     0.96793   0.56266   0.28735   0.00000  Uiso   1.00
N137   N     0.69187   0.30781   0.92283   0.00000  Uiso   1.00
N138   N     0.26125   0.15352   0.11900   0.00000  Uiso   1.00
C139   C     0.13400   0.16257   0.82325   0.00000  Uiso   1.00
C140   C     0.03489   0.19850   0.79781   0.00000  Uiso   1.00
C141   C     0.06350   0.25576   0.80449   0.00000  Uiso   1.00
C142   C     0.95910   0.28092   0.77780   0.00000  Uiso   1.00
C143   C     0.82479   0.34141   0.74317   0.00000  Uiso   1.00
C144   C     0.20884   0.09825   0.76723   0.00000  Uiso   1.00
C145   C     0.38370   0.07124   0.74820   0.00000  Uiso   1.00
C146   C     0.42572   0.01201   0.69577   0.00000  Uiso   1.00
C147   C     0.56145   0.91685   0.61369   0.00000  Uiso   1.00
C148   C     0.99636   0.15181   0.86408   0.00000  Uiso   1.00
C149   C     0.99258   0.16980   0.92649   0.00000  Uiso   1.00
C150   C     0.85573   0.15565   0.95560   0.00000  Uiso   1.00
C151   C     0.66155   0.14364   0.02390   0.00000  Uiso   1.00
C152   C     0.89771   0.10543   0.76396   0.00000  Uiso   1.00
C153   C     0.90655   0.16746   0.76561   0.00000  Uiso   1.00
C154   C     0.80207   0.19254   0.73890   0.00000  Uiso   1.00
C155   C     0.83052   0.24984   0.74554   0.00000  Uiso   1.00
C156   C     0.08050   0.06722   0.73502   0.00000  Uiso   1.00
C157   C     0.12227   0.00802   0.68261   0.00000  Uiso   1.00
C158   C     0.29714   0.98092   0.66351   0.00000  Uiso   1.00
C159   C     0.86801   0.12077   0.83188   0.00000  Uiso   1.00
C160   C     0.73115   0.10658   0.86090   0.00000  Uiso   1.00
C161   C     0.72716   0.12455   0.92334   0.00000  Uiso   1.00
H162   H     0.23393   0.18673   0.84832   0.00000  Uiso   1.00
H163   H     0.16285   0.27976   0.82941   0.00000  Uiso   1.00
H164   H     0.48299   0.09526   0.77313   0.00000  Uiso   1.00
H165   H     0.09193   0.19381   0.95139   0.00000  Uiso   1.00
H166   H     0.02749   0.36920   0.79423   0.00000  Uiso   1.00
H167   H     0.70251   0.98017   0.67558   0.00000  Uiso   1.00
H168   H     0.87789   0.18798   0.05148   0.00000  Uiso   1.00
H169   H     0.79778   0.08127   0.73889   0.00000  Uiso   1.00
H170   H     0.70276   0.16851   0.71398   0.00000  Uiso   1.00
H171   H     0.02291   0.98401   0.65771   0.00000  Uiso   1.00
H172   H     0.63185   0.08256   0.83596   0.00000  Uiso   1.00
H173   H     0.65407   0.27891   0.70054   0.00000  Uiso   1.00
H174   H     0.32910   0.88987   0.58189   0.00000  Uiso   1.00
H175   H     0.50447   0.09769   0.95779   0.00000  Uiso   1.00
O176   O     0.78618   0.38334   0.73295   0.00000  Uiso   1.00
O177   O     0.67178   0.87294   0.57730   0.00000  Uiso   1.00
O178   O     0.58989   0.14559   0.07047   0.00000  Uiso   1.00
N179   N     0.95262   0.33599   0.77561   0.00000  Uiso   1.00
N180   N     0.58373   0.97227   0.66467   0.00000  Uiso   1.00
N181   N     0.81280   0.16654   0.01610   0.00000  Uiso   1.00
N182   N     0.75169   0.28740   0.72520   0.00000  Uiso   1.00
N183   N     0.38279   0.92368   0.61426   0.00000  Uiso   1.00
N184   N     0.61187   0.11795   0.96569   0.00000  Uiso   1.00
C185   C     0.95675   0.17746   0.33864   0.00000  Uiso   1.00
C186   C     0.83093   0.20257   0.40015   0.00000  Uiso   1.00
C187   C     0.86417   0.19593   0.45049   0.00000  Uiso   1.00
C188   C     0.73219   0.22228   0.50254   0.00000  Uiso   1.00
C189   C     0.56111   0.25645   0.59782   0.00000  Uiso   1.00
C190   C     0.97792   0.23373   0.33029   0.00000  Uiso   1.00
C191   C     0.13476   0.25327   0.32188   0.00000  Uiso   1.00
C192   C     0.12652   0.30585   0.31511   0.00000  Uiso   1.00
C193   C     0.18367   0.38836   0.30188   0.00000  Uiso   1.00
C194   C     0.86027   0.13626   0.28749   0.00000  Uiso   1.00
C195   C     0.91821   0.07386   0.24308   0.00000  Uiso   1.00
C196   C     0.81093   0.04438   0.20026   0.00000  Uiso   1.00
C197   C     0.68541   0.97556   0.12058   0.00000  Uiso   1.00
C198   C     0.66326   0.23607   0.34158   0.00000  Uiso   1.00
C199   C     0.67152   0.23441   0.40175   0.00000  Uiso   1.00
C200   C     0.53945   0.26078   0.45373   0.00000  Uiso   1.00
C201   C     0.57249   0.25417   0.50414   0.00000  Uiso   1.00
C202   C     0.81852   0.26556   0.33189   0.00000  Uiso   1.00
C203   C     0.81005   0.31812   0.32512   0.00000  Uiso   1.00
C204   C     0.96683   0.33774   0.31671   0.00000  Uiso   1.00
C205   C     0.70086   0.16810   0.28908   0.00000  Uiso   1.00
C206   C     0.59349   0.13871   0.24633   0.00000  Uiso   1.00
C207   C     0.65123   0.07627   0.20186   0.00000  Uiso   1.00
H208   H     0.08086   0.15268   0.33740   0.00000  Uiso   1.00
H209   H     0.98756   0.17130   0.44924   0.00000  Uiso   1.00
H210   H     0.25810   0.22863   0.32064   0.00000  Uiso   1.00
H211   H     0.04157   0.04924   0.24186   0.00000  Uiso   1.00
H212   H     0.81383   0.20599   0.57394   0.00000  Uiso   1.00
H213   H     0.38430   0.32686   0.30277   0.00000  Uiso   1.00
H214   H     0.92771   0.94859   0.13663   0.00000  Uiso   1.00
H215   H     0.53915   0.26086   0.34282   0.00000  Uiso   1.00
H216   H     0.41611   0.28541   0.45495   0.00000  Uiso   1.00
H217   H     0.68666   0.34274   0.32636   0.00000  Uiso   1.00
H218   H     0.47013   0.16336   0.24757   0.00000  Uiso   1.00
H219   H     0.35003   0.29861   0.57858   0.00000  Uiso   1.00
H220   H     0.92051   0.41948   0.30740   0.00000  Uiso   1.00
H221   H     0.46391   0.04121   0.14127   0.00000  Uiso   1.00
O222   O     0.51079   0.26651   0.64994   0.00000  Uiso   1.00
O223   O     0.25923   0.42509   0.29416   0.00000  Uiso   1.00
O224   O     0.66019   0.92881   0.07620   0.00000  Uiso   1.00
N225   N     0.72155   0.22441   0.55964   0.00000  Uiso   1.00
N226   N     0.25490   0.33742   0.30612   0.00000  Uiso   1.00
N227   N     0.82805   0.98378   0.15079   0.00000  Uiso   1.00
N228   N     0.47198   0.27425   0.56214   0.00000  Uiso   1.00
N229   N     0.00533   0.38726   0.30862   0.00000  Uiso   1.00
N230   N     0.57848   0.03362   0.15328   0.00000  Uiso   1.00
C231   C     0.29706   0.66221   0.83814   0.00000  Uiso   1.00
C232   C     0.23178   0.60034   0.80206   0.00000  Uiso   1.00
C233   C     0.31554   0.55013   0.74505   0.00000  Uiso   1.00
C234   C     0.23462   0.49771   0.71967   0.00000  Uiso   1.00
C235   C     0.15749   0.40195   0.65901   0.00000  Uiso   1.00
C236   C     0.30788   0.67056   0.90252   0.00000  Uiso   1.00
C237   C     0.45562   0.67942   0.92997   0.00000  Uiso   1.00
C238   C     0.43873   0.68612   0.98917   0.00000  Uiso   1.00
C239   C     0.47971   0.69943   0.08450   0.00000  Uiso   1.00
C240   C     0.15096   0.71308   0.84844   0.00000  Uiso   1.00
C241   C     0.16675   0.75769   0.83045   0.00000  Uiso   1.00
C242   C     0.01776   0.80019   0.84414   0.00000  Uiso   1.00
C243   C     0.81509   0.87952   0.85550   0.00000  Uiso   1.00
C244   C     0.00438   0.65837   0.89446   0.00000  Uiso   1.00
C245   C     0.07281   0.59826   0.83265   0.00000  Uiso   1.00
C246   C     0.99173   0.54589   0.80735   0.00000  Uiso   1.00
C247   C     0.07536   0.49562   0.75032   0.00000  Uiso   1.00
C248   C     0.14892   0.66848   0.93311   0.00000  Uiso   1.00
C249   C     0.13180   0.67517   0.99228   0.00000  Uiso   1.00
C250   C     0.27948   0.68403   0.01982   0.00000  Uiso   1.00
C251   C     0.99198   0.71100   0.87903   0.00000  Uiso   1.00
C252   C     0.84294   0.75344   0.89276   0.00000  Uiso   1.00
C253   C     0.85850   0.79811   0.87479   0.00000  Uiso   1.00
H254   H     0.42083   0.66383   0.81433   0.00000  Uiso   1.00
H255   H     0.43858   0.55176   0.72139   0.00000  Uiso   1.00
H256   H     0.57861   0.68104   0.90629   0.00000  Uiso   1.00
H257   H     0.28979   0.75929   0.80678   0.00000  Uiso   1.00
H258   H     0.38818   0.42659   0.63185   0.00000  Uiso   1.00
H259   H     0.68345   0.69919   0.02174   0.00000  Uiso   1.00
H260   H     0.07441   0.86421   0.81190   0.00000  Uiso   1.00
H261   H     0.88061   0.65675   0.91828   0.00000  Uiso   1.00
H262   H     0.86871   0.54429   0.83104   0.00000  Uiso   1.00
H263   H     0.00876   0.67356   0.01594   0.00000  Uiso   1.00
H264   H     0.71994   0.75181   0.91643   0.00000  Uiso   1.00
H265   H     0.92567   0.42052   0.72085   0.00000  Uiso   1.00
H266   H     0.22093   0.69312   0.11074   0.00000  Uiso   1.00
H267   H     0.61190   0.85814   0.90090   0.00000  Uiso   1.00
O268   O     0.15887   0.34970   0.61710   0.00000  Uiso   1.00
O269   O     0.54624   0.70735   0.12862   0.00000  Uiso   1.00
O270   O     0.74721   0.92384   0.85331   0.00000  Uiso   1.00
N271   N     0.28094   0.44060   0.66476   0.00000  Uiso   1.00
N272   N     0.55701   0.69545   0.02928   0.00000  Uiso   1.00
N273   N     0.98762   0.84974   0.83311   0.00000  Uiso   1.00
N274   N     0.03207   0.43734   0.71265   0.00000  Uiso   1.00
N275   N     0.30813   0.69219   0.07717   0.00000  Uiso   1.00
N276   N     0.73875   0.84648   0.88100   0.00000  Uiso   1.00
