data_job_06421
_audit_creation_date              2018-12-19
_audit_creation_method            'Materials Studio'
_symmetry_space_group_name_H-M    'P1'
_symmetry_Int_Tables_number       1
_symmetry_cell_setting            triclinic
loop_
_symmetry_equiv_pos_as_xyz
  x,y,z
_cell_length_a                    17.1465
_cell_length_b                    16.6982
_cell_length_c                    16.5328
_cell_angle_alpha                 106.2150
_cell_angle_beta                  106.0120
_cell_angle_gamma                 106.5200
loop_
_atom_site_label
_atom_site_type_symbol
_atom_site_fract_x
_atom_site_fract_y
_atom_site_fract_z
_atom_site_U_iso_or_equiv
_atom_site_adp_type
_atom_site_occupancy
C1     C     0.98494   0.38041   0.04791   0.00000  Uiso   1.00
C2     C     0.97336   0.30046   0.07741   0.00000  Uiso   1.00
C3     C     0.89348   0.23310   0.05815   0.00000  Uiso   1.00
C4     C     0.89688   0.16584   0.09126   0.00000  Uiso   1.00
C5     C     0.86666   0.04171   0.12942   0.00000  Uiso   1.00
C6     C     0.03838   0.46538   0.13530   0.00000  Uiso   1.00
C7     C     0.01316   0.53667   0.16469   0.00000  Uiso   1.00
C8     C     0.07130   0.60824   0.24652   0.00000  Uiso   1.00
C9     C     0.14205   0.74017   0.37451   0.00000  Uiso   1.00
C10    C     0.04457   0.37561   0.99481   0.00000  Uiso   1.00
C11    C     0.02458   0.37145   0.90609   0.00000  Uiso   1.00
C12    C     0.08795   0.36746   0.86965   0.00000  Uiso   1.00
C13    C     0.16831   0.36000   0.77951   0.00000  Uiso   1.00
C14    C     0.13304   0.38074   0.14097   0.00000  Uiso   1.00
C15    C     0.05381   0.30065   0.12796   0.00000  Uiso   1.00
C16    C     0.05733   0.23347   0.16111   0.00000  Uiso   1.00
C17    C     0.97747   0.16602   0.14189   0.00000  Uiso   1.00
C18    C     0.11882   0.46556   0.18584   0.00000  Uiso   1.00
C19    C     0.17701   0.53704   0.26765   0.00000  Uiso   1.00
C20    C     0.15189   0.60842   0.29716   0.00000  Uiso   1.00
C21    C     0.12502   0.37578   0.04536   0.00000  Uiso   1.00
C22    C     0.18843   0.37181   0.00905   0.00000  Uiso   1.00
C23    C     0.16853   0.36764   0.92029   0.00000  Uiso   1.00
H24    H     0.92232   0.38027   0.00857   0.00000  Uiso   1.00
H25    H     0.83124   0.23299   0.01904   0.00000  Uiso   1.00
H26    H     0.95091   0.53652   0.12556   0.00000  Uiso   1.00
H27    H     0.96232   0.37131   0.86700   0.00000  Uiso   1.00
H28    H     0.76574   0.06981   0.05297   0.00000  Uiso   1.00
H29    H     0.01807   0.70982   0.27755   0.00000  Uiso   1.00
H30    H     0.04215   0.36145   0.73233   0.00000  Uiso   1.00
H31    H     0.19567   0.38088   0.18033   0.00000  Uiso   1.00
H32    H     0.11959   0.23362   0.20022   0.00000  Uiso   1.00
H33    H     0.23926   0.53715   0.30674   0.00000  Uiso   1.00
H34    H     0.25067   0.37195   0.04818   0.00000  Uiso   1.00
H35    H     0.99978   0.07032   0.20003   0.00000  Uiso   1.00
H36    H     0.25211   0.71034   0.42461   0.00000  Uiso   1.00
H37    H     0.27619   0.36197   0.87939   0.00000  Uiso   1.00
O38    O     0.82778   0.97320   0.13651   0.00000  Uiso   1.00
O39    O     0.15884   0.81289   0.43114   0.00000  Uiso   1.00
O40    O     0.19042   0.35583   0.71583   0.00000  Uiso   1.00
N41    N     0.83126   0.09012   0.08483   0.00000  Uiso   1.00
N42    N     0.06717   0.68850   0.29481   0.00000  Uiso   1.00
N43    N     0.08969   0.36282   0.78508   0.00000  Uiso   1.00
N44    N     0.95719   0.09040   0.16396   0.00000  Uiso   1.00
N45    N     0.19311   0.68877   0.37394   0.00000  Uiso   1.00
N46    N     0.21562   0.36310   0.86421   0.00000  Uiso   1.00
C47    C     0.04713   0.98053   0.37992   0.00000  Uiso   1.00
C48    C     0.07477   0.96852   0.29864   0.00000  Uiso   1.00
C49    C     0.05452   0.88641   0.23025   0.00000  Uiso   1.00
C50    C     0.08596   0.88980   0.16185   0.00000  Uiso   1.00
C51    C     0.12133   0.85859   0.03566   0.00000  Uiso   1.00
C52    C     0.13213   0.03436   0.46488   0.00000  Uiso   1.00
C53    C     0.16009   0.00760   0.53625   0.00000  Uiso   1.00
C54    C     0.23981   0.06642   0.60779   0.00000  Uiso   1.00
C55    C     0.36419   0.13745   0.73971   0.00000  Uiso   1.00
C56    C     0.99745   0.04290   0.37634   0.00000  Uiso   1.00
C57    C     0.91217   0.02334   0.37330   0.00000  Uiso   1.00
C58    C     0.87850   0.08937   0.37032   0.00000  Uiso   1.00
C59    C     0.79377   0.17367   0.36478   0.00000  Uiso   1.00
C60    C     0.13899   0.13257   0.38006   0.00000  Uiso   1.00
C61    C     0.12467   0.05111   0.29872   0.00000  Uiso   1.00
C62    C     0.15615   0.05463   0.23040   0.00000  Uiso   1.00
C63    C     0.13594   0.97253   0.16192   0.00000  Uiso   1.00
C64    C     0.18203   0.11694   0.46495   0.00000  Uiso   1.00
C65    C     0.26172   0.17582   0.53640   0.00000  Uiso   1.00
C66    C     0.28979   0.14915   0.60786   0.00000  Uiso   1.00
C67    C     0.04734   0.12549   0.37642   0.00000  Uiso   1.00
C68    C     0.01380   0.19156   0.37345   0.00000  Uiso   1.00
C69    C     0.92849   0.17210   0.37040   0.00000  Uiso   1.00
H70    H     0.00829   0.91623   0.37987   0.00000  Uiso   1.00
H71    H     0.01591   0.82251   0.23022   0.00000  Uiso   1.00
H72    H     0.12146   0.94369   0.53618   0.00000  Uiso   1.00
H73    H     0.87358   0.95942   0.37325   0.00000  Uiso   1.00
H74    H     0.04639   0.75501   0.06436   0.00000  Uiso   1.00
H75    H     0.26893   0.01054   0.70950   0.00000  Uiso   1.00
H76    H     0.74622   0.04373   0.36593   0.00000  Uiso   1.00
H77    H     0.17784   0.19688   0.38012   0.00000  Uiso   1.00
H78    H     0.19476   0.11855   0.23048   0.00000  Uiso   1.00
H79    H     0.30031   0.23973   0.53644   0.00000  Uiso   1.00
H80    H     0.05243   0.25546   0.37351   0.00000  Uiso   1.00
H81    H     0.19156   0.99529   0.06457   0.00000  Uiso   1.00
H82    H     0.41409   0.25082   0.70972   0.00000  Uiso   1.00
H83    H     0.89139   0.28401   0.36615   0.00000  Uiso   1.00
O84    O     0.12707   0.81856   0.96604   0.00000  Uiso   1.00
O85    O     0.41902   0.15380   0.81245   0.00000  Uiso   1.00
O86    O     0.73325   0.19735   0.36169   0.00000  Uiso   1.00
N87    N     0.07821   0.82231   0.08494   0.00000  Uiso   1.00
N88    N     0.28628   0.06121   0.68810   0.00000  Uiso   1.00
N89    N     0.79761   0.09224   0.36692   0.00000  Uiso   1.00
N90    N     0.15633   0.95161   0.08505   0.00000  Uiso   1.00
N91    N     0.36440   0.19050   0.68821   0.00000  Uiso   1.00
N92    N     0.87572   0.22154   0.36703   0.00000  Uiso   1.00
C93    C     0.37737   0.04639   0.97911   0.00000  Uiso   1.00
C94    C     0.30008   0.07605   0.96842   0.00000  Uiso   1.00
C95    C     0.23390   0.05630   0.88633   0.00000  Uiso   1.00
C96    C     0.16907   0.08966   0.89103   0.00000  Uiso   1.00
C97    C     0.04889   0.12796   0.86167   0.00000  Uiso   1.00
C98    C     0.46051   0.13303   0.03290   0.00000  Uiso   1.00
C99    C     0.52921   0.16117   0.00503   0.00000  Uiso   1.00
C100   C     0.59943   0.24250   0.06402   0.00000  Uiso   1.00
C101   C     0.72833   0.36923   0.13481   0.00000  Uiso   1.00
C102   C     0.37327   0.99477   0.04177   0.00000  Uiso   1.00
C103   C     0.36864   0.90667   0.02137   0.00000  Uiso   1.00
C104   C     0.36544   0.87160   0.08783   0.00000  Uiso   1.00
C105   C     0.35890   0.78365   0.17238   0.00000  Uiso   1.00
C106   C     0.37993   0.14077   0.13342   0.00000  Uiso   1.00
C107   C     0.30148   0.12732   0.05223   0.00000  Uiso   1.00
C108   C     0.23674   0.16072   0.05706   0.00000  Uiso   1.00
C109   C     0.17047   0.14102   0.97499   0.00000  Uiso   1.00
C110   C     0.46190   0.18430   0.11671   0.00000  Uiso   1.00
C111   C     0.53205   0.26560   0.17576   0.00000  Uiso   1.00
C112   C     0.60083   0.29386   0.14799   0.00000  Uiso   1.00
C113   C     0.37466   0.04603   0.12558   0.00000  Uiso   1.00
C114   C     0.37148   0.01109   0.19210   0.00000  Uiso   1.00
C115   C     0.36684   0.92296   0.17180   0.00000  Uiso   1.00
H116   H     0.37629   0.00648   0.91386   0.00000  Uiso   1.00
H117   H     0.23285   0.01663   0.82148   0.00000  Uiso   1.00
H118   H     0.52811   0.12148   0.94017   0.00000  Uiso   1.00
H119   H     0.36757   0.86702   0.95650   0.00000  Uiso   1.00
H120   H     0.07445   0.05051   0.75602   0.00000  Uiso   1.00
H121   H     0.69705   0.27159   0.00630   0.00000  Uiso   1.00
H122   H     0.35851   0.73500   0.04074   0.00000  Uiso   1.00
H123   H     0.38102   0.18069   0.19868   0.00000  Uiso   1.00
H124   H     0.23784   0.20039   0.12193   0.00000  Uiso   1.00
H125   H     0.53310   0.30525   0.24062   0.00000  Uiso   1.00
H126   H     0.37256   0.05079   0.25695   0.00000  Uiso   1.00
H127   H     0.07850   0.19967   0.99988   0.00000  Uiso   1.00
H128   H     0.70110   0.42075   0.25016   0.00000  Uiso   1.00
H129   H     0.36256   0.88416   0.28459   0.00000  Uiso   1.00
O130   O     0.98222   0.13494   0.82232   0.00000  Uiso   1.00
O131   O     0.79905   0.42497   0.15068   0.00000  Uiso   1.00
O132   O     0.35489   0.72098   0.19586   0.00000  Uiso   1.00
N133   N     0.09505   0.08290   0.82395   0.00000  Uiso   1.00
N134   N     0.67713   0.28960   0.05794   0.00000  Uiso   1.00
N135   N     0.36065   0.78794   0.09014   0.00000  Uiso   1.00
N136   N     0.09723   0.16315   0.95516   0.00000  Uiso   1.00
N137   N     0.67931   0.36986   0.18916   0.00000  Uiso   1.00
N138   N     0.36283   0.86820   0.22136   0.00000  Uiso   1.00
C139   C     0.48464   0.54785   0.88144   0.00000  Uiso   1.00
C140   C     0.47328   0.57680   0.80067   0.00000  Uiso   1.00
C141   C     0.39349   0.55720   0.73305   0.00000  Uiso   1.00
C142   C     0.39709   0.58982   0.66500   0.00000  Uiso   1.00
C143   C     0.36720   0.62714   0.53966   0.00000  Uiso   1.00
C144   C     0.53808   0.63482   0.96680   0.00000  Uiso   1.00
C145   C     0.51278   0.66398   0.03887   0.00000  Uiso   1.00
C146   C     0.57094   0.74544   0.11068   0.00000  Uiso   1.00
C147   C     0.64168   0.87280   0.24330   0.00000  Uiso   1.00
C148   C     0.54418   0.49555   0.87645   0.00000  Uiso   1.00
C149   C     0.52402   0.40761   0.87257   0.00000  Uiso   1.00
C150   C     0.58732   0.37182   0.86833   0.00000  Uiso   1.00
C151   C     0.66753   0.28294   0.86066   0.00000  Uiso   1.00
C152   C     0.63293   0.64066   0.88085   0.00000  Uiso   1.00
C153   C     0.55382   0.62721   0.80035   0.00000  Uiso   1.00
C154   C     0.55755   0.65987   0.73239   0.00000  Uiso   1.00
C155   C     0.47778   0.64032   0.66468   0.00000  Uiso   1.00
C156   C     0.61862   0.68523   0.96649   0.00000  Uiso   1.00
C157   C     0.67684   0.76666   0.03821   0.00000  Uiso   1.00
C158   C     0.65163   0.79594   0.11036   0.00000  Uiso   1.00
C159   C     0.62472   0.54595   0.87613   0.00000  Uiso   1.00
C160   C     0.68807   0.51029   0.87191   0.00000  Uiso   1.00
C161   C     0.66801   0.42232   0.86801   0.00000  Uiso   1.00
H162   H     0.42194   0.50861   0.88170   0.00000  Uiso   1.00
H163   H     0.33117   0.51819   0.73332   0.00000  Uiso   1.00
H164   H     0.45045   0.62495   0.03910   0.00000  Uiso   1.00
H165   H     0.46168   0.36863   0.87282   0.00000  Uiso   1.00
H166   H     0.26606   0.55107   0.56870   0.00000  Uiso   1.00
H167   H     0.51757   0.77617   0.21346   0.00000  Uiso   1.00
H168   H     0.54126   0.23565   0.86283   0.00000  Uiso   1.00
H169   H     0.69564   0.67991   0.88060   0.00000  Uiso   1.00
H170   H     0.61989   0.69888   0.73216   0.00000  Uiso   1.00
H171   H     0.73916   0.80565   0.03794   0.00000  Uiso   1.00
H172   H     0.75040   0.54932   0.87166   0.00000  Uiso   1.00
H173   H     0.50039   0.69773   0.56776   0.00000  Uiso   1.00
H174   H     0.75191   0.92283   0.21253   0.00000  Uiso   1.00
H175   H     0.77559   0.38231   0.86189   0.00000  Uiso   1.00
O176   O     0.32846   0.63381   0.47062   0.00000  Uiso   1.00
O177   O     0.65844   0.92913   0.31653   0.00000  Uiso   1.00
O178   O     0.68952   0.21998   0.85650   0.00000  Uiso   1.00
N179   N     0.33161   0.58296   0.58884   0.00000  Uiso   1.00
N180   N     0.56675   0.79343   0.19165   0.00000  Uiso   1.00
N181   N     0.58891   0.28810   0.86386   0.00000  Uiso   1.00
N182   N     0.45770   0.66188   0.58833   0.00000  Uiso   1.00
N183   N     0.69284   0.87234   0.19114   0.00000  Uiso   1.00
N184   N     0.71500   0.36701   0.86335   0.00000  Uiso   1.00
C185   C     0.54750   0.87895   0.47943   0.00000  Uiso   1.00
C186   C     0.57501   0.79859   0.46738   0.00000  Uiso   1.00
C187   C     0.55478   0.73058   0.38470   0.00000  Uiso   1.00
C188   C     0.58608   0.66302   0.38815   0.00000  Uiso   1.00
C189   C     0.62126   0.53818   0.35678   0.00000  Uiso   1.00
C190   C     0.63256   0.96358   0.53319   0.00000  Uiso   1.00
C191   C     0.66071   0.03430   0.50585   0.00000  Uiso   1.00
C192   C     0.74046   0.10563   0.56471   0.00000  Uiso   1.00
C193   C     0.86496   0.23698   0.63555   0.00000  Uiso   1.00
C194   C     0.49768   0.87534   0.54267   0.00000  Uiso   1.00
C195   C     0.41244   0.87189   0.52332   0.00000  Uiso   1.00
C196   C     0.37863   0.86895   0.59018   0.00000  Uiso   1.00
C197   C     0.29372   0.86329   0.67574   0.00000  Uiso   1.00
C198   C     0.63906   0.87990   0.63259   0.00000  Uiso   1.00
C199   C     0.62474   0.79911   0.55057   0.00000  Uiso   1.00
C200   C     0.65608   0.73162   0.55415   0.00000  Uiso   1.00
C201   C     0.63590   0.66353   0.47149   0.00000  Uiso   1.00
C202   C     0.68229   0.96410   0.61638   0.00000  Uiso   1.00
C203   C     0.76201   0.03534   0.67530   0.00000  Uiso   1.00
C204   C     0.79028   0.10615   0.64806   0.00000  Uiso   1.00
C205   C     0.54742   0.87585   0.62586   0.00000  Uiso   1.00
C206   C     0.51374   0.87293   0.69277   0.00000  Uiso   1.00
C207   C     0.42846   0.86947   0.67352   0.00000  Uiso   1.00
H208   H     0.50878   0.87856   0.41466   0.00000  Uiso   1.00
H209   H     0.51629   0.73022   0.32033   0.00000  Uiso   1.00
H210   H     0.62221   0.03389   0.44147   0.00000  Uiso   1.00
H211   H     0.37397   0.87150   0.45893   0.00000  Uiso   1.00
H212   H     0.54658   0.56599   0.25243   0.00000  Uiso   1.00
H213   H     0.76989   0.20632   0.50787   0.00000  Uiso   1.00
H214   H     0.24644   0.86389   0.54470   0.00000  Uiso   1.00
H215   H     0.67778   0.88030   0.69736   0.00000  Uiso   1.00
H216   H     0.69456   0.73204   0.61854   0.00000  Uiso   1.00
H217   H     0.80048   0.03572   0.73968   0.00000  Uiso   1.00
H218   H     0.55224   0.87332   0.75714   0.00000  Uiso   1.00
H219   H     0.69127   0.56747   0.49447   0.00000  Uiso   1.00
H220   H     0.91458   0.20781   0.74992   0.00000  Uiso   1.00
H221   H     0.39113   0.86537   0.78674   0.00000  Uiso   1.00
O222   O     0.62694   0.46919   0.31650   0.00000  Uiso   1.00
O223   O     0.91990   0.30928   0.65164   0.00000  Uiso   1.00
O224   O     0.23315   0.86001   0.69995   0.00000  Uiso   1.00
N225   N     0.57832   0.58667   0.32021   0.00000  Uiso   1.00
N226   N     0.78710   0.18534   0.55903   0.00000  Uiso   1.00
N227   N     0.29773   0.86522   0.59347   0.00000  Uiso   1.00
N228   N     0.65617   0.58747   0.45045   0.00000  Uiso   1.00
N229   N     0.86496   0.18614   0.68927   0.00000  Uiso   1.00
N230   N     0.37558   0.86601   0.72371   0.00000  Uiso   1.00
C231   C     0.87730   0.48051   0.54608   0.00000  Uiso   1.00
C232   C     0.79993   0.46964   0.57643   0.00000  Uiso   1.00
C233   C     0.73363   0.38803   0.55699   0.00000  Uiso   1.00
C234   C     0.66874   0.39246   0.59098   0.00000  Uiso   1.00
C235   C     0.54842   0.36294   0.63031   0.00000  Uiso   1.00
C236   C     0.96037   0.53436   0.63308   0.00000  Uiso   1.00
C237   C     0.02896   0.50716   0.66126   0.00000  Uiso   1.00
C238   C     0.09914   0.56609   0.74294   0.00000  Uiso   1.00
C239   C     0.22793   0.63707   0.87017   0.00000  Uiso   1.00
C240   C     0.87343   0.54239   0.49380   0.00000  Uiso   1.00
C241   C     0.86894   0.52195   0.40488   0.00000  Uiso   1.00
C242   C     0.86593   0.58765   0.36930   0.00000  Uiso   1.00
C243   C     0.85973   0.67109   0.28028   0.00000  Uiso   1.00
C244   C     0.87998   0.63353   0.64102   0.00000  Uiso   1.00
C245   C     0.80140   0.55276   0.62800   0.00000  Uiso   1.00
C246   C     0.73660   0.55732   0.66203   0.00000  Uiso   1.00
C247   C     0.67020   0.47572   0.64264   0.00000  Uiso   1.00
C248   C     0.96183   0.61747   0.68465   0.00000  Uiso   1.00
C249   C     0.03193   0.67645   0.76630   0.00000  Uiso   1.00
C250   C     0.10060   0.64935   0.79460   0.00000  Uiso   1.00
C251   C     0.87488   0.62550   0.54536   0.00000  Uiso   1.00
C252   C     0.87190   0.69124   0.50992   0.00000  Uiso   1.00
C253   C     0.86740   0.67091   0.42096   0.00000  Uiso   1.00
H254   H     0.87617   0.41581   0.50594   0.00000  Uiso   1.00
H255   H     0.73253   0.32372   0.51709   0.00000  Uiso   1.00
H256   H     0.02782   0.44284   0.62133   0.00000  Uiso   1.00
H257   H     0.86781   0.45763   0.36499   0.00000  Uiso   1.00
H258   H     0.57393   0.25828   0.55222   0.00000  Uiso   1.00
H259   H     0.19659   0.50946   0.77201   0.00000  Uiso   1.00
H260   H     0.85918   0.54065   0.23147   0.00000  Uiso   1.00
H261   H     0.88112   0.69824   0.68117   0.00000  Uiso   1.00
H262   H     0.73774   0.62165   0.70193   0.00000  Uiso   1.00
H263   H     0.03304   0.74077   0.80618   0.00000  Uiso   1.00
H264   H     0.87303   0.75555   0.54984   0.00000  Uiso   1.00
H265   H     0.57817   0.50008   0.70225   0.00000  Uiso   1.00
H266   H     0.20083   0.75127   0.92204   0.00000  Uiso   1.00
H267   H     0.86342   0.78245   0.38150   0.00000  Uiso   1.00
O268   O     0.48166   0.32370   0.63776   0.00000  Uiso   1.00
O269   O     0.29857   0.65325   0.92611   0.00000  Uiso   1.00
O270   O     0.85589   0.69416   0.21693   0.00000  Uiso   1.00
N271   N     0.59460   0.32570   0.58466   0.00000  Uiso   1.00
N272   N     0.17674   0.56054   0.79017   0.00000  Uiso   1.00
N273   N     0.86131   0.58970   0.28481   0.00000  Uiso   1.00
N274   N     0.59687   0.45581   0.66539   0.00000  Uiso   1.00
N275   N     0.17901   0.69065   0.87090   0.00000  Uiso   1.00
N276   N     0.86359   0.71981   0.36554   0.00000  Uiso   1.00
