data_job_00483
_audit_creation_date              2018-12-19
_audit_creation_method            'Materials Studio'
_symmetry_space_group_name_H-M    'P1'
_symmetry_Int_Tables_number       1
_symmetry_cell_setting            triclinic
loop_
_symmetry_equiv_pos_as_xyz
  x,y,z
_cell_length_a                    12.3706
_cell_length_b                    36.7318
_cell_length_c                    12.2394
_cell_angle_alpha                 90.0000
_cell_angle_beta                  111.2210
_cell_angle_gamma                 90.0000
loop_
_atom_site_label
_atom_site_type_symbol
_atom_site_fract_x
_atom_site_fract_y
_atom_site_fract_z
_atom_site_U_iso_or_equiv
_atom_site_adp_type
_atom_site_occupancy
C1     C     0.75407   0.33061   0.82079   0.00000  Uiso   1.00
C2     C     0.67855   0.32142   0.89164   0.00000  Uiso   1.00
C3     C     0.62088   0.28875   0.88758   0.00000  Uiso   1.00
C4     C     0.55619   0.28568   0.95914   0.00000  Uiso   1.00
C5     C     0.43990   0.26705   0.05802   0.00000  Uiso   1.00
C6     C     0.70298   0.36522   0.75289   0.00000  Uiso   1.00
C7     C     0.66587   0.36938   0.63217   0.00000  Uiso   1.00
C8     C     0.62176   0.40318   0.58694   0.00000  Uiso   1.00
C9     C     0.54347   0.45257   0.47040   0.00000  Uiso   1.00
C10    C     0.87222   0.34129   0.90988   0.00000  Uiso   1.00
C11    C     0.97741   0.32534   0.92113   0.00000  Uiso   1.00
C12    C     0.07580   0.33901   0.00805   0.00000  Uiso   1.00
C13    C     0.26029   0.35125   0.13525   0.00000  Uiso   1.00
C14    C     0.74174   0.38327   0.95511   0.00000  Uiso   1.00
C15    C     0.67185   0.35002   0.96460   0.00000  Uiso   1.00
C16    C     0.60724   0.34700   0.03619   0.00000  Uiso   1.00
C17    C     0.54948   0.31433   0.03223   0.00000  Uiso   1.00
C18    C     0.69628   0.39382   0.82584   0.00000  Uiso   1.00
C19    C     0.65222   0.42763   0.78078   0.00000  Uiso   1.00
C20    C     0.61505   0.43183   0.66002   0.00000  Uiso   1.00
C21    C     0.86552   0.36989   0.98283   0.00000  Uiso   1.00
C22    C     0.96377   0.38359   0.06974   0.00000  Uiso   1.00
C23    C     0.06909   0.36766   0.08113   0.00000  Uiso   1.00
H24    H     0.75928   0.30835   0.76399   0.00000  Uiso   1.00
H25    H     0.62607   0.26662   0.83110   0.00000  Uiso   1.00
H26    H     0.67107   0.34724   0.57574   0.00000  Uiso   1.00
H27    H     0.98256   0.30321   0.86466   0.00000  Uiso   1.00
H28    H     0.47541   0.23297   0.93765   0.00000  Uiso   1.00
H29    H     0.57031   0.40296   0.39921   0.00000  Uiso   1.00
H30    H     0.22716   0.31012   0.00845   0.00000  Uiso   1.00
H31    H     0.73652   0.40553   0.01191   0.00000  Uiso   1.00
H32    H     0.60207   0.36913   0.09263   0.00000  Uiso   1.00
H33    H     0.64706   0.44975   0.83726   0.00000  Uiso   1.00
H34    H     0.95855   0.40572   0.12618   0.00000  Uiso   1.00
H35    H     0.45592   0.31618   0.14992   0.00000  Uiso   1.00
H36    H     0.55083   0.48617   0.61146   0.00000  Uiso   1.00
H37    H     0.20767   0.39332   0.22071   0.00000  Uiso   1.00
O38    O     0.37759   0.24888   0.09239   0.00000  Uiso   1.00
O39    O     0.50213   0.47191   0.38597   0.00000  Uiso   1.00
O40    O     0.36389   0.35009   0.18528   0.00000  Uiso   1.00
N41    N     0.48929   0.25755   0.97655   0.00000  Uiso   1.00
N42    N     0.57800   0.41648   0.47313   0.00000  Uiso   1.00
N43    N     0.19211   0.32968   0.04270   0.00000  Uiso   1.00
N44    N     0.47880   0.30232   0.09077   0.00000  Uiso   1.00
N45    N     0.56752   0.46125   0.58735   0.00000  Uiso   1.00
N46    N     0.18162   0.37445   0.15692   0.00000  Uiso   1.00
C47    C     0.25407   0.83061   0.82079   0.00000  Uiso   1.00
C48    C     0.17855   0.82142   0.89164   0.00000  Uiso   1.00
C49    C     0.12088   0.78875   0.88758   0.00000  Uiso   1.00
C50    C     0.05619   0.78568   0.95914   0.00000  Uiso   1.00
C51    C     0.93990   0.76705   0.05802   0.00000  Uiso   1.00
C52    C     0.20298   0.86522   0.75289   0.00000  Uiso   1.00
C53    C     0.16587   0.86938   0.63217   0.00000  Uiso   1.00
C54    C     0.12176   0.90318   0.58694   0.00000  Uiso   1.00
C55    C     0.04347   0.95257   0.47040   0.00000  Uiso   1.00
C56    C     0.37222   0.84129   0.90988   0.00000  Uiso   1.00
C57    C     0.47741   0.82534   0.92113   0.00000  Uiso   1.00
C58    C     0.57580   0.83901   0.00805   0.00000  Uiso   1.00
C59    C     0.76029   0.85125   0.13525   0.00000  Uiso   1.00
C60    C     0.24174   0.88327   0.95511   0.00000  Uiso   1.00
C61    C     0.17185   0.85002   0.96460   0.00000  Uiso   1.00
C62    C     0.10724   0.84700   0.03619   0.00000  Uiso   1.00
C63    C     0.04948   0.81433   0.03223   0.00000  Uiso   1.00
C64    C     0.19628   0.89382   0.82584   0.00000  Uiso   1.00
C65    C     0.15222   0.92763   0.78078   0.00000  Uiso   1.00
C66    C     0.11505   0.93183   0.66002   0.00000  Uiso   1.00
C67    C     0.36552   0.86989   0.98283   0.00000  Uiso   1.00
C68    C     0.46377   0.88359   0.06974   0.00000  Uiso   1.00
C69    C     0.56909   0.86766   0.08113   0.00000  Uiso   1.00
H70    H     0.25928   0.80835   0.76399   0.00000  Uiso   1.00
H71    H     0.12607   0.76662   0.83110   0.00000  Uiso   1.00
H72    H     0.17107   0.84724   0.57574   0.00000  Uiso   1.00
H73    H     0.48256   0.80321   0.86466   0.00000  Uiso   1.00
H74    H     0.97541   0.73297   0.93765   0.00000  Uiso   1.00
H75    H     0.07031   0.90296   0.39921   0.00000  Uiso   1.00
H76    H     0.72716   0.81012   0.00845   0.00000  Uiso   1.00
H77    H     0.23652   0.90553   0.01191   0.00000  Uiso   1.00
H78    H     0.10207   0.86913   0.09263   0.00000  Uiso   1.00
H79    H     0.14706   0.94975   0.83726   0.00000  Uiso   1.00
H80    H     0.45855   0.90572   0.12618   0.00000  Uiso   1.00
H81    H     0.95592   0.81618   0.14992   0.00000  Uiso   1.00
H82    H     0.05083   0.98617   0.61146   0.00000  Uiso   1.00
H83    H     0.70767   0.89332   0.22071   0.00000  Uiso   1.00
O84    O     0.87759   0.74888   0.09239   0.00000  Uiso   1.00
O85    O     0.00213   0.97191   0.38597   0.00000  Uiso   1.00
O86    O     0.86389   0.85009   0.18528   0.00000  Uiso   1.00
N87    N     0.98929   0.75755   0.97655   0.00000  Uiso   1.00
N88    N     0.07800   0.91648   0.47313   0.00000  Uiso   1.00
N89    N     0.69211   0.82968   0.04270   0.00000  Uiso   1.00
N90    N     0.97880   0.80232   0.09077   0.00000  Uiso   1.00
N91    N     0.06752   0.96125   0.58735   0.00000  Uiso   1.00
N92    N     0.68162   0.87445   0.15692   0.00000  Uiso   1.00
C93    C     0.24593   0.33061   0.67921   0.00000  Uiso   1.00
C94    C     0.32145   0.32142   0.60836   0.00000  Uiso   1.00
C95    C     0.37912   0.28875   0.61242   0.00000  Uiso   1.00
C96    C     0.44381   0.28568   0.54086   0.00000  Uiso   1.00
C97    C     0.56010   0.26705   0.44198   0.00000  Uiso   1.00
C98    C     0.29702   0.36522   0.74711   0.00000  Uiso   1.00
C99    C     0.33413   0.36938   0.86783   0.00000  Uiso   1.00
C100   C     0.37824   0.40318   0.91306   0.00000  Uiso   1.00
C101   C     0.45653   0.45257   0.02960   0.00000  Uiso   1.00
C102   C     0.12778   0.34129   0.59012   0.00000  Uiso   1.00
C103   C     0.02259   0.32534   0.57887   0.00000  Uiso   1.00
C104   C     0.92420   0.33901   0.49195   0.00000  Uiso   1.00
C105   C     0.73971   0.35125   0.36475   0.00000  Uiso   1.00
C106   C     0.25826   0.38327   0.54489   0.00000  Uiso   1.00
C107   C     0.32815   0.35002   0.53540   0.00000  Uiso   1.00
C108   C     0.39276   0.34700   0.46381   0.00000  Uiso   1.00
C109   C     0.45052   0.31433   0.46777   0.00000  Uiso   1.00
C110   C     0.30372   0.39382   0.67416   0.00000  Uiso   1.00
C111   C     0.34778   0.42763   0.71922   0.00000  Uiso   1.00
C112   C     0.38495   0.43183   0.83998   0.00000  Uiso   1.00
C113   C     0.13448   0.36989   0.51717   0.00000  Uiso   1.00
C114   C     0.03623   0.38359   0.43026   0.00000  Uiso   1.00
C115   C     0.93091   0.36766   0.41887   0.00000  Uiso   1.00
H116   H     0.24072   0.30835   0.73601   0.00000  Uiso   1.00
H117   H     0.37393   0.26662   0.66890   0.00000  Uiso   1.00
H118   H     0.32893   0.34724   0.92426   0.00000  Uiso   1.00
H119   H     0.01744   0.30321   0.63534   0.00000  Uiso   1.00
H120   H     0.52459   0.23297   0.56235   0.00000  Uiso   1.00
H121   H     0.42969   0.40296   0.10079   0.00000  Uiso   1.00
H122   H     0.77284   0.31012   0.49155   0.00000  Uiso   1.00
H123   H     0.26348   0.40553   0.48809   0.00000  Uiso   1.00
H124   H     0.39793   0.36913   0.40737   0.00000  Uiso   1.00
H125   H     0.35294   0.44975   0.66274   0.00000  Uiso   1.00
H126   H     0.04145   0.40572   0.37382   0.00000  Uiso   1.00
H127   H     0.54408   0.31618   0.35008   0.00000  Uiso   1.00
H128   H     0.44917   0.48617   0.88854   0.00000  Uiso   1.00
H129   H     0.79233   0.39332   0.27929   0.00000  Uiso   1.00
O130   O     0.62241   0.24888   0.40761   0.00000  Uiso   1.00
O131   O     0.49787   0.47191   0.11403   0.00000  Uiso   1.00
O132   O     0.63611   0.35009   0.31472   0.00000  Uiso   1.00
N133   N     0.51071   0.25755   0.52345   0.00000  Uiso   1.00
N134   N     0.42200   0.41648   0.02687   0.00000  Uiso   1.00
N135   N     0.80789   0.32968   0.45730   0.00000  Uiso   1.00
N136   N     0.52120   0.30232   0.40923   0.00000  Uiso   1.00
N137   N     0.43248   0.46125   0.91265   0.00000  Uiso   1.00
N138   N     0.81838   0.37445   0.34308   0.00000  Uiso   1.00
C139   C     0.74593   0.83061   0.67921   0.00000  Uiso   1.00
C140   C     0.82145   0.82142   0.60836   0.00000  Uiso   1.00
C141   C     0.87912   0.78875   0.61242   0.00000  Uiso   1.00
C142   C     0.94381   0.78568   0.54086   0.00000  Uiso   1.00
C143   C     0.06010   0.76705   0.44198   0.00000  Uiso   1.00
C144   C     0.79702   0.86522   0.74711   0.00000  Uiso   1.00
C145   C     0.83413   0.86938   0.86783   0.00000  Uiso   1.00
C146   C     0.87824   0.90318   0.91306   0.00000  Uiso   1.00
C147   C     0.95653   0.95257   0.02960   0.00000  Uiso   1.00
C148   C     0.62778   0.84129   0.59012   0.00000  Uiso   1.00
C149   C     0.52259   0.82534   0.57887   0.00000  Uiso   1.00
C150   C     0.42420   0.83901   0.49195   0.00000  Uiso   1.00
C151   C     0.23971   0.85125   0.36475   0.00000  Uiso   1.00
C152   C     0.75826   0.88327   0.54489   0.00000  Uiso   1.00
C153   C     0.82815   0.85002   0.53540   0.00000  Uiso   1.00
C154   C     0.89276   0.84700   0.46381   0.00000  Uiso   1.00
C155   C     0.95052   0.81433   0.46777   0.00000  Uiso   1.00
C156   C     0.80372   0.89382   0.67416   0.00000  Uiso   1.00
C157   C     0.84778   0.92763   0.71922   0.00000  Uiso   1.00
C158   C     0.88495   0.93183   0.83998   0.00000  Uiso   1.00
C159   C     0.63448   0.86989   0.51717   0.00000  Uiso   1.00
C160   C     0.53623   0.88359   0.43026   0.00000  Uiso   1.00
C161   C     0.43091   0.86766   0.41887   0.00000  Uiso   1.00
H162   H     0.74072   0.80835   0.73601   0.00000  Uiso   1.00
H163   H     0.87393   0.76662   0.66890   0.00000  Uiso   1.00
H164   H     0.82893   0.84724   0.92426   0.00000  Uiso   1.00
H165   H     0.51744   0.80321   0.63534   0.00000  Uiso   1.00
H166   H     0.02459   0.73297   0.56235   0.00000  Uiso   1.00
H167   H     0.92969   0.90296   0.10079   0.00000  Uiso   1.00
H168   H     0.27284   0.81012   0.49155   0.00000  Uiso   1.00
H169   H     0.76348   0.90553   0.48809   0.00000  Uiso   1.00
H170   H     0.89793   0.86913   0.40737   0.00000  Uiso   1.00
H171   H     0.85294   0.94975   0.66274   0.00000  Uiso   1.00
H172   H     0.54145   0.90572   0.37382   0.00000  Uiso   1.00
H173   H     0.04408   0.81618   0.35008   0.00000  Uiso   1.00
H174   H     0.94917   0.98617   0.88854   0.00000  Uiso   1.00
H175   H     0.29233   0.89332   0.27929   0.00000  Uiso   1.00
O176   O     0.12241   0.74888   0.40761   0.00000  Uiso   1.00
O177   O     0.99787   0.97191   0.11403   0.00000  Uiso   1.00
O178   O     0.13611   0.85009   0.31472   0.00000  Uiso   1.00
N179   N     0.01071   0.75755   0.52345   0.00000  Uiso   1.00
N180   N     0.92200   0.91648   0.02687   0.00000  Uiso   1.00
N181   N     0.30789   0.82968   0.45730   0.00000  Uiso   1.00
N182   N     0.02120   0.80232   0.40923   0.00000  Uiso   1.00
N183   N     0.93248   0.96125   0.91265   0.00000  Uiso   1.00
N184   N     0.31838   0.87445   0.34308   0.00000  Uiso   1.00
C185   C     0.24593   0.66939   0.17921   0.00000  Uiso   1.00
C186   C     0.32145   0.67858   0.10836   0.00000  Uiso   1.00
C187   C     0.37912   0.71125   0.11242   0.00000  Uiso   1.00
C188   C     0.44381   0.71432   0.04086   0.00000  Uiso   1.00
C189   C     0.56010   0.73295   0.94198   0.00000  Uiso   1.00
C190   C     0.29702   0.63478   0.24711   0.00000  Uiso   1.00
C191   C     0.33413   0.63062   0.36783   0.00000  Uiso   1.00
C192   C     0.37824   0.59682   0.41306   0.00000  Uiso   1.00
C193   C     0.45653   0.54743   0.52960   0.00000  Uiso   1.00
C194   C     0.12778   0.65871   0.09012   0.00000  Uiso   1.00
C195   C     0.02259   0.67466   0.07887   0.00000  Uiso   1.00
C196   C     0.92420   0.66099   0.99195   0.00000  Uiso   1.00
C197   C     0.73971   0.64875   0.86475   0.00000  Uiso   1.00
C198   C     0.25826   0.61673   0.04489   0.00000  Uiso   1.00
C199   C     0.32815   0.64998   0.03540   0.00000  Uiso   1.00
C200   C     0.39276   0.65300   0.96381   0.00000  Uiso   1.00
C201   C     0.45052   0.68567   0.96777   0.00000  Uiso   1.00
C202   C     0.30372   0.60618   0.17416   0.00000  Uiso   1.00
C203   C     0.34778   0.57237   0.21922   0.00000  Uiso   1.00
C204   C     0.38495   0.56817   0.33998   0.00000  Uiso   1.00
C205   C     0.13448   0.63011   0.01717   0.00000  Uiso   1.00
C206   C     0.03623   0.61641   0.93026   0.00000  Uiso   1.00
C207   C     0.93091   0.63234   0.91887   0.00000  Uiso   1.00
H208   H     0.24072   0.69165   0.23601   0.00000  Uiso   1.00
H209   H     0.37393   0.73338   0.16890   0.00000  Uiso   1.00
H210   H     0.32893   0.65276   0.42426   0.00000  Uiso   1.00
H211   H     0.01744   0.69679   0.13534   0.00000  Uiso   1.00
H212   H     0.52459   0.76703   0.06235   0.00000  Uiso   1.00
H213   H     0.42969   0.59704   0.60079   0.00000  Uiso   1.00
H214   H     0.77284   0.68988   0.99155   0.00000  Uiso   1.00
H215   H     0.26348   0.59447   0.98809   0.00000  Uiso   1.00
H216   H     0.39793   0.63087   0.90737   0.00000  Uiso   1.00
H217   H     0.35294   0.55025   0.16274   0.00000  Uiso   1.00
H218   H     0.04145   0.59428   0.87382   0.00000  Uiso   1.00
H219   H     0.54408   0.68382   0.85008   0.00000  Uiso   1.00
H220   H     0.44917   0.51383   0.38854   0.00000  Uiso   1.00
H221   H     0.79233   0.60668   0.77929   0.00000  Uiso   1.00
O222   O     0.62241   0.75112   0.90761   0.00000  Uiso   1.00
O223   O     0.49787   0.52809   0.61403   0.00000  Uiso   1.00
O224   O     0.63611   0.64991   0.81472   0.00000  Uiso   1.00
N225   N     0.51071   0.74245   0.02345   0.00000  Uiso   1.00
N226   N     0.42200   0.58352   0.52687   0.00000  Uiso   1.00
N227   N     0.80789   0.67032   0.95730   0.00000  Uiso   1.00
N228   N     0.52120   0.69768   0.90923   0.00000  Uiso   1.00
N229   N     0.43248   0.53875   0.41265   0.00000  Uiso   1.00
N230   N     0.81838   0.62555   0.84308   0.00000  Uiso   1.00
C231   C     0.74593   0.16939   0.17921   0.00000  Uiso   1.00
C232   C     0.82145   0.17858   0.10836   0.00000  Uiso   1.00
C233   C     0.87912   0.21125   0.11242   0.00000  Uiso   1.00
C234   C     0.94381   0.21432   0.04086   0.00000  Uiso   1.00
C235   C     0.06010   0.23295   0.94198   0.00000  Uiso   1.00
C236   C     0.79702   0.13478   0.24711   0.00000  Uiso   1.00
C237   C     0.83413   0.13062   0.36783   0.00000  Uiso   1.00
C238   C     0.87824   0.09682   0.41306   0.00000  Uiso   1.00
C239   C     0.95653   0.04743   0.52960   0.00000  Uiso   1.00
C240   C     0.62778   0.15871   0.09012   0.00000  Uiso   1.00
C241   C     0.52259   0.17466   0.07887   0.00000  Uiso   1.00
C242   C     0.42420   0.16099   0.99195   0.00000  Uiso   1.00
C243   C     0.23971   0.14875   0.86475   0.00000  Uiso   1.00
C244   C     0.75826   0.11673   0.04489   0.00000  Uiso   1.00
C245   C     0.82815   0.14998   0.03540   0.00000  Uiso   1.00
C246   C     0.89276   0.15300   0.96381   0.00000  Uiso   1.00
C247   C     0.95052   0.18567   0.96777   0.00000  Uiso   1.00
C248   C     0.80372   0.10618   0.17416   0.00000  Uiso   1.00
C249   C     0.84778   0.07237   0.21922   0.00000  Uiso   1.00
C250   C     0.88495   0.06817   0.33998   0.00000  Uiso   1.00
C251   C     0.63448   0.13011   0.01717   0.00000  Uiso   1.00
C252   C     0.53623   0.11641   0.93026   0.00000  Uiso   1.00
C253   C     0.43091   0.13234   0.91887   0.00000  Uiso   1.00
H254   H     0.74072   0.19165   0.23601   0.00000  Uiso   1.00
H255   H     0.87393   0.23338   0.16890   0.00000  Uiso   1.00
H256   H     0.82893   0.15276   0.42426   0.00000  Uiso   1.00
H257   H     0.51744   0.19679   0.13534   0.00000  Uiso   1.00
H258   H     0.02459   0.26703   0.06235   0.00000  Uiso   1.00
H259   H     0.92969   0.09704   0.60079   0.00000  Uiso   1.00
H260   H     0.27284   0.18988   0.99155   0.00000  Uiso   1.00
H261   H     0.76348   0.09447   0.98809   0.00000  Uiso   1.00
H262   H     0.89793   0.13087   0.90737   0.00000  Uiso   1.00
H263   H     0.85294   0.05025   0.16274   0.00000  Uiso   1.00
H264   H     0.54145   0.09428   0.87382   0.00000  Uiso   1.00
H265   H     0.04408   0.18382   0.85008   0.00000  Uiso   1.00
H266   H     0.94917   0.01383   0.38854   0.00000  Uiso   1.00
H267   H     0.29233   0.10668   0.77929   0.00000  Uiso   1.00
O268   O     0.12241   0.25112   0.90761   0.00000  Uiso   1.00
O269   O     0.99787   0.02809   0.61403   0.00000  Uiso   1.00
O270   O     0.13611   0.14991   0.81472   0.00000  Uiso   1.00
N271   N     0.01071   0.24245   0.02345   0.00000  Uiso   1.00
N272   N     0.92200   0.08352   0.52687   0.00000  Uiso   1.00
N273   N     0.30789   0.17032   0.95730   0.00000  Uiso   1.00
N274   N     0.02120   0.19768   0.90923   0.00000  Uiso   1.00
N275   N     0.93248   0.03875   0.41265   0.00000  Uiso   1.00
N276   N     0.31838   0.12555   0.84308   0.00000  Uiso   1.00
C277   C     0.75407   0.66939   0.32079   0.00000  Uiso   1.00
C278   C     0.67855   0.67858   0.39164   0.00000  Uiso   1.00
C279   C     0.62088   0.71125   0.38758   0.00000  Uiso   1.00
C280   C     0.55619   0.71432   0.45914   0.00000  Uiso   1.00
C281   C     0.43990   0.73295   0.55802   0.00000  Uiso   1.00
C282   C     0.70298   0.63478   0.25289   0.00000  Uiso   1.00
C283   C     0.66587   0.63062   0.13217   0.00000  Uiso   1.00
C284   C     0.62176   0.59682   0.08694   0.00000  Uiso   1.00
C285   C     0.54347   0.54743   0.97040   0.00000  Uiso   1.00
C286   C     0.87222   0.65871   0.40988   0.00000  Uiso   1.00
C287   C     0.97741   0.67466   0.42113   0.00000  Uiso   1.00
C288   C     0.07580   0.66099   0.50805   0.00000  Uiso   1.00
C289   C     0.26029   0.64875   0.63525   0.00000  Uiso   1.00
C290   C     0.74174   0.61673   0.45511   0.00000  Uiso   1.00
C291   C     0.67185   0.64998   0.46460   0.00000  Uiso   1.00
C292   C     0.60724   0.65300   0.53619   0.00000  Uiso   1.00
C293   C     0.54948   0.68567   0.53223   0.00000  Uiso   1.00
C294   C     0.69628   0.60618   0.32584   0.00000  Uiso   1.00
C295   C     0.65222   0.57237   0.28078   0.00000  Uiso   1.00
C296   C     0.61505   0.56817   0.16002   0.00000  Uiso   1.00
C297   C     0.86552   0.63011   0.48283   0.00000  Uiso   1.00
C298   C     0.96377   0.61641   0.56974   0.00000  Uiso   1.00
C299   C     0.06909   0.63234   0.58113   0.00000  Uiso   1.00
H300   H     0.75928   0.69165   0.26399   0.00000  Uiso   1.00
H301   H     0.62607   0.73338   0.33110   0.00000  Uiso   1.00
H302   H     0.67107   0.65276   0.07574   0.00000  Uiso   1.00
H303   H     0.98256   0.69679   0.36466   0.00000  Uiso   1.00
H304   H     0.47541   0.76703   0.43765   0.00000  Uiso   1.00
H305   H     0.57031   0.59704   0.89921   0.00000  Uiso   1.00
H306   H     0.22716   0.68988   0.50845   0.00000  Uiso   1.00
H307   H     0.73652   0.59447   0.51191   0.00000  Uiso   1.00
H308   H     0.60207   0.63087   0.59263   0.00000  Uiso   1.00
H309   H     0.64706   0.55025   0.33726   0.00000  Uiso   1.00
H310   H     0.95855   0.59428   0.62618   0.00000  Uiso   1.00
H311   H     0.45592   0.68382   0.64992   0.00000  Uiso   1.00
H312   H     0.55083   0.51383   0.11146   0.00000  Uiso   1.00
H313   H     0.20767   0.60668   0.72071   0.00000  Uiso   1.00
O314   O     0.37759   0.75112   0.59239   0.00000  Uiso   1.00
O315   O     0.50213   0.52809   0.88597   0.00000  Uiso   1.00
O316   O     0.36389   0.64991   0.68528   0.00000  Uiso   1.00
N317   N     0.48929   0.74245   0.47655   0.00000  Uiso   1.00
N318   N     0.57800   0.58352   0.97313   0.00000  Uiso   1.00
N319   N     0.19211   0.67032   0.54270   0.00000  Uiso   1.00
N320   N     0.47880   0.69768   0.59077   0.00000  Uiso   1.00
N321   N     0.56752   0.53875   0.08735   0.00000  Uiso   1.00
N322   N     0.18162   0.62555   0.65692   0.00000  Uiso   1.00
C323   C     0.25407   0.16939   0.32079   0.00000  Uiso   1.00
C324   C     0.17855   0.17858   0.39164   0.00000  Uiso   1.00
C325   C     0.12088   0.21125   0.38758   0.00000  Uiso   1.00
C326   C     0.05619   0.21432   0.45914   0.00000  Uiso   1.00
C327   C     0.93990   0.23295   0.55802   0.00000  Uiso   1.00
C328   C     0.20298   0.13478   0.25289   0.00000  Uiso   1.00
C329   C     0.16587   0.13062   0.13217   0.00000  Uiso   1.00
C330   C     0.12176   0.09682   0.08694   0.00000  Uiso   1.00
C331   C     0.04347   0.04743   0.97040   0.00000  Uiso   1.00
C332   C     0.37222   0.15871   0.40988   0.00000  Uiso   1.00
C333   C     0.47741   0.17466   0.42113   0.00000  Uiso   1.00
C334   C     0.57580   0.16099   0.50805   0.00000  Uiso   1.00
C335   C     0.76029   0.14875   0.63525   0.00000  Uiso   1.00
C336   C     0.24174   0.11673   0.45511   0.00000  Uiso   1.00
C337   C     0.17185   0.14998   0.46460   0.00000  Uiso   1.00
C338   C     0.10724   0.15300   0.53619   0.00000  Uiso   1.00
C339   C     0.04948   0.18567   0.53223   0.00000  Uiso   1.00
C340   C     0.19628   0.10618   0.32584   0.00000  Uiso   1.00
C341   C     0.15222   0.07237   0.28078   0.00000  Uiso   1.00
C342   C     0.11505   0.06817   0.16002   0.00000  Uiso   1.00
C343   C     0.36552   0.13011   0.48283   0.00000  Uiso   1.00
C344   C     0.46377   0.11641   0.56974   0.00000  Uiso   1.00
C345   C     0.56909   0.13234   0.58113   0.00000  Uiso   1.00
H346   H     0.25928   0.19165   0.26399   0.00000  Uiso   1.00
H347   H     0.12607   0.23338   0.33110   0.00000  Uiso   1.00
H348   H     0.17107   0.15276   0.07574   0.00000  Uiso   1.00
H349   H     0.48256   0.19679   0.36466   0.00000  Uiso   1.00
H350   H     0.97541   0.26703   0.43765   0.00000  Uiso   1.00
H351   H     0.07031   0.09704   0.89921   0.00000  Uiso   1.00
H352   H     0.72716   0.18988   0.50845   0.00000  Uiso   1.00
H353   H     0.23652   0.09447   0.51191   0.00000  Uiso   1.00
H354   H     0.10207   0.13087   0.59263   0.00000  Uiso   1.00
H355   H     0.14706   0.05025   0.33726   0.00000  Uiso   1.00
H356   H     0.45855   0.09428   0.62618   0.00000  Uiso   1.00
H357   H     0.95592   0.18382   0.64992   0.00000  Uiso   1.00
H358   H     0.05083   0.01383   0.11146   0.00000  Uiso   1.00
H359   H     0.70767   0.10668   0.72071   0.00000  Uiso   1.00
O360   O     0.87759   0.25112   0.59239   0.00000  Uiso   1.00
O361   O     0.00213   0.02809   0.88597   0.00000  Uiso   1.00
O362   O     0.86389   0.14991   0.68528   0.00000  Uiso   1.00
N363   N     0.98929   0.24245   0.47655   0.00000  Uiso   1.00
N364   N     0.07800   0.08352   0.97313   0.00000  Uiso   1.00
N365   N     0.69211   0.17032   0.54270   0.00000  Uiso   1.00
N366   N     0.97880   0.19768   0.59077   0.00000  Uiso   1.00
N367   N     0.06752   0.03875   0.08735   0.00000  Uiso   1.00
N368   N     0.68162   0.12555   0.65692   0.00000  Uiso   1.00
