data_job_00389
_audit_creation_date              2018-12-19
_audit_creation_method            'Materials Studio'
_symmetry_space_group_name_H-M    'P1'
_symmetry_Int_Tables_number       1
_symmetry_cell_setting            triclinic
loop_
_symmetry_equiv_pos_as_xyz
  x,y,z
_cell_length_a                    11.3615
_cell_length_b                    9.2716
_cell_length_c                    21.2265
_cell_angle_alpha                 90.0000
_cell_angle_beta                  67.0488
_cell_angle_gamma                 90.0000
loop_
_atom_site_label
_atom_site_type_symbol
_atom_site_fract_x
_atom_site_fract_y
_atom_site_fract_z
_atom_site_U_iso_or_equiv
_atom_site_adp_type
_atom_site_occupancy
C1     C     0.29923   0.11291   0.17972   0.00000  Uiso   1.00
C2     C     0.28428   0.27598   0.17708   0.00000  Uiso   1.00
C3     C     0.20400   0.34704   0.15205   0.00000  Uiso   1.00
C4     C     0.20412   0.49671   0.15409   0.00000  Uiso   1.00
C5     C     0.16914   0.73840   0.14598   0.00000  Uiso   1.00
C6     C     0.44111   0.08192   0.14072   0.00000  Uiso   1.00
C7     C     0.49269   0.98979   0.08512   0.00000  Uiso   1.00
C8     C     0.62483   0.97609   0.05656   0.00000  Uiso   1.00
C9     C     0.83332   0.91641   0.99204   0.00000  Uiso   1.00
C10    C     0.27029   0.07639   0.25433   0.00000  Uiso   1.00
C11    C     0.17827   0.97958   0.29427   0.00000  Uiso   1.00
C12    C     0.16661   0.96119   0.36136   0.00000  Uiso   1.00
C13    C     0.10987   0.89293   0.47325   0.00000  Uiso   1.00
C14    C     0.44219   0.25236   0.22785   0.00000  Uiso   1.00
C15    C     0.36193   0.35172   0.20322   0.00000  Uiso   1.00
C16    C     0.36216   0.50133   0.20530   0.00000  Uiso   1.00
C17    C     0.28190   0.57259   0.18028   0.00000  Uiso   1.00
C18    C     0.51875   0.15766   0.16686   0.00000  Uiso   1.00
C19    C     0.65085   0.14408   0.13838   0.00000  Uiso   1.00
C20    C     0.70262   0.05197   0.08275   0.00000  Uiso   1.00
C21    C     0.34793   0.15213   0.28048   0.00000  Uiso   1.00
C22    C     0.33642   0.13388   0.34752   0.00000  Uiso   1.00
C23    C     0.24440   0.03707   0.38755   0.00000  Uiso   1.00
H24    H     0.23879   0.05393   0.15936   0.00000  Uiso   1.00
H25    H     0.14394   0.28838   0.13181   0.00000  Uiso   1.00
H26    H     0.43257   0.93118   0.06491   0.00000  Uiso   1.00
H27    H     0.11820   0.92098   0.27402   0.00000  Uiso   1.00
H28    H     0.07305   0.58172   0.11278   0.00000  Uiso   1.00
H29    H     0.68166   0.82850   0.97172   0.00000  Uiso   1.00
H30    H     0.01873   0.80699   0.41267   0.00000  Uiso   1.00
H31    H     0.50264   0.31133   0.24820   0.00000  Uiso   1.00
H32    H     0.42226   0.55991   0.22554   0.00000  Uiso   1.00
H33    H     0.71090   0.20270   0.15863   0.00000  Uiso   1.00
H34    H     0.39653   0.19251   0.36774   0.00000  Uiso   1.00
H35    H     0.29896   0.80210   0.18885   0.00000  Uiso   1.00
H36    H     0.90757   0.04887   0.04778   0.00000  Uiso   1.00
H37    H     0.24464   0.02737   0.48874   0.00000  Uiso   1.00
O38    O     0.12840   0.85079   0.13428   0.00000  Uiso   1.00
O39    O     0.92687   0.86258   0.94922   0.00000  Uiso   1.00
O40    O     0.05712   0.83436   0.52774   0.00000  Uiso   1.00
N41    N     0.13723   0.59947   0.13381   0.00000  Uiso   1.00
N42    N     0.70624   0.89527   0.00191   0.00000  Uiso   1.00
N43    N     0.08649   0.87513   0.41416   0.00000  Uiso   1.00
N44    N     0.25879   0.71806   0.17474   0.00000  Uiso   1.00
N45    N     0.82780   0.01386   0.04285   0.00000  Uiso   1.00
N46    N     0.20804   0.99372   0.45510   0.00000  Uiso   1.00
C47    C     0.70077   0.61291   0.32028   0.00000  Uiso   1.00
C48    C     0.71572   0.77598   0.32292   0.00000  Uiso   1.00
C49    C     0.79600   0.84704   0.34795   0.00000  Uiso   1.00
C50    C     0.79588   0.99671   0.34591   0.00000  Uiso   1.00
C51    C     0.83086   0.23840   0.35402   0.00000  Uiso   1.00
C52    C     0.55889   0.58192   0.35928   0.00000  Uiso   1.00
C53    C     0.50731   0.48979   0.41488   0.00000  Uiso   1.00
C54    C     0.37517   0.47609   0.44344   0.00000  Uiso   1.00
C55    C     0.16668   0.41641   0.50796   0.00000  Uiso   1.00
C56    C     0.72971   0.57639   0.24567   0.00000  Uiso   1.00
C57    C     0.82173   0.47958   0.20573   0.00000  Uiso   1.00
C58    C     0.83339   0.46119   0.13864   0.00000  Uiso   1.00
C59    C     0.89013   0.39293   0.02675   0.00000  Uiso   1.00
C60    C     0.55781   0.75236   0.27215   0.00000  Uiso   1.00
C61    C     0.63807   0.85172   0.29678   0.00000  Uiso   1.00
C62    C     0.63784   0.00133   0.29470   0.00000  Uiso   1.00
C63    C     0.71810   0.07259   0.31972   0.00000  Uiso   1.00
C64    C     0.48125   0.65766   0.33314   0.00000  Uiso   1.00
C65    C     0.34915   0.64408   0.36162   0.00000  Uiso   1.00
C66    C     0.29738   0.55197   0.41725   0.00000  Uiso   1.00
C67    C     0.65207   0.65213   0.21952   0.00000  Uiso   1.00
C68    C     0.66358   0.63388   0.15248   0.00000  Uiso   1.00
C69    C     0.75560   0.53707   0.11245   0.00000  Uiso   1.00
H70    H     0.76121   0.55393   0.34064   0.00000  Uiso   1.00
H71    H     0.85606   0.78838   0.36819   0.00000  Uiso   1.00
H72    H     0.56743   0.43118   0.43509   0.00000  Uiso   1.00
H73    H     0.88180   0.42098   0.22598   0.00000  Uiso   1.00
H74    H     0.92695   0.08172   0.38722   0.00000  Uiso   1.00
H75    H     0.31834   0.32850   0.52828   0.00000  Uiso   1.00
H76    H     0.98127   0.30699   0.08733   0.00000  Uiso   1.00
H77    H     0.49736   0.81133   0.25180   0.00000  Uiso   1.00
H78    H     0.57774   0.05991   0.27446   0.00000  Uiso   1.00
H79    H     0.28910   0.70270   0.34137   0.00000  Uiso   1.00
H80    H     0.60347   0.69251   0.13226   0.00000  Uiso   1.00
H81    H     0.70104   0.30210   0.31115   0.00000  Uiso   1.00
H82    H     0.09243   0.54887   0.45222   0.00000  Uiso   1.00
H83    H     0.75536   0.52737   0.01126   0.00000  Uiso   1.00
O84    O     0.87160   0.35079   0.36572   0.00000  Uiso   1.00
O85    O     0.07313   0.36258   0.55078   0.00000  Uiso   1.00
O86    O     0.94288   0.33436   0.97226   0.00000  Uiso   1.00
N87    N     0.86277   0.09947   0.36619   0.00000  Uiso   1.00
N88    N     0.29376   0.39527   0.49809   0.00000  Uiso   1.00
N89    N     0.91351   0.37513   0.08584   0.00000  Uiso   1.00
N90    N     0.74121   0.21806   0.32526   0.00000  Uiso   1.00
N91    N     0.17220   0.51386   0.45715   0.00000  Uiso   1.00
N92    N     0.79196   0.49372   0.04490   0.00000  Uiso   1.00
C93    C     0.70077   0.88709   0.82028   0.00000  Uiso   1.00
C94    C     0.71572   0.72402   0.82292   0.00000  Uiso   1.00
C95    C     0.79600   0.65296   0.84795   0.00000  Uiso   1.00
C96    C     0.79588   0.50329   0.84591   0.00000  Uiso   1.00
C97    C     0.83086   0.26160   0.85402   0.00000  Uiso   1.00
C98    C     0.55889   0.91808   0.85928   0.00000  Uiso   1.00
C99    C     0.50731   0.01021   0.91488   0.00000  Uiso   1.00
C100   C     0.37517   0.02391   0.94344   0.00000  Uiso   1.00
C101   C     0.16668   0.08359   0.00796   0.00000  Uiso   1.00
C102   C     0.72971   0.92361   0.74567   0.00000  Uiso   1.00
C103   C     0.82173   0.02042   0.70573   0.00000  Uiso   1.00
C104   C     0.83339   0.03881   0.63864   0.00000  Uiso   1.00
C105   C     0.89013   0.10707   0.52675   0.00000  Uiso   1.00
C106   C     0.55781   0.74764   0.77215   0.00000  Uiso   1.00
C107   C     0.63807   0.64828   0.79678   0.00000  Uiso   1.00
C108   C     0.63784   0.49867   0.79470   0.00000  Uiso   1.00
C109   C     0.71810   0.42741   0.81972   0.00000  Uiso   1.00
C110   C     0.48125   0.84234   0.83314   0.00000  Uiso   1.00
C111   C     0.34915   0.85592   0.86162   0.00000  Uiso   1.00
C112   C     0.29738   0.94803   0.91725   0.00000  Uiso   1.00
C113   C     0.65207   0.84787   0.71952   0.00000  Uiso   1.00
C114   C     0.66358   0.86612   0.65248   0.00000  Uiso   1.00
C115   C     0.75560   0.96293   0.61245   0.00000  Uiso   1.00
H116   H     0.76121   0.94607   0.84064   0.00000  Uiso   1.00
H117   H     0.85606   0.71162   0.86819   0.00000  Uiso   1.00
H118   H     0.56743   0.06882   0.93509   0.00000  Uiso   1.00
H119   H     0.88180   0.07902   0.72598   0.00000  Uiso   1.00
H120   H     0.92695   0.41828   0.88722   0.00000  Uiso   1.00
H121   H     0.31834   0.17150   0.02828   0.00000  Uiso   1.00
H122   H     0.98127   0.19301   0.58733   0.00000  Uiso   1.00
H123   H     0.49736   0.68867   0.75180   0.00000  Uiso   1.00
H124   H     0.57774   0.44009   0.77446   0.00000  Uiso   1.00
H125   H     0.28910   0.79730   0.84137   0.00000  Uiso   1.00
H126   H     0.60347   0.80749   0.63226   0.00000  Uiso   1.00
H127   H     0.70104   0.19790   0.81115   0.00000  Uiso   1.00
H128   H     0.09243   0.95113   0.95222   0.00000  Uiso   1.00
H129   H     0.75536   0.97263   0.51126   0.00000  Uiso   1.00
O130   O     0.87160   0.14921   0.86572   0.00000  Uiso   1.00
O131   O     0.07313   0.13742   0.05078   0.00000  Uiso   1.00
O132   O     0.94288   0.16564   0.47226   0.00000  Uiso   1.00
N133   N     0.86277   0.40053   0.86619   0.00000  Uiso   1.00
N134   N     0.29376   0.10473   0.99809   0.00000  Uiso   1.00
N135   N     0.91351   0.12487   0.58584   0.00000  Uiso   1.00
N136   N     0.74121   0.28194   0.82526   0.00000  Uiso   1.00
N137   N     0.17220   0.98614   0.95715   0.00000  Uiso   1.00
N138   N     0.79196   0.00628   0.54490   0.00000  Uiso   1.00
C139   C     0.29923   0.38709   0.67972   0.00000  Uiso   1.00
C140   C     0.28428   0.22402   0.67708   0.00000  Uiso   1.00
C141   C     0.20400   0.15296   0.65205   0.00000  Uiso   1.00
C142   C     0.20412   0.00329   0.65409   0.00000  Uiso   1.00
C143   C     0.16914   0.76160   0.64598   0.00000  Uiso   1.00
C144   C     0.44111   0.41808   0.64072   0.00000  Uiso   1.00
C145   C     0.49269   0.51021   0.58512   0.00000  Uiso   1.00
C146   C     0.62483   0.52391   0.55656   0.00000  Uiso   1.00
C147   C     0.83332   0.58359   0.49204   0.00000  Uiso   1.00
C148   C     0.27029   0.42361   0.75433   0.00000  Uiso   1.00
C149   C     0.17827   0.52042   0.79427   0.00000  Uiso   1.00
C150   C     0.16661   0.53881   0.86136   0.00000  Uiso   1.00
C151   C     0.10987   0.60707   0.97325   0.00000  Uiso   1.00
C152   C     0.44219   0.24764   0.72785   0.00000  Uiso   1.00
C153   C     0.36193   0.14828   0.70322   0.00000  Uiso   1.00
C154   C     0.36216   0.99867   0.70530   0.00000  Uiso   1.00
C155   C     0.28190   0.92741   0.68028   0.00000  Uiso   1.00
C156   C     0.51875   0.34234   0.66686   0.00000  Uiso   1.00
C157   C     0.65085   0.35592   0.63838   0.00000  Uiso   1.00
C158   C     0.70262   0.44803   0.58275   0.00000  Uiso   1.00
C159   C     0.34793   0.34787   0.78048   0.00000  Uiso   1.00
C160   C     0.33642   0.36612   0.84752   0.00000  Uiso   1.00
C161   C     0.24440   0.46293   0.88755   0.00000  Uiso   1.00
H162   H     0.23879   0.44607   0.65936   0.00000  Uiso   1.00
H163   H     0.14394   0.21162   0.63181   0.00000  Uiso   1.00
H164   H     0.43257   0.56882   0.56491   0.00000  Uiso   1.00
H165   H     0.11820   0.57902   0.77402   0.00000  Uiso   1.00
H166   H     0.07305   0.91828   0.61278   0.00000  Uiso   1.00
H167   H     0.68166   0.67150   0.47172   0.00000  Uiso   1.00
H168   H     0.01873   0.69301   0.91267   0.00000  Uiso   1.00
H169   H     0.50264   0.18867   0.74820   0.00000  Uiso   1.00
H170   H     0.42226   0.94009   0.72554   0.00000  Uiso   1.00
H171   H     0.71090   0.29730   0.65863   0.00000  Uiso   1.00
H172   H     0.39653   0.30749   0.86774   0.00000  Uiso   1.00
H173   H     0.29896   0.69790   0.68885   0.00000  Uiso   1.00
H174   H     0.90757   0.45113   0.54778   0.00000  Uiso   1.00
H175   H     0.24464   0.47263   0.98874   0.00000  Uiso   1.00
O176   O     0.12840   0.64921   0.63428   0.00000  Uiso   1.00
O177   O     0.92687   0.63742   0.44922   0.00000  Uiso   1.00
O178   O     0.05712   0.66564   0.02774   0.00000  Uiso   1.00
N179   N     0.13723   0.90053   0.63381   0.00000  Uiso   1.00
N180   N     0.70624   0.60473   0.50191   0.00000  Uiso   1.00
N181   N     0.08649   0.62487   0.91416   0.00000  Uiso   1.00
N182   N     0.25879   0.78194   0.67474   0.00000  Uiso   1.00
N183   N     0.82780   0.48614   0.54285   0.00000  Uiso   1.00
N184   N     0.20804   0.50628   0.95510   0.00000  Uiso   1.00
