data_job_02165
_audit_creation_date              2018-12-19
_audit_creation_method            'Materials Studio'
_symmetry_space_group_name_H-M    'P1'
_symmetry_Int_Tables_number       1
_symmetry_cell_setting            triclinic
loop_
_symmetry_equiv_pos_as_xyz
  x,y,z
_cell_length_a                    15.3312
_cell_length_b                    17.6952
_cell_length_c                    11.2512
_cell_angle_alpha                 90.0000
_cell_angle_beta                  51.6878
_cell_angle_gamma                 90.0000
loop_
_atom_site_label
_atom_site_type_symbol
_atom_site_fract_x
_atom_site_fract_y
_atom_site_fract_z
_atom_site_U_iso_or_equiv
_atom_site_adp_type
_atom_site_occupancy
C1     C     0.77202   0.39243   0.65092   0.00000  Uiso   1.00
C2     C     0.89522   0.40865   0.56606   0.00000  Uiso   1.00
C3     C     0.95626   0.38968   0.61481   0.00000  Uiso   1.00
C4     C     0.06795   0.40945   0.52087   0.00000  Uiso   1.00
C5     C     0.25181   0.42897   0.41008   0.00000  Uiso   1.00
C6     C     0.71783   0.46859   0.67086   0.00000  Uiso   1.00
C7     C     0.62972   0.50001   0.80773   0.00000  Uiso   1.00
C8     C     0.59208   0.57024   0.80199   0.00000  Uiso   1.00
C9     C     0.50049   0.68280   0.85390   0.00000  Uiso   1.00
C10    C     0.76455   0.34725   0.54210   0.00000  Uiso   1.00
C11    C     0.71569   0.27666   0.57072   0.00000  Uiso   1.00
C12    C     0.71735   0.24474   0.45659   0.00000  Uiso   1.00
C13    C     0.69830   0.16890   0.30859   0.00000  Uiso   1.00
C14    C     0.86183   0.46128   0.39737   0.00000  Uiso   1.00
C15    C     0.94400   0.44604   0.42834   0.00000  Uiso   1.00
C16    C     0.05562   0.46585   0.33429   0.00000  Uiso   1.00
C17    C     0.11682   0.44691   0.38290   0.00000  Uiso   1.00
C18    C     0.76661   0.50598   0.53315   0.00000  Uiso   1.00
C19    C     0.72908   0.57618   0.52721   0.00000  Uiso   1.00
C20    C     0.64094   0.60771   0.66403   0.00000  Uiso   1.00
C21    C     0.81333   0.38464   0.40438   0.00000  Uiso   1.00
C22    C     0.81506   0.35283   0.29020   0.00000  Uiso   1.00
C23    C     0.76622   0.28220   0.31863   0.00000  Uiso   1.00
H24    H     0.73404   0.36333   0.75814   0.00000  Uiso   1.00
H25    H     0.91848   0.36075   0.72140   0.00000  Uiso   1.00
H26    H     0.59198   0.47106   0.91428   0.00000  Uiso   1.00
H27    H     0.67795   0.24774   0.67730   0.00000  Uiso   1.00
H28    H     0.14447   0.37440   0.61997   0.00000  Uiso   1.00
H29    H     0.45601   0.60699   0.02665   0.00000  Uiso   1.00
H30    H     0.63728   0.13608   0.52695   0.00000  Uiso   1.00
H31    H     0.89980   0.49039   0.29015   0.00000  Uiso   1.00
H32    H     0.09335   0.49479   0.22773   0.00000  Uiso   1.00
H33    H     0.76685   0.60510   0.42061   0.00000  Uiso   1.00
H34    H     0.85282   0.38178   0.18364   0.00000  Uiso   1.00
H35    H     0.28640   0.48320   0.21929   0.00000  Uiso   1.00
H36    H     0.59793   0.71579   0.62598   0.00000  Uiso   1.00
H37    H     0.77921   0.24488   0.12627   0.00000  Uiso   1.00
O38    O     0.33975   0.42942   0.38703   0.00000  Uiso   1.00
O39    O     0.43650   0.73456   0.92059   0.00000  Uiso   1.00
O40    O     0.67433   0.11674   0.26499   0.00000  Uiso   1.00
N41    N     0.15131   0.39939   0.53422   0.00000  Uiso   1.00
N42    N     0.50766   0.61685   0.91445   0.00000  Uiso   1.00
N43    N     0.67710   0.17660   0.44728   0.00000  Uiso   1.00
N44    N     0.22769   0.45793   0.31861   0.00000  Uiso   1.00
N45    N     0.58403   0.67539   0.69885   0.00000  Uiso   1.00
N46    N     0.75347   0.23514   0.23168   0.00000  Uiso   1.00
C47    C     0.27202   0.89243   0.65092   0.00000  Uiso   1.00
C48    C     0.39522   0.90865   0.56606   0.00000  Uiso   1.00
C49    C     0.45626   0.88968   0.61481   0.00000  Uiso   1.00
C50    C     0.56795   0.90945   0.52087   0.00000  Uiso   1.00
C51    C     0.75181   0.92897   0.41008   0.00000  Uiso   1.00
C52    C     0.21783   0.96859   0.67086   0.00000  Uiso   1.00
C53    C     0.12972   0.00001   0.80773   0.00000  Uiso   1.00
C54    C     0.09208   0.07024   0.80199   0.00000  Uiso   1.00
C55    C     0.00049   0.18280   0.85390   0.00000  Uiso   1.00
C56    C     0.26455   0.84725   0.54210   0.00000  Uiso   1.00
C57    C     0.21569   0.77666   0.57072   0.00000  Uiso   1.00
C58    C     0.21735   0.74474   0.45659   0.00000  Uiso   1.00
C59    C     0.19830   0.66890   0.30859   0.00000  Uiso   1.00
C60    C     0.36183   0.96128   0.39737   0.00000  Uiso   1.00
C61    C     0.44400   0.94604   0.42834   0.00000  Uiso   1.00
C62    C     0.55562   0.96585   0.33429   0.00000  Uiso   1.00
C63    C     0.61682   0.94691   0.38290   0.00000  Uiso   1.00
C64    C     0.26661   0.00598   0.53315   0.00000  Uiso   1.00
C65    C     0.22908   0.07618   0.52721   0.00000  Uiso   1.00
C66    C     0.14094   0.10771   0.66403   0.00000  Uiso   1.00
C67    C     0.31333   0.88464   0.40438   0.00000  Uiso   1.00
C68    C     0.31506   0.85283   0.29020   0.00000  Uiso   1.00
C69    C     0.26622   0.78220   0.31863   0.00000  Uiso   1.00
H70    H     0.23404   0.86333   0.75814   0.00000  Uiso   1.00
H71    H     0.41848   0.86075   0.72140   0.00000  Uiso   1.00
H72    H     0.09198   0.97106   0.91428   0.00000  Uiso   1.00
H73    H     0.17795   0.74774   0.67730   0.00000  Uiso   1.00
H74    H     0.64447   0.87440   0.61997   0.00000  Uiso   1.00
H75    H     0.95601   0.10699   0.02665   0.00000  Uiso   1.00
H76    H     0.13728   0.63608   0.52695   0.00000  Uiso   1.00
H77    H     0.39980   0.99039   0.29015   0.00000  Uiso   1.00
H78    H     0.59335   0.99479   0.22773   0.00000  Uiso   1.00
H79    H     0.26685   0.10510   0.42061   0.00000  Uiso   1.00
H80    H     0.35282   0.88178   0.18364   0.00000  Uiso   1.00
H81    H     0.78640   0.98320   0.21929   0.00000  Uiso   1.00
H82    H     0.09793   0.21579   0.62598   0.00000  Uiso   1.00
H83    H     0.27921   0.74488   0.12627   0.00000  Uiso   1.00
O84    O     0.83975   0.92942   0.38703   0.00000  Uiso   1.00
O85    O     0.93650   0.23456   0.92059   0.00000  Uiso   1.00
O86    O     0.17433   0.61674   0.26499   0.00000  Uiso   1.00
N87    N     0.65131   0.89939   0.53422   0.00000  Uiso   1.00
N88    N     0.00766   0.11685   0.91445   0.00000  Uiso   1.00
N89    N     0.17710   0.67660   0.44728   0.00000  Uiso   1.00
N90    N     0.72769   0.95793   0.31861   0.00000  Uiso   1.00
N91    N     0.08403   0.17539   0.69885   0.00000  Uiso   1.00
N92    N     0.25347   0.73514   0.23168   0.00000  Uiso   1.00
C93    C     0.77202   0.60757   0.15092   0.00000  Uiso   1.00
C94    C     0.89522   0.59135   0.06606   0.00000  Uiso   1.00
C95    C     0.95626   0.61032   0.11481   0.00000  Uiso   1.00
C96    C     0.06795   0.59055   0.02087   0.00000  Uiso   1.00
C97    C     0.25181   0.57103   0.91008   0.00000  Uiso   1.00
C98    C     0.71783   0.53141   0.17086   0.00000  Uiso   1.00
C99    C     0.62972   0.49999   0.30773   0.00000  Uiso   1.00
C100   C     0.59208   0.42976   0.30199   0.00000  Uiso   1.00
C101   C     0.50049   0.31720   0.35390   0.00000  Uiso   1.00
C102   C     0.76455   0.65275   0.04210   0.00000  Uiso   1.00
C103   C     0.71569   0.72334   0.07072   0.00000  Uiso   1.00
C104   C     0.71735   0.75526   0.95659   0.00000  Uiso   1.00
C105   C     0.69830   0.83110   0.80859   0.00000  Uiso   1.00
C106   C     0.86183   0.53872   0.89737   0.00000  Uiso   1.00
C107   C     0.94400   0.55396   0.92834   0.00000  Uiso   1.00
C108   C     0.05562   0.53415   0.83429   0.00000  Uiso   1.00
C109   C     0.11682   0.55309   0.88290   0.00000  Uiso   1.00
C110   C     0.76661   0.49402   0.03315   0.00000  Uiso   1.00
C111   C     0.72908   0.42382   0.02721   0.00000  Uiso   1.00
C112   C     0.64094   0.39229   0.16403   0.00000  Uiso   1.00
C113   C     0.81333   0.61536   0.90438   0.00000  Uiso   1.00
C114   C     0.81506   0.64717   0.79020   0.00000  Uiso   1.00
C115   C     0.76622   0.71780   0.81863   0.00000  Uiso   1.00
H116   H     0.73404   0.63667   0.25814   0.00000  Uiso   1.00
H117   H     0.91848   0.63925   0.22140   0.00000  Uiso   1.00
H118   H     0.59198   0.52894   0.41428   0.00000  Uiso   1.00
H119   H     0.67795   0.75226   0.17730   0.00000  Uiso   1.00
H120   H     0.14447   0.62560   0.11997   0.00000  Uiso   1.00
H121   H     0.45601   0.39301   0.52665   0.00000  Uiso   1.00
H122   H     0.63728   0.86392   0.02695   0.00000  Uiso   1.00
H123   H     0.89980   0.50961   0.79015   0.00000  Uiso   1.00
H124   H     0.09335   0.50521   0.72773   0.00000  Uiso   1.00
H125   H     0.76685   0.39490   0.92061   0.00000  Uiso   1.00
H126   H     0.85282   0.61822   0.68364   0.00000  Uiso   1.00
H127   H     0.28640   0.51680   0.71929   0.00000  Uiso   1.00
H128   H     0.59793   0.28421   0.12598   0.00000  Uiso   1.00
H129   H     0.77921   0.75512   0.62627   0.00000  Uiso   1.00
O130   O     0.33975   0.57058   0.88703   0.00000  Uiso   1.00
O131   O     0.43650   0.26544   0.42059   0.00000  Uiso   1.00
O132   O     0.67433   0.88326   0.76499   0.00000  Uiso   1.00
N133   N     0.15131   0.60061   0.03422   0.00000  Uiso   1.00
N134   N     0.50766   0.38315   0.41445   0.00000  Uiso   1.00
N135   N     0.67710   0.82340   0.94728   0.00000  Uiso   1.00
N136   N     0.22769   0.54207   0.81861   0.00000  Uiso   1.00
N137   N     0.58403   0.32461   0.19885   0.00000  Uiso   1.00
N138   N     0.75347   0.76486   0.73168   0.00000  Uiso   1.00
C139   C     0.27202   0.10757   0.15092   0.00000  Uiso   1.00
C140   C     0.39522   0.09135   0.06606   0.00000  Uiso   1.00
C141   C     0.45626   0.11032   0.11481   0.00000  Uiso   1.00
C142   C     0.56795   0.09055   0.02087   0.00000  Uiso   1.00
C143   C     0.75181   0.07103   0.91008   0.00000  Uiso   1.00
C144   C     0.21783   0.03141   0.17086   0.00000  Uiso   1.00
C145   C     0.12972   0.99999   0.30773   0.00000  Uiso   1.00
C146   C     0.09208   0.92976   0.30199   0.00000  Uiso   1.00
C147   C     0.00049   0.81720   0.35390   0.00000  Uiso   1.00
C148   C     0.26455   0.15275   0.04210   0.00000  Uiso   1.00
C149   C     0.21569   0.22334   0.07072   0.00000  Uiso   1.00
C150   C     0.21735   0.25526   0.95659   0.00000  Uiso   1.00
C151   C     0.19830   0.33110   0.80859   0.00000  Uiso   1.00
C152   C     0.36183   0.03872   0.89737   0.00000  Uiso   1.00
C153   C     0.44400   0.05396   0.92834   0.00000  Uiso   1.00
C154   C     0.55562   0.03415   0.83429   0.00000  Uiso   1.00
C155   C     0.61682   0.05309   0.88290   0.00000  Uiso   1.00
C156   C     0.26661   0.99402   0.03315   0.00000  Uiso   1.00
C157   C     0.22908   0.92382   0.02721   0.00000  Uiso   1.00
C158   C     0.14094   0.89229   0.16403   0.00000  Uiso   1.00
C159   C     0.31333   0.11536   0.90438   0.00000  Uiso   1.00
C160   C     0.31506   0.14717   0.79020   0.00000  Uiso   1.00
C161   C     0.26622   0.21780   0.81863   0.00000  Uiso   1.00
H162   H     0.23404   0.13667   0.25814   0.00000  Uiso   1.00
H163   H     0.41848   0.13925   0.22140   0.00000  Uiso   1.00
H164   H     0.09198   0.02894   0.41428   0.00000  Uiso   1.00
H165   H     0.17795   0.25226   0.17730   0.00000  Uiso   1.00
H166   H     0.64447   0.12560   0.11997   0.00000  Uiso   1.00
H167   H     0.95601   0.89301   0.52665   0.00000  Uiso   1.00
H168   H     0.13728   0.36392   0.02695   0.00000  Uiso   1.00
H169   H     0.39980   0.00961   0.79015   0.00000  Uiso   1.00
H170   H     0.59335   0.00521   0.72773   0.00000  Uiso   1.00
H171   H     0.26685   0.89490   0.92061   0.00000  Uiso   1.00
H172   H     0.35282   0.11822   0.68364   0.00000  Uiso   1.00
H173   H     0.78640   0.01680   0.71929   0.00000  Uiso   1.00
H174   H     0.09793   0.78421   0.12598   0.00000  Uiso   1.00
H175   H     0.27921   0.25512   0.62627   0.00000  Uiso   1.00
O176   O     0.83975   0.07058   0.88703   0.00000  Uiso   1.00
O177   O     0.93650   0.76544   0.42059   0.00000  Uiso   1.00
O178   O     0.17433   0.38326   0.76499   0.00000  Uiso   1.00
N179   N     0.65131   0.10061   0.03422   0.00000  Uiso   1.00
N180   N     0.00766   0.88315   0.41445   0.00000  Uiso   1.00
N181   N     0.17710   0.32340   0.94728   0.00000  Uiso   1.00
N182   N     0.72769   0.04207   0.81861   0.00000  Uiso   1.00
N183   N     0.08403   0.82461   0.19885   0.00000  Uiso   1.00
N184   N     0.25347   0.26486   0.73168   0.00000  Uiso   1.00
