data_job_04185
_audit_creation_date              2018-12-19
_audit_creation_method            'Materials Studio'
_symmetry_space_group_name_H-M    'P1'
_symmetry_Int_Tables_number       1
_symmetry_cell_setting            triclinic
loop_
_symmetry_equiv_pos_as_xyz
  x,y,z
_cell_length_a                    10.1033
_cell_length_b                    23.0972
_cell_length_c                    28.5525
_cell_angle_alpha                 90.0000
_cell_angle_beta                  90.0000
_cell_angle_gamma                 90.0000
loop_
_atom_site_label
_atom_site_type_symbol
_atom_site_fract_x
_atom_site_fract_y
_atom_site_fract_z
_atom_site_U_iso_or_equiv
_atom_site_adp_type
_atom_site_occupancy
C1     C     0.29486   0.96849   0.14244   0.00000  Uiso   1.00
C2     C     0.31034   0.02791   0.16506   0.00000  Uiso   1.00
C3     C     0.41596   0.04559   0.19265   0.00000  Uiso   1.00
C4     C     0.41162   0.10166   0.21009   0.00000  Uiso   1.00
C5     C     0.45179   0.18830   0.24673   0.00000  Uiso   1.00
C6     C     0.16275   0.94476   0.15973   0.00000  Uiso   1.00
C7     C     0.14427   0.89252   0.18283   0.00000  Uiso   1.00
C8     C     0.01568   0.87860   0.19578   0.00000  Uiso   1.00
C9     C     0.82670   0.83611   0.22410   0.00000  Uiso   1.00
C10    C     0.27749   0.97950   0.09015   0.00000  Uiso   1.00
C11    C     0.35547   0.95646   0.05474   0.00000  Uiso   1.00
C12    C     0.32347   0.97177   0.00910   0.00000  Uiso   1.00
C13    C     0.31265   0.98323   0.92939   0.00000  Uiso   1.00
C14    C     0.09935   0.03666   0.12435   0.00000  Uiso   1.00
C15    C     0.20415   0.06494   0.15523   0.00000  Uiso   1.00
C16    C     0.19965   0.12101   0.17263   0.00000  Uiso   1.00
C17    C     0.30525   0.13876   0.20025   0.00000  Uiso   1.00
C18    C     0.05656   0.98179   0.14990   0.00000  Uiso   1.00
C19    C     0.92797   0.96794   0.16281   0.00000  Uiso   1.00
C20    C     0.90930   0.91569   0.18593   0.00000  Uiso   1.00
C21    C     0.17130   0.01653   0.08032   0.00000  Uiso   1.00
C22    C     0.13917   0.03188   0.03472   0.00000  Uiso   1.00
C23    C     0.21709   0.00887   0.99925   0.00000  Uiso   1.00
H24    H     0.37752   0.93966   0.15010   0.00000  Uiso   1.00
H25    H     0.49811   0.01692   0.20025   0.00000  Uiso   1.00
H26    H     0.22646   0.86387   0.19043   0.00000  Uiso   1.00
H27    H     0.43764   0.92780   0.06236   0.00000  Uiso   1.00
H28    H     0.58495   0.11889   0.25154   0.00000  Uiso   1.00
H29    H     0.01216   0.79618   0.23081   0.00000  Uiso   1.00
H30    H     0.45746   0.93099   0.96075   0.00000  Uiso   1.00
H31    H     0.01667   0.06548   0.11670   0.00000  Uiso   1.00
H32    H     0.11746   0.14965   0.16502   0.00000  Uiso   1.00
H33    H     0.84581   0.99660   0.15520   0.00000  Uiso   1.00
H34    H     0.05699   0.06054   0.02713   0.00000  Uiso   1.00
H35    H     0.27600   0.22662   0.22295   0.00000  Uiso   1.00
H36    H     0.70321   0.90391   0.20222   0.00000  Uiso   1.00
H37    H     0.14851   0.03872   0.93216   0.00000  Uiso   1.00
O38    O     0.50327   0.22585   0.26965   0.00000  Uiso   1.00
O39    O     0.75179   0.80245   0.24245   0.00000  Uiso   1.00
O40    O     0.33602   0.97933   0.88813   0.00000  Uiso   1.00
N41    N     0.49842   0.13270   0.23817   0.00000  Uiso   1.00
N42    N     0.96290   0.83099   0.21880   0.00000  Uiso   1.00
N43    N     0.37920   0.95701   0.96631   0.00000  Uiso   1.00
N44    N     0.33218   0.19067   0.22279   0.00000  Uiso   1.00
N45    N     0.79666   0.88895   0.20341   0.00000  Uiso   1.00
N46    N     0.21296   0.01498   0.95093   0.00000  Uiso   1.00
C47    C     0.20514   0.03151   0.64244   0.00000  Uiso   1.00
C48    C     0.18966   0.97209   0.66506   0.00000  Uiso   1.00
C49    C     0.08404   0.95441   0.69265   0.00000  Uiso   1.00
C50    C     0.08838   0.89834   0.71009   0.00000  Uiso   1.00
C51    C     0.04821   0.81170   0.74673   0.00000  Uiso   1.00
C52    C     0.33725   0.05524   0.65973   0.00000  Uiso   1.00
C53    C     0.35573   0.10748   0.68283   0.00000  Uiso   1.00
C54    C     0.48432   0.12140   0.69578   0.00000  Uiso   1.00
C55    C     0.67330   0.16389   0.72410   0.00000  Uiso   1.00
C56    C     0.22251   0.02050   0.59015   0.00000  Uiso   1.00
C57    C     0.14453   0.04354   0.55474   0.00000  Uiso   1.00
C58    C     0.17653   0.02823   0.50910   0.00000  Uiso   1.00
C59    C     0.18735   0.01677   0.42939   0.00000  Uiso   1.00
C60    C     0.40065   0.96334   0.62435   0.00000  Uiso   1.00
C61    C     0.29585   0.93506   0.65523   0.00000  Uiso   1.00
C62    C     0.30035   0.87899   0.67263   0.00000  Uiso   1.00
C63    C     0.19475   0.86124   0.70025   0.00000  Uiso   1.00
C64    C     0.44344   0.01821   0.64990   0.00000  Uiso   1.00
C65    C     0.57203   0.03206   0.66281   0.00000  Uiso   1.00
C66    C     0.59070   0.08431   0.68593   0.00000  Uiso   1.00
C67    C     0.32870   0.98347   0.58032   0.00000  Uiso   1.00
C68    C     0.36083   0.96812   0.53472   0.00000  Uiso   1.00
C69    C     0.28291   0.99113   0.49925   0.00000  Uiso   1.00
H70    H     0.12248   0.06034   0.65010   0.00000  Uiso   1.00
H71    H     0.00189   0.98308   0.70025   0.00000  Uiso   1.00
H72    H     0.27354   0.13613   0.69043   0.00000  Uiso   1.00
H73    H     0.06236   0.07220   0.56236   0.00000  Uiso   1.00
H74    H     0.91505   0.88111   0.75154   0.00000  Uiso   1.00
H75    H     0.48784   0.20382   0.73081   0.00000  Uiso   1.00
H76    H     0.04254   0.06901   0.46075   0.00000  Uiso   1.00
H77    H     0.48333   0.93452   0.61670   0.00000  Uiso   1.00
H78    H     0.38254   0.85035   0.66502   0.00000  Uiso   1.00
H79    H     0.65419   0.00340   0.65520   0.00000  Uiso   1.00
H80    H     0.44301   0.93946   0.52713   0.00000  Uiso   1.00
H81    H     0.22400   0.77338   0.72295   0.00000  Uiso   1.00
H82    H     0.79679   0.09609   0.70222   0.00000  Uiso   1.00
H83    H     0.35149   0.96128   0.43216   0.00000  Uiso   1.00
O84    O     0.99673   0.77415   0.76965   0.00000  Uiso   1.00
O85    O     0.74821   0.19755   0.74245   0.00000  Uiso   1.00
O86    O     0.16398   0.02067   0.38813   0.00000  Uiso   1.00
N87    N     0.00158   0.86730   0.73817   0.00000  Uiso   1.00
N88    N     0.53710   0.16901   0.71880   0.00000  Uiso   1.00
N89    N     0.12080   0.04299   0.46631   0.00000  Uiso   1.00
N90    N     0.16782   0.80933   0.72279   0.00000  Uiso   1.00
N91    N     0.70334   0.11105   0.70341   0.00000  Uiso   1.00
N92    N     0.28704   0.98502   0.45093   0.00000  Uiso   1.00
C93    C     0.70514   0.46849   0.35756   0.00000  Uiso   1.00
C94    C     0.68966   0.52791   0.33494   0.00000  Uiso   1.00
C95    C     0.58404   0.54559   0.30735   0.00000  Uiso   1.00
C96    C     0.58838   0.60166   0.28991   0.00000  Uiso   1.00
C97    C     0.54821   0.68830   0.25327   0.00000  Uiso   1.00
C98    C     0.83725   0.44476   0.34027   0.00000  Uiso   1.00
C99    C     0.85573   0.39252   0.31717   0.00000  Uiso   1.00
C100   C     0.98432   0.37860   0.30422   0.00000  Uiso   1.00
C101   C     0.17330   0.33611   0.27590   0.00000  Uiso   1.00
C102   C     0.72251   0.47950   0.40985   0.00000  Uiso   1.00
C103   C     0.64453   0.45646   0.44526   0.00000  Uiso   1.00
C104   C     0.67653   0.47177   0.49090   0.00000  Uiso   1.00
C105   C     0.68735   0.48323   0.57061   0.00000  Uiso   1.00
C106   C     0.90065   0.53666   0.37565   0.00000  Uiso   1.00
C107   C     0.79585   0.56494   0.34477   0.00000  Uiso   1.00
C108   C     0.80035   0.62101   0.32737   0.00000  Uiso   1.00
C109   C     0.69475   0.63876   0.29975   0.00000  Uiso   1.00
C110   C     0.94344   0.48179   0.35010   0.00000  Uiso   1.00
C111   C     0.07203   0.46794   0.33719   0.00000  Uiso   1.00
C112   C     0.09070   0.41569   0.31407   0.00000  Uiso   1.00
C113   C     0.82870   0.51653   0.41968   0.00000  Uiso   1.00
C114   C     0.86083   0.53188   0.46528   0.00000  Uiso   1.00
C115   C     0.78291   0.50887   0.50075   0.00000  Uiso   1.00
H116   H     0.62248   0.43966   0.34990   0.00000  Uiso   1.00
H117   H     0.50189   0.51692   0.29975   0.00000  Uiso   1.00
H118   H     0.77354   0.36387   0.30957   0.00000  Uiso   1.00
H119   H     0.56236   0.42780   0.43764   0.00000  Uiso   1.00
H120   H     0.41505   0.61889   0.24846   0.00000  Uiso   1.00
H121   H     0.98784   0.29618   0.26919   0.00000  Uiso   1.00
H122   H     0.54254   0.43099   0.53925   0.00000  Uiso   1.00
H123   H     0.98333   0.56548   0.38330   0.00000  Uiso   1.00
H124   H     0.88254   0.64965   0.33498   0.00000  Uiso   1.00
H125   H     0.15419   0.49660   0.34480   0.00000  Uiso   1.00
H126   H     0.94301   0.56054   0.47287   0.00000  Uiso   1.00
H127   H     0.72400   0.72662   0.27705   0.00000  Uiso   1.00
H128   H     0.29679   0.40391   0.29778   0.00000  Uiso   1.00
H129   H     0.85149   0.53872   0.56784   0.00000  Uiso   1.00
O130   O     0.49673   0.72585   0.23035   0.00000  Uiso   1.00
O131   O     0.24821   0.30245   0.25755   0.00000  Uiso   1.00
O132   O     0.66398   0.47933   0.61187   0.00000  Uiso   1.00
N133   N     0.50158   0.63270   0.26183   0.00000  Uiso   1.00
N134   N     0.03710   0.33099   0.28120   0.00000  Uiso   1.00
N135   N     0.62080   0.45701   0.53369   0.00000  Uiso   1.00
N136   N     0.66782   0.69067   0.27721   0.00000  Uiso   1.00
N137   N     0.20334   0.38895   0.29659   0.00000  Uiso   1.00
N138   N     0.78704   0.51498   0.54907   0.00000  Uiso   1.00
C139   C     0.79486   0.53151   0.85756   0.00000  Uiso   1.00
C140   C     0.81034   0.47209   0.83494   0.00000  Uiso   1.00
C141   C     0.91596   0.45441   0.80735   0.00000  Uiso   1.00
C142   C     0.91162   0.39834   0.78991   0.00000  Uiso   1.00
C143   C     0.95179   0.31170   0.75327   0.00000  Uiso   1.00
C144   C     0.66275   0.55524   0.84027   0.00000  Uiso   1.00
C145   C     0.64427   0.60748   0.81717   0.00000  Uiso   1.00
C146   C     0.51568   0.62140   0.80422   0.00000  Uiso   1.00
C147   C     0.32670   0.66389   0.77590   0.00000  Uiso   1.00
C148   C     0.77749   0.52050   0.90985   0.00000  Uiso   1.00
C149   C     0.85547   0.54354   0.94526   0.00000  Uiso   1.00
C150   C     0.82347   0.52823   0.99090   0.00000  Uiso   1.00
C151   C     0.81265   0.51677   0.07061   0.00000  Uiso   1.00
C152   C     0.59935   0.46334   0.87565   0.00000  Uiso   1.00
C153   C     0.70415   0.43506   0.84477   0.00000  Uiso   1.00
C154   C     0.69965   0.37899   0.82737   0.00000  Uiso   1.00
C155   C     0.80525   0.36124   0.79975   0.00000  Uiso   1.00
C156   C     0.55656   0.51821   0.85010   0.00000  Uiso   1.00
C157   C     0.42797   0.53206   0.83719   0.00000  Uiso   1.00
C158   C     0.40930   0.58431   0.81407   0.00000  Uiso   1.00
C159   C     0.67130   0.48347   0.91968   0.00000  Uiso   1.00
C160   C     0.63917   0.46812   0.96528   0.00000  Uiso   1.00
C161   C     0.71709   0.49113   0.00075   0.00000  Uiso   1.00
H162   H     0.87752   0.56034   0.84990   0.00000  Uiso   1.00
H163   H     0.99811   0.48308   0.79975   0.00000  Uiso   1.00
H164   H     0.72646   0.63613   0.80957   0.00000  Uiso   1.00
H165   H     0.93764   0.57220   0.93764   0.00000  Uiso   1.00
H166   H     0.08495   0.38111   0.74846   0.00000  Uiso   1.00
H167   H     0.51216   0.70382   0.76919   0.00000  Uiso   1.00
H168   H     0.95746   0.56901   0.03925   0.00000  Uiso   1.00
H169   H     0.51667   0.43452   0.88330   0.00000  Uiso   1.00
H170   H     0.61746   0.35035   0.83498   0.00000  Uiso   1.00
H171   H     0.34581   0.50340   0.84480   0.00000  Uiso   1.00
H172   H     0.55699   0.43946   0.97287   0.00000  Uiso   1.00
H173   H     0.77600   0.27338   0.77705   0.00000  Uiso   1.00
H174   H     0.20321   0.59609   0.79778   0.00000  Uiso   1.00
H175   H     0.64851   0.46128   0.06784   0.00000  Uiso   1.00
O176   O     0.00327   0.27415   0.73035   0.00000  Uiso   1.00
O177   O     0.25179   0.69755   0.75755   0.00000  Uiso   1.00
O178   O     0.83602   0.52067   0.11187   0.00000  Uiso   1.00
N179   N     0.99842   0.36730   0.76183   0.00000  Uiso   1.00
N180   N     0.46290   0.66901   0.78120   0.00000  Uiso   1.00
N181   N     0.87920   0.54299   0.03369   0.00000  Uiso   1.00
N182   N     0.83218   0.30933   0.77721   0.00000  Uiso   1.00
N183   N     0.29666   0.61105   0.79659   0.00000  Uiso   1.00
N184   N     0.71296   0.48502   0.04907   0.00000  Uiso   1.00
C185   C     0.70514   0.03151   0.85756   0.00000  Uiso   1.00
C186   C     0.68966   0.97209   0.83494   0.00000  Uiso   1.00
C187   C     0.58404   0.95441   0.80735   0.00000  Uiso   1.00
C188   C     0.58838   0.89834   0.78991   0.00000  Uiso   1.00
C189   C     0.54821   0.81170   0.75327   0.00000  Uiso   1.00
C190   C     0.83725   0.05524   0.84027   0.00000  Uiso   1.00
C191   C     0.85573   0.10748   0.81717   0.00000  Uiso   1.00
C192   C     0.98432   0.12140   0.80422   0.00000  Uiso   1.00
C193   C     0.17330   0.16389   0.77590   0.00000  Uiso   1.00
C194   C     0.72251   0.02050   0.90985   0.00000  Uiso   1.00
C195   C     0.64453   0.04354   0.94526   0.00000  Uiso   1.00
C196   C     0.67653   0.02823   0.99090   0.00000  Uiso   1.00
C197   C     0.68735   0.01677   0.07061   0.00000  Uiso   1.00
C198   C     0.90065   0.96334   0.87565   0.00000  Uiso   1.00
C199   C     0.79585   0.93506   0.84477   0.00000  Uiso   1.00
C200   C     0.80035   0.87899   0.82737   0.00000  Uiso   1.00
C201   C     0.69475   0.86124   0.79975   0.00000  Uiso   1.00
C202   C     0.94344   0.01821   0.85010   0.00000  Uiso   1.00
C203   C     0.07203   0.03206   0.83719   0.00000  Uiso   1.00
C204   C     0.09070   0.08431   0.81407   0.00000  Uiso   1.00
C205   C     0.82870   0.98347   0.91968   0.00000  Uiso   1.00
C206   C     0.86083   0.96812   0.96528   0.00000  Uiso   1.00
C207   C     0.78291   0.99113   0.00075   0.00000  Uiso   1.00
H208   H     0.62248   0.06034   0.84990   0.00000  Uiso   1.00
H209   H     0.50189   0.98308   0.79975   0.00000  Uiso   1.00
H210   H     0.77354   0.13613   0.80957   0.00000  Uiso   1.00
H211   H     0.56236   0.07220   0.93764   0.00000  Uiso   1.00
H212   H     0.41505   0.88111   0.74846   0.00000  Uiso   1.00
H213   H     0.98784   0.20382   0.76919   0.00000  Uiso   1.00
H214   H     0.54254   0.06901   0.03925   0.00000  Uiso   1.00
H215   H     0.98333   0.93452   0.88330   0.00000  Uiso   1.00
H216   H     0.88254   0.85035   0.83498   0.00000  Uiso   1.00
H217   H     0.15419   0.00340   0.84480   0.00000  Uiso   1.00
H218   H     0.94301   0.93946   0.97287   0.00000  Uiso   1.00
H219   H     0.72400   0.77338   0.77705   0.00000  Uiso   1.00
H220   H     0.29679   0.09609   0.79778   0.00000  Uiso   1.00
H221   H     0.85149   0.96128   0.06784   0.00000  Uiso   1.00
O222   O     0.49673   0.77415   0.73035   0.00000  Uiso   1.00
O223   O     0.24821   0.19755   0.75755   0.00000  Uiso   1.00
O224   O     0.66398   0.02067   0.11187   0.00000  Uiso   1.00
N225   N     0.50158   0.86730   0.76183   0.00000  Uiso   1.00
N226   N     0.03710   0.16901   0.78120   0.00000  Uiso   1.00
N227   N     0.62080   0.04299   0.03369   0.00000  Uiso   1.00
N228   N     0.66782   0.80933   0.77721   0.00000  Uiso   1.00
N229   N     0.20334   0.11105   0.79659   0.00000  Uiso   1.00
N230   N     0.78704   0.98502   0.04907   0.00000  Uiso   1.00
C231   C     0.79486   0.96849   0.35756   0.00000  Uiso   1.00
C232   C     0.81034   0.02791   0.33494   0.00000  Uiso   1.00
C233   C     0.91596   0.04559   0.30735   0.00000  Uiso   1.00
C234   C     0.91162   0.10166   0.28991   0.00000  Uiso   1.00
C235   C     0.95179   0.18830   0.25327   0.00000  Uiso   1.00
C236   C     0.66275   0.94476   0.34027   0.00000  Uiso   1.00
C237   C     0.64427   0.89252   0.31717   0.00000  Uiso   1.00
C238   C     0.51568   0.87860   0.30422   0.00000  Uiso   1.00
C239   C     0.32670   0.83611   0.27590   0.00000  Uiso   1.00
C240   C     0.77749   0.97950   0.40985   0.00000  Uiso   1.00
C241   C     0.85547   0.95646   0.44526   0.00000  Uiso   1.00
C242   C     0.82347   0.97177   0.49090   0.00000  Uiso   1.00
C243   C     0.81265   0.98323   0.57061   0.00000  Uiso   1.00
C244   C     0.59935   0.03666   0.37565   0.00000  Uiso   1.00
C245   C     0.70415   0.06494   0.34477   0.00000  Uiso   1.00
C246   C     0.69965   0.12101   0.32737   0.00000  Uiso   1.00
C247   C     0.80525   0.13876   0.29975   0.00000  Uiso   1.00
C248   C     0.55656   0.98179   0.35010   0.00000  Uiso   1.00
C249   C     0.42797   0.96794   0.33719   0.00000  Uiso   1.00
C250   C     0.40930   0.91569   0.31407   0.00000  Uiso   1.00
C251   C     0.67130   0.01653   0.41968   0.00000  Uiso   1.00
C252   C     0.63917   0.03188   0.46528   0.00000  Uiso   1.00
C253   C     0.71709   0.00887   0.50075   0.00000  Uiso   1.00
H254   H     0.87752   0.93966   0.34990   0.00000  Uiso   1.00
H255   H     0.99811   0.01692   0.29975   0.00000  Uiso   1.00
H256   H     0.72646   0.86387   0.30957   0.00000  Uiso   1.00
H257   H     0.93764   0.92780   0.43764   0.00000  Uiso   1.00
H258   H     0.08495   0.11889   0.24846   0.00000  Uiso   1.00
H259   H     0.51216   0.79618   0.26919   0.00000  Uiso   1.00
H260   H     0.95746   0.93099   0.53925   0.00000  Uiso   1.00
H261   H     0.51667   0.06548   0.38330   0.00000  Uiso   1.00
H262   H     0.61746   0.14965   0.33498   0.00000  Uiso   1.00
H263   H     0.34581   0.99660   0.34480   0.00000  Uiso   1.00
H264   H     0.55699   0.06054   0.47287   0.00000  Uiso   1.00
H265   H     0.77600   0.22662   0.27705   0.00000  Uiso   1.00
H266   H     0.20321   0.90391   0.29778   0.00000  Uiso   1.00
H267   H     0.64851   0.03872   0.56784   0.00000  Uiso   1.00
O268   O     0.00327   0.22585   0.23035   0.00000  Uiso   1.00
O269   O     0.25179   0.80245   0.25755   0.00000  Uiso   1.00
O270   O     0.83602   0.97933   0.61187   0.00000  Uiso   1.00
N271   N     0.99842   0.13270   0.26183   0.00000  Uiso   1.00
N272   N     0.46290   0.83099   0.28120   0.00000  Uiso   1.00
N273   N     0.87920   0.95701   0.53369   0.00000  Uiso   1.00
N274   N     0.83218   0.19067   0.27721   0.00000  Uiso   1.00
N275   N     0.29666   0.88895   0.29659   0.00000  Uiso   1.00
N276   N     0.71296   0.01498   0.54907   0.00000  Uiso   1.00
C277   C     0.29486   0.53151   0.64244   0.00000  Uiso   1.00
C278   C     0.31034   0.47209   0.66506   0.00000  Uiso   1.00
C279   C     0.41596   0.45441   0.69265   0.00000  Uiso   1.00
C280   C     0.41162   0.39834   0.71009   0.00000  Uiso   1.00
C281   C     0.45179   0.31170   0.74673   0.00000  Uiso   1.00
C282   C     0.16275   0.55524   0.65973   0.00000  Uiso   1.00
C283   C     0.14427   0.60748   0.68283   0.00000  Uiso   1.00
C284   C     0.01568   0.62140   0.69578   0.00000  Uiso   1.00
C285   C     0.82670   0.66389   0.72410   0.00000  Uiso   1.00
C286   C     0.27749   0.52050   0.59015   0.00000  Uiso   1.00
C287   C     0.35547   0.54354   0.55474   0.00000  Uiso   1.00
C288   C     0.32347   0.52823   0.50910   0.00000  Uiso   1.00
C289   C     0.31265   0.51677   0.42939   0.00000  Uiso   1.00
C290   C     0.09935   0.46334   0.62435   0.00000  Uiso   1.00
C291   C     0.20415   0.43506   0.65523   0.00000  Uiso   1.00
C292   C     0.19965   0.37899   0.67263   0.00000  Uiso   1.00
C293   C     0.30525   0.36124   0.70025   0.00000  Uiso   1.00
C294   C     0.05656   0.51821   0.64990   0.00000  Uiso   1.00
C295   C     0.92797   0.53206   0.66281   0.00000  Uiso   1.00
C296   C     0.90930   0.58431   0.68593   0.00000  Uiso   1.00
C297   C     0.17130   0.48347   0.58032   0.00000  Uiso   1.00
C298   C     0.13917   0.46812   0.53472   0.00000  Uiso   1.00
C299   C     0.21709   0.49113   0.49925   0.00000  Uiso   1.00
H300   H     0.37752   0.56034   0.65010   0.00000  Uiso   1.00
H301   H     0.49811   0.48308   0.70025   0.00000  Uiso   1.00
H302   H     0.22646   0.63613   0.69043   0.00000  Uiso   1.00
H303   H     0.43764   0.57220   0.56236   0.00000  Uiso   1.00
H304   H     0.58495   0.38111   0.75154   0.00000  Uiso   1.00
H305   H     0.01216   0.70382   0.73081   0.00000  Uiso   1.00
H306   H     0.45746   0.56901   0.46075   0.00000  Uiso   1.00
H307   H     0.01667   0.43452   0.61670   0.00000  Uiso   1.00
H308   H     0.11746   0.35035   0.66502   0.00000  Uiso   1.00
H309   H     0.84581   0.50340   0.65520   0.00000  Uiso   1.00
H310   H     0.05699   0.43946   0.52713   0.00000  Uiso   1.00
H311   H     0.27600   0.27338   0.72295   0.00000  Uiso   1.00
H312   H     0.70321   0.59609   0.70222   0.00000  Uiso   1.00
H313   H     0.14851   0.46128   0.43216   0.00000  Uiso   1.00
O314   O     0.50327   0.27415   0.76965   0.00000  Uiso   1.00
O315   O     0.75179   0.69755   0.74245   0.00000  Uiso   1.00
O316   O     0.33602   0.52067   0.38813   0.00000  Uiso   1.00
N317   N     0.49842   0.36730   0.73817   0.00000  Uiso   1.00
N318   N     0.96290   0.66901   0.71880   0.00000  Uiso   1.00
N319   N     0.37920   0.54299   0.46631   0.00000  Uiso   1.00
N320   N     0.33218   0.30933   0.72279   0.00000  Uiso   1.00
N321   N     0.79666   0.61105   0.70341   0.00000  Uiso   1.00
N322   N     0.21296   0.48502   0.45093   0.00000  Uiso   1.00
C323   C     0.20514   0.46849   0.14244   0.00000  Uiso   1.00
C324   C     0.18966   0.52791   0.16506   0.00000  Uiso   1.00
C325   C     0.08404   0.54559   0.19265   0.00000  Uiso   1.00
C326   C     0.08838   0.60166   0.21009   0.00000  Uiso   1.00
C327   C     0.04821   0.68830   0.24673   0.00000  Uiso   1.00
C328   C     0.33725   0.44476   0.15973   0.00000  Uiso   1.00
C329   C     0.35573   0.39252   0.18283   0.00000  Uiso   1.00
C330   C     0.48432   0.37860   0.19578   0.00000  Uiso   1.00
C331   C     0.67330   0.33611   0.22410   0.00000  Uiso   1.00
C332   C     0.22251   0.47950   0.09015   0.00000  Uiso   1.00
C333   C     0.14453   0.45646   0.05474   0.00000  Uiso   1.00
C334   C     0.17653   0.47177   0.00910   0.00000  Uiso   1.00
C335   C     0.18735   0.48323   0.92939   0.00000  Uiso   1.00
C336   C     0.40065   0.53666   0.12435   0.00000  Uiso   1.00
C337   C     0.29585   0.56494   0.15523   0.00000  Uiso   1.00
C338   C     0.30035   0.62101   0.17263   0.00000  Uiso   1.00
C339   C     0.19475   0.63876   0.20025   0.00000  Uiso   1.00
C340   C     0.44344   0.48179   0.14990   0.00000  Uiso   1.00
C341   C     0.57203   0.46794   0.16281   0.00000  Uiso   1.00
C342   C     0.59070   0.41569   0.18593   0.00000  Uiso   1.00
C343   C     0.32870   0.51653   0.08032   0.00000  Uiso   1.00
C344   C     0.36083   0.53188   0.03472   0.00000  Uiso   1.00
C345   C     0.28291   0.50887   0.99925   0.00000  Uiso   1.00
H346   H     0.12248   0.43966   0.15010   0.00000  Uiso   1.00
H347   H     0.00189   0.51692   0.20025   0.00000  Uiso   1.00
H348   H     0.27354   0.36387   0.19043   0.00000  Uiso   1.00
H349   H     0.06236   0.42780   0.06236   0.00000  Uiso   1.00
H350   H     0.91505   0.61889   0.25154   0.00000  Uiso   1.00
H351   H     0.48784   0.29618   0.23081   0.00000  Uiso   1.00
H352   H     0.04254   0.43099   0.96075   0.00000  Uiso   1.00
H353   H     0.48333   0.56548   0.11670   0.00000  Uiso   1.00
H354   H     0.38254   0.64965   0.16502   0.00000  Uiso   1.00
H355   H     0.65419   0.49660   0.15520   0.00000  Uiso   1.00
H356   H     0.44301   0.56054   0.02713   0.00000  Uiso   1.00
H357   H     0.22400   0.72662   0.22295   0.00000  Uiso   1.00
H358   H     0.79679   0.40391   0.20222   0.00000  Uiso   1.00
H359   H     0.35149   0.53872   0.93216   0.00000  Uiso   1.00
O360   O     0.99673   0.72585   0.26965   0.00000  Uiso   1.00
O361   O     0.74821   0.30245   0.24245   0.00000  Uiso   1.00
O362   O     0.16398   0.47933   0.88813   0.00000  Uiso   1.00
N363   N     0.00158   0.63270   0.23817   0.00000  Uiso   1.00
N364   N     0.53710   0.33099   0.21880   0.00000  Uiso   1.00
N365   N     0.12080   0.45701   0.96631   0.00000  Uiso   1.00
N366   N     0.16782   0.69067   0.22279   0.00000  Uiso   1.00
N367   N     0.70334   0.38895   0.20341   0.00000  Uiso   1.00
N368   N     0.28704   0.51498   0.95093   0.00000  Uiso   1.00
