data_job_03011
_audit_creation_date              2018-12-19
_audit_creation_method            'Materials Studio'
_symmetry_space_group_name_H-M    'P1'
_symmetry_Int_Tables_number       1
_symmetry_cell_setting            triclinic
loop_
_symmetry_equiv_pos_as_xyz
  x,y,z
_cell_length_a                    27.0917
_cell_length_b                    12.5958
_cell_length_c                    27.3180
_cell_angle_alpha                 90.0000
_cell_angle_beta                  127.9910
_cell_angle_gamma                 90.0000
loop_
_atom_site_label
_atom_site_type_symbol
_atom_site_fract_x
_atom_site_fract_y
_atom_site_fract_z
_atom_site_U_iso_or_equiv
_atom_site_adp_type
_atom_site_occupancy
C1     C     0.27489   0.49058   0.95090   0.00000  Uiso   1.00
C2     C     0.34219   0.46584   0.00679   0.00000  Uiso   1.00
C3     C     0.36133   0.42843   0.06386   0.00000  Uiso   1.00
C4     C     0.42501   0.41074   0.10903   0.00000  Uiso   1.00
C5     C     0.52298   0.36949   0.19759   0.00000  Uiso   1.00
C6     C     0.27482   0.60593   0.93391   0.00000  Uiso   1.00
C7     C     0.23731   0.68630   0.92968   0.00000  Uiso   1.00
C8     C     0.24427   0.78654   0.91350   0.00000  Uiso   1.00
C9     C     0.23761   0.96275   0.88886   0.00000  Uiso   1.00
C10    C     0.26183   0.42403   0.89743   0.00000  Uiso   1.00
C11    C     0.21340   0.35147   0.86251   0.00000  Uiso   1.00
C12    C     0.20941   0.29857   0.81560   0.00000  Uiso   1.00
C13    C     0.18259   0.19235   0.73432   0.00000  Uiso   1.00
C14    C     0.35393   0.52569   0.92964   0.00000  Uiso   1.00
C15    C     0.38511   0.48492   0.99525   0.00000  Uiso   1.00
C16    C     0.44878   0.46727   0.04035   0.00000  Uiso   1.00
C17    C     0.46801   0.42984   0.09747   0.00000  Uiso   1.00
C18    C     0.31774   0.62501   0.92236   0.00000  Uiso   1.00
C19    C     0.32476   0.72514   0.90617   0.00000  Uiso   1.00
C20    C     0.28728   0.80564   0.90193   0.00000  Uiso   1.00
C21    C     0.30476   0.44310   0.88588   0.00000  Uiso   1.00
C22    C     0.30084   0.39031   0.83901   0.00000  Uiso   1.00
C23    C     0.25242   0.31768   0.80403   0.00000  Uiso   1.00
H24    H     0.24147   0.47574   0.95988   0.00000  Uiso   1.00
H25    H     0.32810   0.41370   0.07278   0.00000  Uiso   1.00
H26    H     0.20409   0.67152   0.93861   0.00000  Uiso   1.00
H27    H     0.18019   0.33673   0.87146   0.00000  Uiso   1.00
H28    H     0.44308   0.35335   0.19286   0.00000  Uiso   1.00
H29    H     0.18159   0.89698   0.90995   0.00000  Uiso   1.00
H30    H     0.13117   0.19102   0.76834   0.00000  Uiso   1.00
H31    H     0.38735   0.54054   0.92066   0.00000  Uiso   1.00
H32    H     0.48199   0.48204   0.03140   0.00000  Uiso   1.00
H33    H     0.35798   0.73987   0.89724   0.00000  Uiso   1.00
H34    H     0.33407   0.40508   0.83009   0.00000  Uiso   1.00
H35    H     0.56798   0.40883   0.15928   0.00000  Uiso   1.00
H36    H     0.30649   0.95246   0.87637   0.00000  Uiso   1.00
H37    H     0.25607   0.24650   0.73476   0.00000  Uiso   1.00
O38    O     0.56515   0.34148   0.24963   0.00000  Uiso   1.00
O39    O     0.22208   0.05469   0.87846   0.00000  Uiso   1.00
O40    O     0.15594   0.12849   0.69268   0.00000  Uiso   1.00
N41    N     0.45948   0.37442   0.16975   0.00000  Uiso   1.00
N42    N     0.21502   0.88268   0.90526   0.00000  Uiso   1.00
N43    N     0.16787   0.22269   0.77286   0.00000  Uiso   1.00
N44    N     0.52669   0.40426   0.15168   0.00000  Uiso   1.00
N45    N     0.28222   0.91253   0.88719   0.00000  Uiso   1.00
N46    N     0.23508   0.25254   0.75479   0.00000  Uiso   1.00
C47    C     0.77489   0.99058   0.95090   0.00000  Uiso   1.00
C48    C     0.84219   0.96584   0.00679   0.00000  Uiso   1.00
C49    C     0.86133   0.92843   0.06386   0.00000  Uiso   1.00
C50    C     0.92501   0.91074   0.10903   0.00000  Uiso   1.00
C51    C     0.02298   0.86949   0.19759   0.00000  Uiso   1.00
C52    C     0.77482   0.10593   0.93391   0.00000  Uiso   1.00
C53    C     0.73731   0.18630   0.92968   0.00000  Uiso   1.00
C54    C     0.74427   0.28654   0.91350   0.00000  Uiso   1.00
C55    C     0.73761   0.46275   0.88886   0.00000  Uiso   1.00
C56    C     0.76183   0.92403   0.89743   0.00000  Uiso   1.00
C57    C     0.71340   0.85147   0.86251   0.00000  Uiso   1.00
C58    C     0.70941   0.79857   0.81560   0.00000  Uiso   1.00
C59    C     0.68259   0.69235   0.73432   0.00000  Uiso   1.00
C60    C     0.85393   0.02569   0.92964   0.00000  Uiso   1.00
C61    C     0.88511   0.98492   0.99525   0.00000  Uiso   1.00
C62    C     0.94878   0.96727   0.04035   0.00000  Uiso   1.00
C63    C     0.96801   0.92984   0.09747   0.00000  Uiso   1.00
C64    C     0.81774   0.12501   0.92236   0.00000  Uiso   1.00
C65    C     0.82476   0.22514   0.90617   0.00000  Uiso   1.00
C66    C     0.78728   0.30564   0.90193   0.00000  Uiso   1.00
C67    C     0.80476   0.94310   0.88588   0.00000  Uiso   1.00
C68    C     0.80084   0.89031   0.83901   0.00000  Uiso   1.00
C69    C     0.75242   0.81768   0.80403   0.00000  Uiso   1.00
H70    H     0.74147   0.97574   0.95988   0.00000  Uiso   1.00
H71    H     0.82810   0.91370   0.07278   0.00000  Uiso   1.00
H72    H     0.70409   0.17152   0.93861   0.00000  Uiso   1.00
H73    H     0.68019   0.83673   0.87146   0.00000  Uiso   1.00
H74    H     0.94308   0.85335   0.19286   0.00000  Uiso   1.00
H75    H     0.68159   0.39698   0.90995   0.00000  Uiso   1.00
H76    H     0.63117   0.69102   0.76834   0.00000  Uiso   1.00
H77    H     0.88735   0.04054   0.92066   0.00000  Uiso   1.00
H78    H     0.98199   0.98204   0.03140   0.00000  Uiso   1.00
H79    H     0.85798   0.23987   0.89724   0.00000  Uiso   1.00
H80    H     0.83407   0.90508   0.83009   0.00000  Uiso   1.00
H81    H     0.06798   0.90883   0.15928   0.00000  Uiso   1.00
H82    H     0.80649   0.45246   0.87637   0.00000  Uiso   1.00
H83    H     0.75607   0.74650   0.73476   0.00000  Uiso   1.00
O84    O     0.06515   0.84148   0.24963   0.00000  Uiso   1.00
O85    O     0.72208   0.55469   0.87846   0.00000  Uiso   1.00
O86    O     0.65594   0.62849   0.69268   0.00000  Uiso   1.00
N87    N     0.95948   0.87442   0.16975   0.00000  Uiso   1.00
N88    N     0.71502   0.38268   0.90526   0.00000  Uiso   1.00
N89    N     0.66787   0.72269   0.77286   0.00000  Uiso   1.00
N90    N     0.02669   0.90426   0.15168   0.00000  Uiso   1.00
N91    N     0.78222   0.41253   0.88719   0.00000  Uiso   1.00
N92    N     0.73508   0.75254   0.75479   0.00000  Uiso   1.00
C93    C     0.72511   0.49058   0.54910   0.00000  Uiso   1.00
C94    C     0.65781   0.46584   0.49321   0.00000  Uiso   1.00
C95    C     0.63867   0.42843   0.43614   0.00000  Uiso   1.00
C96    C     0.57499   0.41074   0.39097   0.00000  Uiso   1.00
C97    C     0.47702   0.36949   0.30241   0.00000  Uiso   1.00
C98    C     0.72518   0.60593   0.56609   0.00000  Uiso   1.00
C99    C     0.76269   0.68630   0.57032   0.00000  Uiso   1.00
C100   C     0.75573   0.78654   0.58650   0.00000  Uiso   1.00
C101   C     0.76239   0.96275   0.61114   0.00000  Uiso   1.00
C102   C     0.73817   0.42403   0.60257   0.00000  Uiso   1.00
C103   C     0.78660   0.35147   0.63749   0.00000  Uiso   1.00
C104   C     0.79059   0.29857   0.68440   0.00000  Uiso   1.00
C105   C     0.81741   0.19235   0.76568   0.00000  Uiso   1.00
C106   C     0.64607   0.52569   0.57036   0.00000  Uiso   1.00
C107   C     0.61489   0.48492   0.50475   0.00000  Uiso   1.00
C108   C     0.55122   0.46727   0.45965   0.00000  Uiso   1.00
C109   C     0.53199   0.42984   0.40253   0.00000  Uiso   1.00
C110   C     0.68226   0.62501   0.57764   0.00000  Uiso   1.00
C111   C     0.67524   0.72514   0.59383   0.00000  Uiso   1.00
C112   C     0.71272   0.80564   0.59807   0.00000  Uiso   1.00
C113   C     0.69524   0.44310   0.61412   0.00000  Uiso   1.00
C114   C     0.69916   0.39031   0.66099   0.00000  Uiso   1.00
C115   C     0.74758   0.31768   0.69597   0.00000  Uiso   1.00
H116   H     0.75853   0.47574   0.54012   0.00000  Uiso   1.00
H117   H     0.67190   0.41370   0.42722   0.00000  Uiso   1.00
H118   H     0.79591   0.67152   0.56139   0.00000  Uiso   1.00
H119   H     0.81981   0.33673   0.62854   0.00000  Uiso   1.00
H120   H     0.55692   0.35335   0.30714   0.00000  Uiso   1.00
H121   H     0.81841   0.89698   0.59005   0.00000  Uiso   1.00
H122   H     0.86883   0.19102   0.73166   0.00000  Uiso   1.00
H123   H     0.61265   0.54054   0.57934   0.00000  Uiso   1.00
H124   H     0.51801   0.48204   0.46860   0.00000  Uiso   1.00
H125   H     0.64202   0.73987   0.60276   0.00000  Uiso   1.00
H126   H     0.66593   0.40508   0.66991   0.00000  Uiso   1.00
H127   H     0.43202   0.40883   0.34072   0.00000  Uiso   1.00
H128   H     0.69351   0.95246   0.62363   0.00000  Uiso   1.00
H129   H     0.74393   0.24650   0.76524   0.00000  Uiso   1.00
O130   O     0.43485   0.34148   0.25037   0.00000  Uiso   1.00
O131   O     0.77792   0.05469   0.62154   0.00000  Uiso   1.00
O132   O     0.84406   0.12849   0.80732   0.00000  Uiso   1.00
N133   N     0.54052   0.37442   0.33025   0.00000  Uiso   1.00
N134   N     0.78498   0.88268   0.59474   0.00000  Uiso   1.00
N135   N     0.83213   0.22269   0.72714   0.00000  Uiso   1.00
N136   N     0.47331   0.40426   0.34832   0.00000  Uiso   1.00
N137   N     0.71778   0.91253   0.61281   0.00000  Uiso   1.00
N138   N     0.76492   0.25254   0.74521   0.00000  Uiso   1.00
C139   C     0.22511   0.99058   0.54910   0.00000  Uiso   1.00
C140   C     0.15781   0.96584   0.49321   0.00000  Uiso   1.00
C141   C     0.13867   0.92843   0.43614   0.00000  Uiso   1.00
C142   C     0.07499   0.91074   0.39097   0.00000  Uiso   1.00
C143   C     0.97702   0.86949   0.30241   0.00000  Uiso   1.00
C144   C     0.22518   0.10593   0.56609   0.00000  Uiso   1.00
C145   C     0.26269   0.18630   0.57032   0.00000  Uiso   1.00
C146   C     0.25573   0.28654   0.58650   0.00000  Uiso   1.00
C147   C     0.26239   0.46275   0.61114   0.00000  Uiso   1.00
C148   C     0.23817   0.92403   0.60257   0.00000  Uiso   1.00
C149   C     0.28660   0.85147   0.63749   0.00000  Uiso   1.00
C150   C     0.29059   0.79857   0.68440   0.00000  Uiso   1.00
C151   C     0.31741   0.69235   0.76568   0.00000  Uiso   1.00
C152   C     0.14607   0.02569   0.57036   0.00000  Uiso   1.00
C153   C     0.11489   0.98492   0.50475   0.00000  Uiso   1.00
C154   C     0.05122   0.96727   0.45965   0.00000  Uiso   1.00
C155   C     0.03199   0.92984   0.40253   0.00000  Uiso   1.00
C156   C     0.18226   0.12501   0.57764   0.00000  Uiso   1.00
C157   C     0.17524   0.22514   0.59383   0.00000  Uiso   1.00
C158   C     0.21272   0.30564   0.59807   0.00000  Uiso   1.00
C159   C     0.19524   0.94310   0.61412   0.00000  Uiso   1.00
C160   C     0.19916   0.89031   0.66099   0.00000  Uiso   1.00
C161   C     0.24758   0.81768   0.69597   0.00000  Uiso   1.00
H162   H     0.25853   0.97574   0.54012   0.00000  Uiso   1.00
H163   H     0.17190   0.91370   0.42722   0.00000  Uiso   1.00
H164   H     0.29591   0.17152   0.56139   0.00000  Uiso   1.00
H165   H     0.31981   0.83673   0.62854   0.00000  Uiso   1.00
H166   H     0.05692   0.85335   0.30714   0.00000  Uiso   1.00
H167   H     0.31841   0.39698   0.59005   0.00000  Uiso   1.00
H168   H     0.36883   0.69102   0.73166   0.00000  Uiso   1.00
H169   H     0.11265   0.04054   0.57934   0.00000  Uiso   1.00
H170   H     0.01801   0.98204   0.46860   0.00000  Uiso   1.00
H171   H     0.14202   0.23987   0.60276   0.00000  Uiso   1.00
H172   H     0.16593   0.90508   0.66991   0.00000  Uiso   1.00
H173   H     0.93202   0.90883   0.34072   0.00000  Uiso   1.00
H174   H     0.19351   0.45246   0.62363   0.00000  Uiso   1.00
H175   H     0.24393   0.74650   0.76524   0.00000  Uiso   1.00
O176   O     0.93485   0.84148   0.25037   0.00000  Uiso   1.00
O177   O     0.27792   0.55469   0.62154   0.00000  Uiso   1.00
O178   O     0.34406   0.62849   0.80732   0.00000  Uiso   1.00
N179   N     0.04052   0.87442   0.33025   0.00000  Uiso   1.00
N180   N     0.28498   0.38268   0.59474   0.00000  Uiso   1.00
N181   N     0.33213   0.72269   0.72714   0.00000  Uiso   1.00
N182   N     0.97331   0.90426   0.34832   0.00000  Uiso   1.00
N183   N     0.21778   0.41253   0.61281   0.00000  Uiso   1.00
N184   N     0.26492   0.75254   0.74521   0.00000  Uiso   1.00
C185   C     0.72511   0.50942   0.04910   0.00000  Uiso   1.00
C186   C     0.65781   0.53416   0.99321   0.00000  Uiso   1.00
C187   C     0.63867   0.57157   0.93614   0.00000  Uiso   1.00
C188   C     0.57499   0.58926   0.89097   0.00000  Uiso   1.00
C189   C     0.47702   0.63051   0.80241   0.00000  Uiso   1.00
C190   C     0.72518   0.39407   0.06609   0.00000  Uiso   1.00
C191   C     0.76269   0.31370   0.07032   0.00000  Uiso   1.00
C192   C     0.75573   0.21346   0.08650   0.00000  Uiso   1.00
C193   C     0.76239   0.03725   0.11114   0.00000  Uiso   1.00
C194   C     0.73817   0.57597   0.10257   0.00000  Uiso   1.00
C195   C     0.78660   0.64853   0.13749   0.00000  Uiso   1.00
C196   C     0.79059   0.70143   0.18440   0.00000  Uiso   1.00
C197   C     0.81741   0.80765   0.26568   0.00000  Uiso   1.00
C198   C     0.64607   0.47431   0.07036   0.00000  Uiso   1.00
C199   C     0.61489   0.51508   0.00475   0.00000  Uiso   1.00
C200   C     0.55122   0.53273   0.95965   0.00000  Uiso   1.00
C201   C     0.53199   0.57016   0.90253   0.00000  Uiso   1.00
C202   C     0.68226   0.37499   0.07764   0.00000  Uiso   1.00
C203   C     0.67524   0.27486   0.09383   0.00000  Uiso   1.00
C204   C     0.71272   0.19436   0.09807   0.00000  Uiso   1.00
C205   C     0.69524   0.55690   0.11412   0.00000  Uiso   1.00
C206   C     0.69916   0.60969   0.16099   0.00000  Uiso   1.00
C207   C     0.74758   0.68232   0.19597   0.00000  Uiso   1.00
H208   H     0.75853   0.52426   0.04012   0.00000  Uiso   1.00
H209   H     0.67190   0.58630   0.92722   0.00000  Uiso   1.00
H210   H     0.79591   0.32848   0.06139   0.00000  Uiso   1.00
H211   H     0.81981   0.66327   0.12854   0.00000  Uiso   1.00
H212   H     0.55692   0.64665   0.80714   0.00000  Uiso   1.00
H213   H     0.81841   0.10302   0.09005   0.00000  Uiso   1.00
H214   H     0.86883   0.80898   0.23166   0.00000  Uiso   1.00
H215   H     0.61265   0.45946   0.07934   0.00000  Uiso   1.00
H216   H     0.51801   0.51796   0.96860   0.00000  Uiso   1.00
H217   H     0.64202   0.26013   0.10276   0.00000  Uiso   1.00
H218   H     0.66593   0.59492   0.16991   0.00000  Uiso   1.00
H219   H     0.43202   0.59117   0.84072   0.00000  Uiso   1.00
H220   H     0.69351   0.04754   0.12363   0.00000  Uiso   1.00
H221   H     0.74393   0.75350   0.26524   0.00000  Uiso   1.00
O222   O     0.43485   0.65852   0.75037   0.00000  Uiso   1.00
O223   O     0.77792   0.94531   0.12154   0.00000  Uiso   1.00
O224   O     0.84406   0.87151   0.30732   0.00000  Uiso   1.00
N225   N     0.54052   0.62558   0.83025   0.00000  Uiso   1.00
N226   N     0.78498   0.11732   0.09474   0.00000  Uiso   1.00
N227   N     0.83213   0.77731   0.22714   0.00000  Uiso   1.00
N228   N     0.47331   0.59574   0.84832   0.00000  Uiso   1.00
N229   N     0.71778   0.08747   0.11281   0.00000  Uiso   1.00
N230   N     0.76492   0.74746   0.24521   0.00000  Uiso   1.00
C231   C     0.22511   0.00942   0.04910   0.00000  Uiso   1.00
C232   C     0.15781   0.03416   0.99321   0.00000  Uiso   1.00
C233   C     0.13867   0.07157   0.93614   0.00000  Uiso   1.00
C234   C     0.07499   0.08926   0.89097   0.00000  Uiso   1.00
C235   C     0.97702   0.13051   0.80241   0.00000  Uiso   1.00
C236   C     0.22518   0.89407   0.06609   0.00000  Uiso   1.00
C237   C     0.26269   0.81370   0.07032   0.00000  Uiso   1.00
C238   C     0.25573   0.71346   0.08650   0.00000  Uiso   1.00
C239   C     0.26239   0.53725   0.11114   0.00000  Uiso   1.00
C240   C     0.23817   0.07597   0.10257   0.00000  Uiso   1.00
C241   C     0.28660   0.14853   0.13749   0.00000  Uiso   1.00
C242   C     0.29059   0.20143   0.18440   0.00000  Uiso   1.00
C243   C     0.31741   0.30765   0.26568   0.00000  Uiso   1.00
C244   C     0.14607   0.97431   0.07036   0.00000  Uiso   1.00
C245   C     0.11489   0.01508   0.00475   0.00000  Uiso   1.00
C246   C     0.05122   0.03273   0.95965   0.00000  Uiso   1.00
C247   C     0.03199   0.07016   0.90253   0.00000  Uiso   1.00
C248   C     0.18226   0.87499   0.07764   0.00000  Uiso   1.00
C249   C     0.17524   0.77486   0.09383   0.00000  Uiso   1.00
C250   C     0.21272   0.69436   0.09807   0.00000  Uiso   1.00
C251   C     0.19524   0.05690   0.11412   0.00000  Uiso   1.00
C252   C     0.19916   0.10969   0.16099   0.00000  Uiso   1.00
C253   C     0.24758   0.18232   0.19597   0.00000  Uiso   1.00
H254   H     0.25853   0.02426   0.04012   0.00000  Uiso   1.00
H255   H     0.17190   0.08630   0.92722   0.00000  Uiso   1.00
H256   H     0.29591   0.82848   0.06139   0.00000  Uiso   1.00
H257   H     0.31981   0.16327   0.12854   0.00000  Uiso   1.00
H258   H     0.05692   0.14665   0.80714   0.00000  Uiso   1.00
H259   H     0.31841   0.60302   0.09005   0.00000  Uiso   1.00
H260   H     0.36883   0.30898   0.23166   0.00000  Uiso   1.00
H261   H     0.11265   0.95946   0.07934   0.00000  Uiso   1.00
H262   H     0.01801   0.01796   0.96860   0.00000  Uiso   1.00
H263   H     0.14202   0.76013   0.10276   0.00000  Uiso   1.00
H264   H     0.16593   0.09492   0.16991   0.00000  Uiso   1.00
H265   H     0.93202   0.09117   0.84072   0.00000  Uiso   1.00
H266   H     0.19351   0.54754   0.12363   0.00000  Uiso   1.00
H267   H     0.24393   0.25350   0.26524   0.00000  Uiso   1.00
O268   O     0.93485   0.15852   0.75037   0.00000  Uiso   1.00
O269   O     0.27792   0.44531   0.12154   0.00000  Uiso   1.00
O270   O     0.34406   0.37151   0.30732   0.00000  Uiso   1.00
N271   N     0.04052   0.12558   0.83025   0.00000  Uiso   1.00
N272   N     0.28498   0.61732   0.09474   0.00000  Uiso   1.00
N273   N     0.33213   0.27731   0.22714   0.00000  Uiso   1.00
N274   N     0.97331   0.09574   0.84832   0.00000  Uiso   1.00
N275   N     0.21778   0.58747   0.11281   0.00000  Uiso   1.00
N276   N     0.26492   0.24746   0.24521   0.00000  Uiso   1.00
C277   C     0.27489   0.50942   0.45090   0.00000  Uiso   1.00
C278   C     0.34219   0.53416   0.50679   0.00000  Uiso   1.00
C279   C     0.36133   0.57157   0.56386   0.00000  Uiso   1.00
C280   C     0.42501   0.58926   0.60903   0.00000  Uiso   1.00
C281   C     0.52298   0.63051   0.69759   0.00000  Uiso   1.00
C282   C     0.27482   0.39407   0.43391   0.00000  Uiso   1.00
C283   C     0.23731   0.31370   0.42968   0.00000  Uiso   1.00
C284   C     0.24427   0.21346   0.41350   0.00000  Uiso   1.00
C285   C     0.23761   0.03725   0.38886   0.00000  Uiso   1.00
C286   C     0.26183   0.57597   0.39743   0.00000  Uiso   1.00
C287   C     0.21340   0.64853   0.36251   0.00000  Uiso   1.00
C288   C     0.20941   0.70143   0.31560   0.00000  Uiso   1.00
C289   C     0.18259   0.80765   0.23432   0.00000  Uiso   1.00
C290   C     0.35393   0.47431   0.42964   0.00000  Uiso   1.00
C291   C     0.38511   0.51508   0.49525   0.00000  Uiso   1.00
C292   C     0.44878   0.53273   0.54035   0.00000  Uiso   1.00
C293   C     0.46801   0.57016   0.59747   0.00000  Uiso   1.00
C294   C     0.31774   0.37499   0.42236   0.00000  Uiso   1.00
C295   C     0.32476   0.27486   0.40617   0.00000  Uiso   1.00
C296   C     0.28728   0.19436   0.40193   0.00000  Uiso   1.00
C297   C     0.30476   0.55690   0.38588   0.00000  Uiso   1.00
C298   C     0.30084   0.60969   0.33901   0.00000  Uiso   1.00
C299   C     0.25242   0.68232   0.30403   0.00000  Uiso   1.00
H300   H     0.24147   0.52426   0.45988   0.00000  Uiso   1.00
H301   H     0.32810   0.58630   0.57278   0.00000  Uiso   1.00
H302   H     0.20409   0.32848   0.43861   0.00000  Uiso   1.00
H303   H     0.18019   0.66327   0.37146   0.00000  Uiso   1.00
H304   H     0.44308   0.64665   0.69286   0.00000  Uiso   1.00
H305   H     0.18159   0.10302   0.40995   0.00000  Uiso   1.00
H306   H     0.13117   0.80898   0.26834   0.00000  Uiso   1.00
H307   H     0.38735   0.45946   0.42066   0.00000  Uiso   1.00
H308   H     0.48199   0.51796   0.53140   0.00000  Uiso   1.00
H309   H     0.35798   0.26013   0.39724   0.00000  Uiso   1.00
H310   H     0.33407   0.59492   0.33009   0.00000  Uiso   1.00
H311   H     0.56798   0.59117   0.65928   0.00000  Uiso   1.00
H312   H     0.30649   0.04754   0.37637   0.00000  Uiso   1.00
H313   H     0.25607   0.75350   0.23476   0.00000  Uiso   1.00
O314   O     0.56515   0.65852   0.74963   0.00000  Uiso   1.00
O315   O     0.22208   0.94531   0.37846   0.00000  Uiso   1.00
O316   O     0.15594   0.87151   0.19268   0.00000  Uiso   1.00
N317   N     0.45948   0.62558   0.66975   0.00000  Uiso   1.00
N318   N     0.21502   0.11732   0.40526   0.00000  Uiso   1.00
N319   N     0.16787   0.77731   0.27286   0.00000  Uiso   1.00
N320   N     0.52669   0.59574   0.65168   0.00000  Uiso   1.00
N321   N     0.28222   0.08747   0.38719   0.00000  Uiso   1.00
N322   N     0.23508   0.74746   0.25479   0.00000  Uiso   1.00
C323   C     0.77489   0.00942   0.45090   0.00000  Uiso   1.00
C324   C     0.84219   0.03416   0.50679   0.00000  Uiso   1.00
C325   C     0.86133   0.07157   0.56386   0.00000  Uiso   1.00
C326   C     0.92501   0.08926   0.60903   0.00000  Uiso   1.00
C327   C     0.02298   0.13051   0.69759   0.00000  Uiso   1.00
C328   C     0.77482   0.89407   0.43391   0.00000  Uiso   1.00
C329   C     0.73731   0.81370   0.42968   0.00000  Uiso   1.00
C330   C     0.74427   0.71346   0.41350   0.00000  Uiso   1.00
C331   C     0.73761   0.53725   0.38886   0.00000  Uiso   1.00
C332   C     0.76183   0.07597   0.39743   0.00000  Uiso   1.00
C333   C     0.71340   0.14853   0.36251   0.00000  Uiso   1.00
C334   C     0.70941   0.20143   0.31560   0.00000  Uiso   1.00
C335   C     0.68259   0.30765   0.23432   0.00000  Uiso   1.00
C336   C     0.85393   0.97431   0.42964   0.00000  Uiso   1.00
C337   C     0.88511   0.01508   0.49525   0.00000  Uiso   1.00
C338   C     0.94878   0.03273   0.54035   0.00000  Uiso   1.00
C339   C     0.96801   0.07016   0.59747   0.00000  Uiso   1.00
C340   C     0.81774   0.87499   0.42236   0.00000  Uiso   1.00
C341   C     0.82476   0.77486   0.40617   0.00000  Uiso   1.00
C342   C     0.78728   0.69436   0.40193   0.00000  Uiso   1.00
C343   C     0.80476   0.05690   0.38588   0.00000  Uiso   1.00
C344   C     0.80084   0.10969   0.33901   0.00000  Uiso   1.00
C345   C     0.75242   0.18232   0.30403   0.00000  Uiso   1.00
H346   H     0.74147   0.02426   0.45988   0.00000  Uiso   1.00
H347   H     0.82810   0.08630   0.57278   0.00000  Uiso   1.00
H348   H     0.70409   0.82848   0.43861   0.00000  Uiso   1.00
H349   H     0.68019   0.16327   0.37146   0.00000  Uiso   1.00
H350   H     0.94308   0.14665   0.69286   0.00000  Uiso   1.00
H351   H     0.68159   0.60302   0.40995   0.00000  Uiso   1.00
H352   H     0.63117   0.30898   0.26834   0.00000  Uiso   1.00
H353   H     0.88735   0.95946   0.42066   0.00000  Uiso   1.00
H354   H     0.98199   0.01796   0.53140   0.00000  Uiso   1.00
H355   H     0.85798   0.76013   0.39724   0.00000  Uiso   1.00
H356   H     0.83407   0.09492   0.33009   0.00000  Uiso   1.00
H357   H     0.06798   0.09117   0.65928   0.00000  Uiso   1.00
H358   H     0.80649   0.54754   0.37637   0.00000  Uiso   1.00
H359   H     0.75607   0.25350   0.23476   0.00000  Uiso   1.00
O360   O     0.06515   0.15852   0.74963   0.00000  Uiso   1.00
O361   O     0.72208   0.44531   0.37846   0.00000  Uiso   1.00
O362   O     0.65594   0.37151   0.19268   0.00000  Uiso   1.00
N363   N     0.95948   0.12558   0.66975   0.00000  Uiso   1.00
N364   N     0.71502   0.61732   0.40526   0.00000  Uiso   1.00
N365   N     0.66787   0.27731   0.27286   0.00000  Uiso   1.00
N366   N     0.02669   0.09574   0.65168   0.00000  Uiso   1.00
N367   N     0.78222   0.58747   0.38719   0.00000  Uiso   1.00
N368   N     0.73508   0.24746   0.25479   0.00000  Uiso   1.00
