data_job_02806
_audit_creation_date              2018-12-19
_audit_creation_method            'Materials Studio'
_symmetry_space_group_name_H-M    'P1'
_symmetry_Int_Tables_number       1
_symmetry_cell_setting            triclinic
loop_
_symmetry_equiv_pos_as_xyz
  x,y,z
_cell_length_a                    21.1961
_cell_length_b                    13.7854
_cell_length_c                    15.2930
_cell_angle_alpha                 90.0000
_cell_angle_beta                  141.4420
_cell_angle_gamma                 90.0000
loop_
_atom_site_label
_atom_site_type_symbol
_atom_site_fract_x
_atom_site_fract_y
_atom_site_fract_z
_atom_site_U_iso_or_equiv
_atom_site_adp_type
_atom_site_occupancy
C1     C     0.25589   0.87492   0.79333   0.00000  Uiso   1.00
C2     C     0.36306   0.85262   0.94058   0.00000  Uiso   1.00
C3     C     0.44571   0.83406   0.97671   0.00000  Uiso   1.00
C4     C     0.53733   0.81528   0.11712   0.00000  Uiso   1.00
C5     C     0.70245   0.78073   0.33049   0.00000  Uiso   1.00
C6     C     0.22773   0.97219   0.80359   0.00000  Uiso   1.00
C7     C     0.19658   0.05415   0.72452   0.00000  Uiso   1.00
C8     C     0.17427   0.13601   0.74960   0.00000  Uiso   1.00
C9     C     0.12921   0.28707   0.75021   0.00000  Uiso   1.00
C10    C     0.18767   0.79970   0.76267   0.00000  Uiso   1.00
C11    C     0.12283   0.73666   0.64917   0.00000  Uiso   1.00
C12    C     0.06678   0.67331   0.63978   0.00000  Uiso   1.00
C13    C     0.95953   0.55657   0.57685   0.00000  Uiso   1.00
C14    C     0.27163   0.87455   0.97843   0.00000  Uiso   1.00
C15    C     0.37161   0.85242   0.04112   0.00000  Uiso   1.00
C16    C     0.46313   0.83365   0.18151   0.00000  Uiso   1.00
C17    C     0.54590   0.81507   0.21785   0.00000  Uiso   1.00
C18    C     0.23628   0.97199   0.90413   0.00000  Uiso   1.00
C19    C     0.21400   0.05374   0.92932   0.00000  Uiso   1.00
C20    C     0.18283   0.13581   0.85032   0.00000  Uiso   1.00
C21    C     0.19622   0.79950   0.86321   0.00000  Uiso   1.00
C22    C     0.14025   0.73624   0.85398   0.00000  Uiso   1.00
C23    C     0.07534   0.67311   0.74050   0.00000  Uiso   1.00
H24    H     0.24923   0.87508   0.71505   0.00000  Uiso   1.00
H25    H     0.43906   0.83424   0.89888   0.00000  Uiso   1.00
H26    H     0.18996   0.05428   0.64672   0.00000  Uiso   1.00
H27    H     0.11623   0.73683   0.57139   0.00000  Uiso   1.00
H28    H     0.65331   0.78890   0.14703   0.00000  Uiso   1.00
H29    H     0.12803   0.25287   0.61531   0.00000  Uiso   1.00
H30    H     0.97255   0.58347   0.45645   0.00000  Uiso   1.00
H31    H     0.27829   0.87439   0.05671   0.00000  Uiso   1.00
H32    H     0.46972   0.83350   0.25929   0.00000  Uiso   1.00
H33    H     0.22062   0.05355   0.00713   0.00000  Uiso   1.00
H34    H     0.14689   0.73611   0.93180   0.00000  Uiso   1.00
H35    H     0.67820   0.78831   0.43956   0.00000  Uiso   1.00
H36    H     0.15291   0.25228   0.90783   0.00000  Uiso   1.00
H37    H     0.99743   0.58288   0.74898   0.00000  Uiso   1.00
O38    O     0.79117   0.76175   0.42040   0.00000  Uiso   1.00
O39    O     0.10200   0.37045   0.72278   0.00000  Uiso   1.00
O40    O     0.89802   0.49222   0.51437   0.00000  Uiso   1.00
N41    N     0.63289   0.79435   0.18807   0.00000  Uiso   1.00
N42    N     0.14180   0.22814   0.69095   0.00000  Uiso   1.00
N43    N     0.99642   0.60233   0.54242   0.00000  Uiso   1.00
N44    N     0.64628   0.79403   0.34548   0.00000  Uiso   1.00
N45    N     0.15519   0.22782   0.84836   0.00000  Uiso   1.00
N46    N     0.00981   0.60201   0.69983   0.00000  Uiso   1.00
C47    C     0.74411   0.37492   0.70667   0.00000  Uiso   1.00
C48    C     0.63694   0.35262   0.55942   0.00000  Uiso   1.00
C49    C     0.55429   0.33406   0.52329   0.00000  Uiso   1.00
C50    C     0.46267   0.31528   0.38288   0.00000  Uiso   1.00
C51    C     0.29755   0.28073   0.16951   0.00000  Uiso   1.00
C52    C     0.77227   0.47219   0.69641   0.00000  Uiso   1.00
C53    C     0.80342   0.55415   0.77548   0.00000  Uiso   1.00
C54    C     0.82573   0.63601   0.75040   0.00000  Uiso   1.00
C55    C     0.87079   0.78707   0.74979   0.00000  Uiso   1.00
C56    C     0.81233   0.29970   0.73733   0.00000  Uiso   1.00
C57    C     0.87717   0.23666   0.85083   0.00000  Uiso   1.00
C58    C     0.93322   0.17331   0.86022   0.00000  Uiso   1.00
C59    C     0.04047   0.05657   0.92315   0.00000  Uiso   1.00
C60    C     0.72837   0.37455   0.52157   0.00000  Uiso   1.00
C61    C     0.62839   0.35242   0.45888   0.00000  Uiso   1.00
C62    C     0.53687   0.33365   0.31849   0.00000  Uiso   1.00
C63    C     0.45410   0.31507   0.28215   0.00000  Uiso   1.00
C64    C     0.76372   0.47199   0.59587   0.00000  Uiso   1.00
C65    C     0.78600   0.55374   0.57068   0.00000  Uiso   1.00
C66    C     0.81717   0.63581   0.64968   0.00000  Uiso   1.00
C67    C     0.80378   0.29950   0.63679   0.00000  Uiso   1.00
C68    C     0.85975   0.23624   0.64602   0.00000  Uiso   1.00
C69    C     0.92466   0.17311   0.75950   0.00000  Uiso   1.00
H70    H     0.75077   0.37508   0.78495   0.00000  Uiso   1.00
H71    H     0.56094   0.33424   0.60112   0.00000  Uiso   1.00
H72    H     0.81004   0.55428   0.85328   0.00000  Uiso   1.00
H73    H     0.88377   0.23683   0.92861   0.00000  Uiso   1.00
H74    H     0.34669   0.28890   0.35297   0.00000  Uiso   1.00
H75    H     0.87197   0.75287   0.88469   0.00000  Uiso   1.00
H76    H     0.02745   0.08347   0.04355   0.00000  Uiso   1.00
H77    H     0.72171   0.37439   0.44329   0.00000  Uiso   1.00
H78    H     0.53028   0.33350   0.24071   0.00000  Uiso   1.00
H79    H     0.77938   0.55355   0.49287   0.00000  Uiso   1.00
H80    H     0.85311   0.23611   0.56820   0.00000  Uiso   1.00
H81    H     0.32180   0.28831   0.06044   0.00000  Uiso   1.00
H82    H     0.84709   0.75228   0.59217   0.00000  Uiso   1.00
H83    H     0.00257   0.08288   0.75102   0.00000  Uiso   1.00
O84    O     0.20883   0.26175   0.07960   0.00000  Uiso   1.00
O85    O     0.89800   0.87045   0.77722   0.00000  Uiso   1.00
O86    O     0.10198   0.99222   0.98563   0.00000  Uiso   1.00
N87    N     0.36711   0.29435   0.31193   0.00000  Uiso   1.00
N88    N     0.85820   0.72814   0.80905   0.00000  Uiso   1.00
N89    N     0.00358   0.10233   0.95758   0.00000  Uiso   1.00
N90    N     0.35372   0.29403   0.15452   0.00000  Uiso   1.00
N91    N     0.84481   0.72782   0.65164   0.00000  Uiso   1.00
N92    N     0.99019   0.10201   0.80017   0.00000  Uiso   1.00
C93    C     0.74411   0.12508   0.20667   0.00000  Uiso   1.00
C94    C     0.63694   0.14738   0.05942   0.00000  Uiso   1.00
C95    C     0.55429   0.16594   0.02329   0.00000  Uiso   1.00
C96    C     0.46267   0.18472   0.88288   0.00000  Uiso   1.00
C97    C     0.29755   0.21927   0.66951   0.00000  Uiso   1.00
C98    C     0.77227   0.02781   0.19641   0.00000  Uiso   1.00
C99    C     0.80342   0.94585   0.27548   0.00000  Uiso   1.00
C100   C     0.82573   0.86399   0.25040   0.00000  Uiso   1.00
C101   C     0.87079   0.71293   0.24979   0.00000  Uiso   1.00
C102   C     0.81233   0.20030   0.23733   0.00000  Uiso   1.00
C103   C     0.87717   0.26334   0.35083   0.00000  Uiso   1.00
C104   C     0.93322   0.32669   0.36022   0.00000  Uiso   1.00
C105   C     0.04047   0.44343   0.42315   0.00000  Uiso   1.00
C106   C     0.72837   0.12545   0.02157   0.00000  Uiso   1.00
C107   C     0.62839   0.14758   0.95888   0.00000  Uiso   1.00
C108   C     0.53687   0.16635   0.81849   0.00000  Uiso   1.00
C109   C     0.45410   0.18493   0.78215   0.00000  Uiso   1.00
C110   C     0.76372   0.02801   0.09587   0.00000  Uiso   1.00
C111   C     0.78600   0.94626   0.07068   0.00000  Uiso   1.00
C112   C     0.81717   0.86419   0.14968   0.00000  Uiso   1.00
C113   C     0.80378   0.20050   0.13679   0.00000  Uiso   1.00
C114   C     0.85975   0.26376   0.14602   0.00000  Uiso   1.00
C115   C     0.92466   0.32689   0.25950   0.00000  Uiso   1.00
H116   H     0.75077   0.12492   0.28495   0.00000  Uiso   1.00
H117   H     0.56094   0.16576   0.10112   0.00000  Uiso   1.00
H118   H     0.81004   0.94572   0.35328   0.00000  Uiso   1.00
H119   H     0.88377   0.26317   0.42861   0.00000  Uiso   1.00
H120   H     0.34669   0.21110   0.85297   0.00000  Uiso   1.00
H121   H     0.87197   0.74713   0.38469   0.00000  Uiso   1.00
H122   H     0.02745   0.41653   0.54355   0.00000  Uiso   1.00
H123   H     0.72171   0.12561   0.94329   0.00000  Uiso   1.00
H124   H     0.53028   0.16650   0.74071   0.00000  Uiso   1.00
H125   H     0.77938   0.94645   0.99287   0.00000  Uiso   1.00
H126   H     0.85311   0.26389   0.06820   0.00000  Uiso   1.00
H127   H     0.32180   0.21169   0.56044   0.00000  Uiso   1.00
H128   H     0.84709   0.74772   0.09217   0.00000  Uiso   1.00
H129   H     0.00257   0.41712   0.25102   0.00000  Uiso   1.00
O130   O     0.20883   0.23825   0.57960   0.00000  Uiso   1.00
O131   O     0.89800   0.62955   0.27722   0.00000  Uiso   1.00
O132   O     0.10198   0.50778   0.48563   0.00000  Uiso   1.00
N133   N     0.36711   0.20565   0.81193   0.00000  Uiso   1.00
N134   N     0.85820   0.77186   0.30905   0.00000  Uiso   1.00
N135   N     0.00358   0.39767   0.45758   0.00000  Uiso   1.00
N136   N     0.35372   0.20597   0.65452   0.00000  Uiso   1.00
N137   N     0.84481   0.77218   0.15164   0.00000  Uiso   1.00
N138   N     0.99019   0.39799   0.30017   0.00000  Uiso   1.00
C139   C     0.25589   0.62508   0.29333   0.00000  Uiso   1.00
C140   C     0.36306   0.64738   0.44058   0.00000  Uiso   1.00
C141   C     0.44571   0.66594   0.47671   0.00000  Uiso   1.00
C142   C     0.53733   0.68472   0.61712   0.00000  Uiso   1.00
C143   C     0.70245   0.71927   0.83049   0.00000  Uiso   1.00
C144   C     0.22773   0.52781   0.30359   0.00000  Uiso   1.00
C145   C     0.19658   0.44585   0.22452   0.00000  Uiso   1.00
C146   C     0.17427   0.36399   0.24960   0.00000  Uiso   1.00
C147   C     0.12921   0.21293   0.25021   0.00000  Uiso   1.00
C148   C     0.18767   0.70030   0.26267   0.00000  Uiso   1.00
C149   C     0.12283   0.76334   0.14917   0.00000  Uiso   1.00
C150   C     0.06678   0.82669   0.13978   0.00000  Uiso   1.00
C151   C     0.95953   0.94343   0.07685   0.00000  Uiso   1.00
C152   C     0.27163   0.62545   0.47843   0.00000  Uiso   1.00
C153   C     0.37161   0.64758   0.54112   0.00000  Uiso   1.00
C154   C     0.46313   0.66635   0.68151   0.00000  Uiso   1.00
C155   C     0.54590   0.68493   0.71785   0.00000  Uiso   1.00
C156   C     0.23628   0.52801   0.40413   0.00000  Uiso   1.00
C157   C     0.21400   0.44626   0.42932   0.00000  Uiso   1.00
C158   C     0.18283   0.36419   0.35032   0.00000  Uiso   1.00
C159   C     0.19622   0.70050   0.36321   0.00000  Uiso   1.00
C160   C     0.14025   0.76376   0.35398   0.00000  Uiso   1.00
C161   C     0.07534   0.82689   0.24050   0.00000  Uiso   1.00
H162   H     0.24923   0.62492   0.21505   0.00000  Uiso   1.00
H163   H     0.43906   0.66576   0.39888   0.00000  Uiso   1.00
H164   H     0.18996   0.44572   0.14672   0.00000  Uiso   1.00
H165   H     0.11623   0.76317   0.07139   0.00000  Uiso   1.00
H166   H     0.65331   0.71110   0.64703   0.00000  Uiso   1.00
H167   H     0.12803   0.24713   0.11531   0.00000  Uiso   1.00
H168   H     0.97255   0.91653   0.95645   0.00000  Uiso   1.00
H169   H     0.27829   0.62561   0.55671   0.00000  Uiso   1.00
H170   H     0.46972   0.66650   0.75929   0.00000  Uiso   1.00
H171   H     0.22062   0.44645   0.50713   0.00000  Uiso   1.00
H172   H     0.14689   0.76389   0.43180   0.00000  Uiso   1.00
H173   H     0.67820   0.71169   0.93956   0.00000  Uiso   1.00
H174   H     0.15291   0.24772   0.40783   0.00000  Uiso   1.00
H175   H     0.99743   0.91712   0.24898   0.00000  Uiso   1.00
O176   O     0.79117   0.73825   0.92040   0.00000  Uiso   1.00
O177   O     0.10200   0.12955   0.22278   0.00000  Uiso   1.00
O178   O     0.89802   0.00778   0.01437   0.00000  Uiso   1.00
N179   N     0.63289   0.70565   0.68807   0.00000  Uiso   1.00
N180   N     0.14180   0.27186   0.19095   0.00000  Uiso   1.00
N181   N     0.99642   0.89767   0.04242   0.00000  Uiso   1.00
N182   N     0.64628   0.70597   0.84548   0.00000  Uiso   1.00
N183   N     0.15519   0.27218   0.34836   0.00000  Uiso   1.00
N184   N     0.00981   0.89799   0.19983   0.00000  Uiso   1.00
