data_job_06466
_audit_creation_date              2018-12-19
_audit_creation_method            'Materials Studio'
_symmetry_space_group_name_H-M    'P1'
_symmetry_Int_Tables_number       1
_symmetry_cell_setting            triclinic
loop_
_symmetry_equiv_pos_as_xyz
  x,y,z
_cell_length_a                    18.6415
_cell_length_b                    21.2555
_cell_length_c                    23.0104
_cell_angle_alpha                 65.1918
_cell_angle_beta                  91.5363
_cell_angle_gamma                 64.0103
loop_
_atom_site_label
_atom_site_type_symbol
_atom_site_fract_x
_atom_site_fract_y
_atom_site_fract_z
_atom_site_U_iso_or_equiv
_atom_site_adp_type
_atom_site_occupancy
C1     C     0.84319   0.75475   0.04514   0.00000  Uiso   1.00
C2     C     0.91362   0.71923   0.01646   0.00000  Uiso   1.00
C3     C     0.98836   0.71817   0.02364   0.00000  Uiso   1.00
C4     C     0.04474   0.68287   0.99362   0.00000  Uiso   1.00
C5     C     0.15680   0.63277   0.95452   0.00000  Uiso   1.00
C6     C     0.76726   0.81575   0.98652   0.00000  Uiso   1.00
C7     C     0.71892   0.89585   0.96853   0.00000  Uiso   1.00
C8     C     0.65209   0.94180   0.91331   0.00000  Uiso   1.00
C9     C     0.53689   0.04153   0.82776   0.00000  Uiso   1.00
C10    C     0.82623   0.68761   0.08714   0.00000  Uiso   1.00
C11    C     0.82745   0.65999   0.15376   0.00000  Uiso   1.00
C12    C     0.81024   0.59807   0.18326   0.00000  Uiso   1.00
C13    C     0.78659   0.49885   0.25395   0.00000  Uiso   1.00
C14    C     0.81043   0.69393   0.97906   0.00000  Uiso   1.00
C15    C     0.89583   0.68619   0.98057   0.00000  Uiso   1.00
C16    C     0.95212   0.65088   0.95054   0.00000  Uiso   1.00
C17    C     0.02692   0.64977   0.95767   0.00000  Uiso   1.00
C18    C     0.74947   0.78271   0.95063   0.00000  Uiso   1.00
C19    C     0.68269   0.82855   0.89543   0.00000  Uiso   1.00
C20    C     0.63427   0.90870   0.87736   0.00000  Uiso   1.00
C21    C     0.80844   0.65457   0.05126   0.00000  Uiso   1.00
C22    C     0.79122   0.59269   0.08066   0.00000  Uiso   1.00
C23    C     0.79242   0.56497   0.14730   0.00000  Uiso   1.00
H24    H     0.85703   0.78048   0.07307   0.00000  Uiso   1.00
H25    H     0.00210   0.74376   0.05141   0.00000  Uiso   1.00
H26    H     0.73270   0.92140   0.99631   0.00000  Uiso   1.00
H27    H     0.84122   0.68557   0.18151   0.00000  Uiso   1.00
H28    H     0.15507   0.68850   0.01154   0.00000  Uiso   1.00
H29    H     0.58703   0.06306   0.89539   0.00000  Uiso   1.00
H30    H     0.81584   0.56577   0.28592   0.00000  Uiso   1.00
H31    H     0.79658   0.66820   0.95112   0.00000  Uiso   1.00
H32    H     0.93833   0.62531   0.92277   0.00000  Uiso   1.00
H33    H     0.66894   0.80296   0.86767   0.00000  Uiso   1.00
H34    H     0.77745   0.56713   0.05287   0.00000  Uiso   1.00
H35    H     0.10332   0.59237   0.90713   0.00000  Uiso   1.00
H36    H     0.53527   0.96693   0.79097   0.00000  Uiso   1.00
H37    H     0.76409   0.46965   0.18151   0.00000  Uiso   1.00
O38    O     0.22353   0.61427   0.94286   0.00000  Uiso   1.00
O39    O     0.47826   0.10568   0.79048   0.00000  Uiso   1.00
O40    O     0.77847   0.45325   0.30285   0.00000  Uiso   1.00
N41    N     0.12345   0.67174   0.99087   0.00000  Uiso   1.00
N42    N     0.59236   0.02194   0.88227   0.00000  Uiso   1.00
N43    N     0.80627   0.55704   0.24738   0.00000  Uiso   1.00
N44    N     0.09560   0.62002   0.93469   0.00000  Uiso   1.00
N45    N     0.56451   0.97022   0.82608   0.00000  Uiso   1.00
N46    N     0.77842   0.50531   0.19119   0.00000  Uiso   1.00
C47    C     0.81763   0.32383   0.12573   0.00000  Uiso   1.00
C48    C     0.82086   0.25588   0.11627   0.00000  Uiso   1.00
C49    C     0.88888   0.18011   0.14134   0.00000  Uiso   1.00
C50    C     0.87937   0.12640   0.12717   0.00000  Uiso   1.00
C51    C     0.89579   0.01765   0.11821   0.00000  Uiso   1.00
C52    C     0.79149   0.39357   0.05629   0.00000  Uiso   1.00
C53    C     0.83481   0.43357   0.03094   0.00000  Uiso   1.00
C54    C     0.80055   0.49578   0.96629   0.00000  Uiso   1.00
C55    C     0.77134   0.60083   0.86423   0.00000  Uiso   1.00
C56    C     0.74607   0.34902   0.15683   0.00000  Uiso   1.00
C57    C     0.75119   0.35158   0.21601   0.00000  Uiso   1.00
C58    C     0.67870   0.37630   0.23600   0.00000  Uiso   1.00
C59    C     0.57897   0.41218   0.29005   0.00000  Uiso   1.00
C60    C     0.67977   0.36319   0.05599   0.00000  Uiso   1.00
C61    C     0.74598   0.27726   0.07839   0.00000  Uiso   1.00
C62    C     0.73635   0.22366   0.06418   0.00000  Uiso   1.00
C63    C     0.80435   0.14781   0.08923   0.00000  Uiso   1.00
C64    C     0.71661   0.41495   0.01841   0.00000  Uiso   1.00
C65    C     0.68228   0.47712   0.95378   0.00000  Uiso   1.00
C66    C     0.72554   0.51720   0.92834   0.00000  Uiso   1.00
C67    C     0.67119   0.37040   0.11896   0.00000  Uiso   1.00
C68    C     0.59867   0.39512   0.13885   0.00000  Uiso   1.00
C69    C     0.60368   0.39772   0.19805   0.00000  Uiso   1.00
H70    H     0.87593   0.30719   0.15522   0.00000  Uiso   1.00
H71    H     0.94683   0.16358   0.17065   0.00000  Uiso   1.00
H72    H     0.89275   0.41702   0.06027   0.00000  Uiso   1.00
H73    H     0.80915   0.33503   0.24531   0.00000  Uiso   1.00
H74    H     0.99241   0.01381   0.17103   0.00000  Uiso   1.00
H75    H     0.87838   0.54820   0.93829   0.00000  Uiso   1.00
H76    H     0.70210   0.37533   0.32849   0.00000  Uiso   1.00
H77    H     0.62147   0.37984   0.02650   0.00000  Uiso   1.00
H78    H     0.67840   0.24022   0.03487   0.00000  Uiso   1.00
H79    H     0.62433   0.49365   0.92449   0.00000  Uiso   1.00
H80    H     0.54073   0.41167   0.10953   0.00000  Uiso   1.00
H81    H     0.77455   0.07601   0.06082   0.00000  Uiso   1.00
H82    H     0.66052   0.61040   0.82809   0.00000  Uiso   1.00
H83    H     0.48423   0.43753   0.21829   0.00000  Uiso   1.00
O84    O     0.92553   0.95176   0.12373   0.00000  Uiso   1.00
O85    O     0.77592   0.65287   0.81840   0.00000  Uiso   1.00
O86    O     0.54464   0.42605   0.33033   0.00000  Uiso   1.00
N87    N     0.93332   0.04761   0.14395   0.00000  Uiso   1.00
N88    N     0.82671   0.54722   0.92636   0.00000  Uiso   1.00
N89    N     0.66190   0.38562   0.29115   0.00000  Uiso   1.00
N90    N     0.81609   0.08108   0.08465   0.00000  Uiso   1.00
N91    N     0.70948   0.58069   0.86706   0.00000  Uiso   1.00
N92    N     0.54467   0.41909   0.23185   0.00000  Uiso   1.00
C93    C     0.46580   0.84649   0.10068   0.00000  Uiso   1.00
C94    C     0.37926   0.89521   0.10537   0.00000  Uiso   1.00
C95    C     0.35031   0.87620   0.16174   0.00000  Uiso   1.00
C96    C     0.26923   0.92845   0.15585   0.00000  Uiso   1.00
C97    C     0.14249   0.99362   0.17226   0.00000  Uiso   1.00
C98    C     0.45405   0.82795   0.04506   0.00000  Uiso   1.00
C99    C     0.48799   0.75239   0.05072   0.00000  Uiso   1.00
C100   C     0.46989   0.74802   0.99406   0.00000  Uiso   1.00
C101   C     0.45931   0.70877   0.91683   0.00000  Uiso   1.00
C102   C     0.50071   0.90306   0.07576   0.00000  Uiso   1.00
C103   C     0.57389   0.89065   0.10723   0.00000  Uiso   1.00
C104   C     0.59507   0.94952   0.07641   0.00000  Uiso   1.00
C105   C     0.65693   0.02689   0.04685   0.00000  Uiso   1.00
C106   C     0.37332   0.97308   0.98999   0.00000  Uiso   1.00
C107   C     0.32903   0.96397   0.04524   0.00000  Uiso   1.00
C108   C     0.24798   0.01626   0.03927   0.00000  Uiso   1.00
C109   C     0.21891   0.99734   0.09562   0.00000  Uiso   1.00
C110   C     0.40382   0.89670   0.98494   0.00000  Uiso   1.00
C111   C     0.38567   0.89245   0.92825   0.00000  Uiso   1.00
C112   C     0.41956   0.81691   0.93383   0.00000  Uiso   1.00
C113   C     0.45047   0.97182   0.01564   0.00000  Uiso   1.00
C114   C     0.47155   0.03071   0.98476   0.00000  Uiso   1.00
C115   C     0.54474   0.01840   0.01618   0.00000  Uiso   1.00
H116   H     0.50491   0.79295   0.14749   0.00000  Uiso   1.00
H117   H     0.38920   0.82298   0.20825   0.00000  Uiso   1.00
H118   H     0.52687   0.69919   0.09725   0.00000  Uiso   1.00
H119   H     0.61274   0.83743   0.15375   0.00000  Uiso   1.00
H120   H     0.23874   0.88658   0.24910   0.00000  Uiso   1.00
H121   H     0.52905   0.62556   0.01504   0.00000  Uiso   1.00
H122   H     0.71014   0.91707   0.13419   0.00000  Uiso   1.00
H123   H     0.33421   0.02662   0.94318   0.00000  Uiso   1.00
H124   H     0.20912   0.06947   0.99274   0.00000  Uiso   1.00
H125   H     0.34679   0.94567   0.88173   0.00000  Uiso   1.00
H126   H     0.43266   0.08392   0.93824   0.00000  Uiso   1.00
H127   H     0.09258   0.08663   0.07418   0.00000  Uiso   1.00
H128   H     0.38290   0.82561   0.84012   0.00000  Uiso   1.00
H129   H     0.56398   0.11713   0.95927   0.00000  Uiso   1.00
O130   O     0.08645   0.01056   0.19792   0.00000  Uiso   1.00
O131   O     0.46734   0.66812   0.89084   0.00000  Uiso   1.00
O132   O     0.70492   0.05058   0.04716   0.00000  Uiso   1.00
N133   N     0.22152   0.92779   0.20114   0.00000  Uiso   1.00
N134   N     0.49293   0.68375   0.98231   0.00000  Uiso   1.00
N135   N     0.66224   0.95628   0.09369   0.00000  Uiso   1.00
N136   N     0.14287   0.03544   0.10702   0.00000  Uiso   1.00
N137   N     0.41428   0.79140   0.88818   0.00000  Uiso   1.00
N138   N     0.58359   0.06393   0.99957   0.00000  Uiso   1.00
C139   C     0.26988   0.79294   0.60534   0.00000  Uiso   1.00
C140   C     0.23880   0.87913   0.58963   0.00000  Uiso   1.00
C141   C     0.28424   0.90697   0.60960   0.00000  Uiso   1.00
C142   C     0.24467   0.98790   0.59014   0.00000  Uiso   1.00
C143   C     0.20891   0.11396   0.57150   0.00000  Uiso   1.00
C144   C     0.25725   0.79493   0.53871   0.00000  Uiso   1.00
C145   C     0.31821   0.75198   0.51588   0.00000  Uiso   1.00
C146   C     0.29416   0.76203   0.45355   0.00000  Uiso   1.00
C147   C     0.28704   0.75733   0.35588   0.00000  Uiso   1.00
C148   C     0.21004   0.76932   0.63966   0.00000  Uiso   1.00
C149   C     0.23130   0.70480   0.70170   0.00000  Uiso   1.00
C150   C     0.16750   0.69328   0.72436   0.00000  Uiso   1.00
C151   C     0.08707   0.64880   0.78343   0.00000  Uiso   1.00
C152   C     0.11878   0.88716   0.53526   0.00000  Uiso   1.00
C153   C     0.15673   0.93030   0.55156   0.00000  Uiso   1.00
C154   C     0.11707   0.01121   0.53206   0.00000  Uiso   1.00
C155   C     0.16245   0.03917   0.55201   0.00000  Uiso   1.00
C156   C     0.17518   0.84611   0.50064   0.00000  Uiso   1.00
C157   C     0.15104   0.85622   0.43834   0.00000  Uiso   1.00
C158   C     0.21194   0.81330   0.41541   0.00000  Uiso   1.00
C159   C     0.12796   0.82049   0.60159   0.00000  Uiso   1.00
C160   C     0.06412   0.80906   0.62416   0.00000  Uiso   1.00
C161   C     0.08528   0.74455   0.68622   0.00000  Uiso   1.00
H162   H     0.33377   0.75309   0.63498   0.00000  Uiso   1.00
H163   H     0.34776   0.86734   0.63906   0.00000  Uiso   1.00
H164   H     0.38171   0.71237   0.54535   0.00000  Uiso   1.00
H165   H     0.29481   0.66521   0.73114   0.00000  Uiso   1.00
H166   H     0.32708   0.01659   0.62677   0.00000  Uiso   1.00
H167   H     0.39867   0.68980   0.42920   0.00000  Uiso   1.00
H168   H     0.21543   0.59036   0.82098   0.00000  Uiso   1.00
H169   H     0.05488   0.92700   0.50562   0.00000  Uiso   1.00
H170   H     0.05356   0.05080   0.50260   0.00000  Uiso   1.00
H171   H     0.08752   0.89583   0.40889   0.00000  Uiso   1.00
H172   H     0.00062   0.84867   0.59468   0.00000  Uiso   1.00
H173   H     0.08830   0.16550   0.51602   0.00000  Uiso   1.00
H174   H     0.15989   0.83870   0.31844   0.00000  Uiso   1.00
H175   H     0.97665   0.73926   0.71022   0.00000  Uiso   1.00
O176   O     0.21186   0.16935   0.57173   0.00000  Uiso   1.00
O177   O     0.30579   0.74060   0.31252   0.00000  Uiso   1.00
O178   O     0.06537   0.61014   0.82653   0.00000  Uiso   1.00
N179   N     0.27106   0.03464   0.60113   0.00000  Uiso   1.00
N180   N     0.33800   0.72912   0.41641   0.00000  Uiso   1.00
N181   N     0.16668   0.63614   0.78268   0.00000  Uiso   1.00
N182   N     0.14257   0.11477   0.54154   0.00000  Uiso   1.00
N183   N     0.20951   0.80925   0.35681   0.00000  Uiso   1.00
N184   N     0.03819   0.71626   0.72308   0.00000  Uiso   1.00
C185   C     0.80655   0.69780   0.57368   0.00000  Uiso   1.00
C186   C     0.75712   0.67334   0.54265   0.00000  Uiso   1.00
C187   C     0.67259   0.70238   0.53259   0.00000  Uiso   1.00
C188   C     0.63902   0.67250   0.50345   0.00000  Uiso   1.00
C189   C     0.55476   0.64320   0.45804   0.00000  Uiso   1.00
C190   C     0.85074   0.72741   0.52298   0.00000  Uiso   1.00
C191   C     0.84494   0.80189   0.49640   0.00000  Uiso   1.00
C192   C     0.89020   0.81752   0.45071   0.00000  Uiso   1.00
C193   C     0.95135   0.87214   0.37481   0.00000  Uiso   1.00
C194   C     0.87395   0.62092   0.63218   0.00000  Uiso   1.00
C195   C     0.88768   0.60587   0.69742   0.00000  Uiso   1.00
C196   C     0.95250   0.53185   0.74367   0.00000  Uiso   1.00
C197   C     0.04968   0.42112   0.83731   0.00000  Uiso   1.00
C198   C     0.89727   0.59311   0.53980   0.00000  Uiso   1.00
C199   C     0.80639   0.61648   0.52424   0.00000  Uiso   1.00
C200   C     0.77295   0.58655   0.49511   0.00000  Uiso   1.00
C201   C     0.68838   0.61553   0.48502   0.00000  Uiso   1.00
C202   C     0.90002   0.67055   0.50458   0.00000  Uiso   1.00
C203   C     0.94530   0.68606   0.45892   0.00000  Uiso   1.00
C204   C     0.93957   0.76055   0.43228   0.00000  Uiso   1.00
C205   C     0.92323   0.56405   0.61378   0.00000  Uiso   1.00
C206   C     0.98804   0.49004   0.65994   0.00000  Uiso   1.00
C207   C     0.00186   0.47488   0.72524   0.00000  Uiso   1.00
H208   H     0.76819   0.74208   0.58800   0.00000  Uiso   1.00
H209   H     0.63447   0.74639   0.54683   0.00000  Uiso   1.00
H210   H     0.80681   0.84588   0.51066   0.00000  Uiso   1.00
H211   H     0.84954   0.64989   0.71164   0.00000  Uiso   1.00
H212   H     0.50795   0.72612   0.49306   0.00000  Uiso   1.00
H213   H     0.87135   0.93590   0.41679   0.00000  Uiso   1.00
H214   H     0.96145   0.52261   0.84061   0.00000  Uiso   1.00
H215   H     0.93563   0.54884   0.52547   0.00000  Uiso   1.00
H216   H     0.81109   0.54254   0.48088   0.00000  Uiso   1.00
H217   H     0.98343   0.64204   0.44470   0.00000  Uiso   1.00
H218   H     0.02616   0.44605   0.64568   0.00000  Uiso   1.00
H219   H     0.65130   0.56067   0.43952   0.00000  Uiso   1.00
H220   H     0.01470   0.77045   0.36326   0.00000  Uiso   1.00
H221   H     0.10480   0.35716   0.78707   0.00000  Uiso   1.00
O222   O     0.49468   0.64276   0.43806   0.00000  Uiso   1.00
O223   O     0.97146   0.91798   0.33801   0.00000  Uiso   1.00
O224   O     0.08966   0.37575   0.89405   0.00000  Uiso   1.00
N225   N     0.55878   0.68803   0.48659   0.00000  Uiso   1.00
N226   N     0.89853   0.88417   0.41528   0.00000  Uiso   1.00
N227   N     0.98278   0.49779   0.81151   0.00000  Uiso   1.00
N228   N     0.63591   0.59900   0.45778   0.00000  Uiso   1.00
N229   N     0.97566   0.79514   0.38647   0.00000  Uiso   1.00
N230   N     0.05991   0.40876   0.78270   0.00000  Uiso   1.00
C231   C     0.26949   0.32487   0.60988   0.00000  Uiso   1.00
C232   C     0.33926   0.29260   0.57939   0.00000  Uiso   1.00
C233   C     0.39273   0.21263   0.59964   0.00000  Uiso   1.00
C234   C     0.45243   0.19537   0.56535   0.00000  Uiso   1.00
C235   C     0.55984   0.13604   0.52599   0.00000  Uiso   1.00
C236   C     0.19100   0.38066   0.55324   0.00000  Uiso   1.00
C237   C     0.11983   0.37473   0.55152   0.00000  Uiso   1.00
C238   C     0.05473   0.43160   0.49523   0.00000  Uiso   1.00
C239   C     0.93195   0.50902   0.41530   0.00000  Uiso   1.00
C240   C     0.28569   0.37781   0.63060   0.00000  Uiso   1.00
C241   C     0.29410   0.36950   0.69392   0.00000  Uiso   1.00
C242   C     0.30869   0.42399   0.70276   0.00000  Uiso   1.00
C243   C     0.33292   0.49699   0.74295   0.00000  Uiso   1.00
C244   C     0.28042   0.43644   0.51299   0.00000  Uiso   1.00
C245   C     0.34519   0.35321   0.52675   0.00000  Uiso   1.00
C246   C     0.40483   0.33606   0.49243   0.00000  Uiso   1.00
C247   C     0.45839   0.25607   0.51263   0.00000  Uiso   1.00
C248   C     0.19694   0.44126   0.50061   0.00000  Uiso   1.00
C249   C     0.13193   0.49816   0.44432   0.00000  Uiso   1.00
C250   C     0.06068   0.49231   0.44251   0.00000  Uiso   1.00
C251   C     0.29163   0.43841   0.57798   0.00000  Uiso   1.00
C252   C     0.30621   0.49293   0.58672   0.00000  Uiso   1.00
C253   C     0.31464   0.48470   0.65004   0.00000  Uiso   1.00
H254   H     0.26485   0.27770   0.65085   0.00000  Uiso   1.00
H255   H     0.38811   0.16575   0.64036   0.00000  Uiso   1.00
H256   H     0.11524   0.32783   0.59226   0.00000  Uiso   1.00
H257   H     0.28949   0.32260   0.73464   0.00000  Uiso   1.00
H258   H     0.52735   0.06835   0.60551   0.00000  Uiso   1.00
H259   H     0.95200   0.41013   0.50409   0.00000  Uiso   1.00
H260   H     0.31944   0.39910   0.80432   0.00000  Uiso   1.00
H261   H     0.28505   0.48363   0.47201   0.00000  Uiso   1.00
H262   H     0.40942   0.38297   0.45171   0.00000  Uiso   1.00
H263   H     0.13655   0.54505   0.40360   0.00000  Uiso   1.00
H264   H     0.31080   0.53982   0.54598   0.00000  Uiso   1.00
H265   H     0.54465   0.24466   0.45239   0.00000  Uiso   1.00
H266   H     0.96929   0.58644   0.35097   0.00000  Uiso   1.00
H267   H     0.33673   0.57540   0.65120   0.00000  Uiso   1.00
O268   O     0.61743   0.08658   0.51881   0.00000  Uiso   1.00
O269   O     0.86258   0.53498   0.38575   0.00000  Uiso   1.00
O270   O     0.34466   0.52050   0.77965   0.00000  Uiso   1.00
N271   N     0.51437   0.12366   0.57227   0.00000  Uiso   1.00
N272   N     0.97645   0.44319   0.47744   0.00000  Uiso   1.00
N273   N     0.31995   0.43289   0.75813   0.00000  Uiso   1.00
N274   N     0.52367   0.21853   0.48988   0.00000  Uiso   1.00
N275   N     0.98576   0.53806   0.39505   0.00000  Uiso   1.00
N276   N     0.32926   0.52776   0.67574   0.00000  Uiso   1.00
C277   C     0.15971   0.12305   0.26465   0.00000  Uiso   1.00
C278   C     0.09188   0.11948   0.29925   0.00000  Uiso   1.00
C279   C     0.06221   0.06724   0.30894   0.00000  Uiso   1.00
C280   C     0.99999   0.07346   0.34171   0.00000  Uiso   1.00
C281   C     0.89947   0.05931   0.39207   0.00000  Uiso   1.00
C282   C     0.22560   0.11237   0.31424   0.00000  Uiso   1.00
C283   C     0.30836   0.05416   0.33652   0.00000  Uiso   1.00
C284   C     0.35870   0.05440   0.38190   0.00000  Uiso   1.00
C285   C     0.46580   0.02925   0.45550   0.00000  Uiso   1.00
C286   C     0.12208   0.20852   0.20856   0.00000  Uiso   1.00
C287   C     0.11782   0.23115   0.14199   0.00000  Uiso   1.00
C288   C     0.08103   0.31234   0.09840   0.00000  Uiso   1.00
C289   C     0.02740   0.43646   0.00792   0.00000  Uiso   1.00
C290   C     0.10198   0.22700   0.30563   0.00000  Uiso   1.00
C291   C     0.06053   0.17594   0.32151   0.00000  Uiso   1.00
C292   C     0.99833   0.18225   0.35427   0.00000  Uiso   1.00
C293   C     0.96857   0.13003   0.36401   0.00000  Uiso   1.00
C294   C     0.19425   0.16883   0.33650   0.00000  Uiso   1.00
C295   C     0.24448   0.16916   0.38186   0.00000  Uiso   1.00
C296   C     0.32729   0.11096   0.40420   0.00000  Uiso   1.00
C297   C     0.09072   0.26498   0.23082   0.00000  Uiso   1.00
C298   C     0.05394   0.34615   0.18733   0.00000  Uiso   1.00
C299   C     0.04962   0.36890   0.12070   0.00000  Uiso   1.00
H300   H     0.18412   0.07909   0.24733   0.00000  Uiso   1.00
H301   H     0.08650   0.02355   0.29171   0.00000  Uiso   1.00
H302   H     0.33261   0.01048   0.31928   0.00000  Uiso   1.00
H303   H     0.14209   0.18744   0.12478   0.00000  Uiso   1.00
H304   H     0.96445   0.98686   0.35075   0.00000  Uiso   1.00
H305   H     0.48339   0.95931   0.40887   0.00000  Uiso   1.00
H306   H     0.08166   0.33246   0.99873   0.00000  Uiso   1.00
H307   H     0.07756   0.27095   0.32296   0.00000  Uiso   1.00
H308   H     0.97408   0.22595   0.37149   0.00000  Uiso   1.00
H309   H     0.22020   0.21287   0.39907   0.00000  Uiso   1.00
H310   H     0.02968   0.38982   0.20457   0.00000  Uiso   1.00
H311   H     0.87321   0.15112   0.41551   0.00000  Uiso   1.00
H312   H     0.39216   0.12357   0.47363   0.00000  Uiso   1.00
H313   H     0.99043   0.49672   0.06349   0.00000  Uiso   1.00
O314   O     0.85270   0.03590   0.41371   0.00000  Uiso   1.00
O315   O     0.53354   0.99977   0.48995   0.00000  Uiso   1.00
O316   O     0.00647   0.48933   0.95186   0.00000  Uiso   1.00
N317   N     0.95717   0.03171   0.35932   0.00000  Uiso   1.00
N318   N     0.44235   0.00594   0.41367   0.00000  Uiso   1.00
N319   N     0.06678   0.35480   0.03022   0.00000  Uiso   1.00
N320   N     0.90807   0.12010   0.39417   0.00000  Uiso   1.00
N321   N     0.39325   0.09433   0.44851   0.00000  Uiso   1.00
N322   N     0.01769   0.44319   0.06507   0.00000  Uiso   1.00
C323   C     0.09053   0.53202   0.20419   0.00000  Uiso   1.00
C324   C     0.11313   0.58433   0.22098   0.00000  Uiso   1.00
C325   C     0.06592   0.66653   0.19402   0.00000  Uiso   1.00
C326   C     0.09735   0.70340   0.21586   0.00000  Uiso   1.00
C327   C     0.12088   0.79129   0.23479   0.00000  Uiso   1.00
C328   C     0.09198   0.46956   0.26977   0.00000  Uiso   1.00
C329   C     0.02698   0.45526   0.28382   0.00000  Uiso   1.00
C330   C     0.04062   0.39551   0.34673   0.00000  Uiso   1.00
C331   C     0.03133   0.30518   0.44139   0.00000  Uiso   1.00
C332   C     0.16226   0.48686   0.18128   0.00000  Uiso   1.00
C333   C     0.15636   0.48709   0.12093   0.00000  Uiso   1.00
C334   C     0.22917   0.44189   0.10934   0.00000  Uiso   1.00
C335   C     0.32901   0.37843   0.06659   0.00000  Uiso   1.00
C336   C     0.23032   0.45131   0.29094   0.00000  Uiso   1.00
C337   C     0.18906   0.54049   0.26810   0.00000  Uiso   1.00
C338   C     0.22058   0.57724   0.28999   0.00000  Uiso   1.00
C339   C     0.17342   0.65949   0.26306   0.00000  Uiso   1.00
C340   C     0.16790   0.42572   0.31688   0.00000  Uiso   1.00
C341   C     0.18165   0.36597   0.37979   0.00000  Uiso   1.00
C342   C     0.11669   0.35159   0.39393   0.00000  Uiso   1.00
C343   C     0.23819   0.44303   0.22839   0.00000  Uiso   1.00
C344   C     0.31103   0.39781   0.21690   0.00000  Uiso   1.00
C345   C     0.30524   0.39798   0.15654   0.00000  Uiso   1.00
H346   H     0.03141   0.56614   0.16751   0.00000  Uiso   1.00
H347   H     0.00715   0.70043   0.15756   0.00000  Uiso   1.00
H348   H     0.96823   0.48919   0.24735   0.00000  Uiso   1.00
H349   H     0.09759   0.52102   0.08448   0.00000  Uiso   1.00
H350   H     0.01373   0.82999   0.16732   0.00000  Uiso   1.00
H351   H     0.93167   0.38455   0.35663   0.00000  Uiso   1.00
H352   H     0.20445   0.45167   0.01319   0.00000  Uiso   1.00
H353   H     0.28943   0.41718   0.32762   0.00000  Uiso   1.00
H354   H     0.27934   0.54331   0.32645   0.00000  Uiso   1.00
H355   H     0.24041   0.33206   0.41624   0.00000  Uiso   1.00
H356   H     0.36977   0.36389   0.25337   0.00000  Uiso   1.00
H357   H     0.23465   0.70246   0.30440   0.00000  Uiso   1.00
H358   H     0.15259   0.25701   0.49371   0.00000  Uiso   1.00
H359   H     0.42536   0.32414   0.15027   0.00000  Uiso   1.00
O360   O     0.11288   0.85187   0.23222   0.00000  Uiso   1.00
O361   O     0.00523   0.26747   0.48058   0.00000  Uiso   1.00
O362   O     0.36310   0.35554   0.03000   0.00000  Uiso   1.00
N363   N     0.06712   0.78267   0.19973   0.00000  Uiso   1.00
N364   N     0.99039   0.36622   0.37673   0.00000  Uiso   1.00
N365   N     0.24541   0.42895   0.05565   0.00000  Uiso   1.00
N366   N     0.18599   0.71404   0.27349   0.00000  Uiso   1.00
N367   N     0.10926   0.29759   0.45049   0.00000  Uiso   1.00
N368   N     0.36429   0.36033   0.12941   0.00000  Uiso   1.00
C369   C     0.65641   0.07549   0.19408   0.00000  Uiso   1.00
C370   C     0.70639   0.98489   0.22497   0.00000  Uiso   1.00
C371   C     0.77380   0.94254   0.20656   0.00000  Uiso   1.00
C372   C     0.81113   0.85992   0.24088   0.00000  Uiso   1.00
C373   C     0.89319   0.72513   0.28111   0.00000  Uiso   1.00
C374   C     0.65909   0.09422   0.25097   0.00000  Uiso   1.00
C375   C     0.68672   0.14381   0.25441   0.00000  Uiso   1.00
C376   C     0.68423   0.15323   0.31063   0.00000  Uiso   1.00
C377   C     0.69280   0.18824   0.39120   0.00000  Uiso   1.00
C378   C     0.56703   0.09843   0.17053   0.00000  Uiso   1.00
C379   C     0.51725   0.15156   0.10635   0.00000  Uiso   1.00
C380   C     0.43724   0.16454   0.09485   0.00000  Uiso   1.00
C381   C     0.30288   0.20607   0.05054   0.00000  Uiso   1.00
C382   C     0.60284   0.00407   0.28778   0.00000  Uiso   1.00
C383   C     0.67729   0.94610   0.27586   0.00000  Uiso   1.00
C384   C     0.71453   0.86352   0.31022   0.00000  Uiso   1.00
C385   C     0.78198   0.82106   0.29186   0.00000  Uiso   1.00
C386   C     0.63000   0.05543   0.30186   0.00000  Uiso   1.00
C387   C     0.62745   0.06479   0.35807   0.00000  Uiso   1.00
C388   C     0.65507   0.11437   0.36161   0.00000  Uiso   1.00
C389   C     0.53793   0.05963   0.22142   0.00000  Uiso   1.00
C390   C     0.45798   0.07254   0.21002   0.00000  Uiso   1.00
C391   C     0.40808   0.12568   0.14583   0.00000  Uiso   1.00
H392   H     0.67906   0.10570   0.15447   0.00000  Uiso   1.00
H393   H     0.79630   0.97258   0.16717   0.00000  Uiso   1.00
H394   H     0.70923   0.17383   0.21502   0.00000  Uiso   1.00
H395   H     0.53979   0.18157   0.06699   0.00000  Uiso   1.00
H396   H     0.91347   0.80789   0.20372   0.00000  Uiso   1.00
H397   H     0.72985   0.23225   0.30460   0.00000  Uiso   1.00
H398   H     0.37254   0.24858   0.99244   0.00000  Uiso   1.00
H399   H     0.58018   0.97387   0.32740   0.00000  Uiso   1.00
H400   H     0.69199   0.83352   0.34960   0.00000  Uiso   1.00
H401   H     0.60492   0.03476   0.39745   0.00000  Uiso   1.00
H402   H     0.43548   0.04251   0.24941   0.00000  Uiso   1.00
H403   H     0.82881   0.69502   0.35179   0.00000  Uiso   1.00
H404   H     0.64519   0.11938   0.45266   0.00000  Uiso   1.00
H405   H     0.28789   0.13571   0.14050   0.00000  Uiso   1.00
O406   O     0.94650   0.66151   0.28925   0.00000  Uiso   1.00
O407   O     0.70558   0.21826   0.42159   0.00000  Uiso   1.00
O408   O     0.23681   0.23968   0.01204   0.00000  Uiso   1.00
N409   N     0.87819   0.80059   0.23551   0.00000  Uiso   1.00
N410   N     0.70653   0.19733   0.32983   0.00000  Uiso   1.00
N411   N     0.37247   0.21261   0.03799   0.00000  Uiso   1.00
N412   N     0.83264   0.73986   0.31518   0.00000  Uiso   1.00
N413   N     0.66097   0.13659   0.40950   0.00000  Uiso   1.00
N414   N     0.32692   0.15188   0.11766   0.00000  Uiso   1.00
C415   C     0.85844   0.01372   0.71149   0.00000  Uiso   1.00
C416   C     0.82155   0.96301   0.70951   0.00000  Uiso   1.00
C417   C     0.77065   0.97893   0.65423   0.00000  Uiso   1.00
C418   C     0.74331   0.92527   0.66263   0.00000  Uiso   1.00
C419   C     0.68254   0.85677   0.65022   0.00000  Uiso   1.00
C420   C     0.83085   0.03535   0.76548   0.00000  Uiso   1.00
C421   C     0.78777   0.11209   0.75724   0.00000  Uiso   1.00
C422   C     0.76828   0.11932   0.81275   0.00000  Uiso   1.00
C423   C     0.72199   0.16312   0.88723   0.00000  Uiso   1.00
C424   C     0.95167   0.95809   0.73706   0.00000  Uiso   1.00
C425   C     0.01018   0.96989   0.70495   0.00000  Uiso   1.00
C426   C     0.09241   0.91208   0.73654   0.00000  Uiso   1.00
C427   C     0.23371   0.83593   0.76690   0.00000  Uiso   1.00
C428   C     0.90042   0.89010   0.82471   0.00000  Uiso   1.00
C429   C     0.84436   0.89587   0.77101   0.00000  Uiso   1.00
C430   C     0.81710   0.84217   0.77949   0.00000  Uiso   1.00
C431   C     0.76616   0.85801   0.72423   0.00000  Uiso   1.00
C432   C     0.85366   0.96821   0.82697   0.00000  Uiso   1.00
C433   C     0.83423   0.97533   0.88251   0.00000  Uiso   1.00
C434   C     0.79112   0.05206   0.87436   0.00000  Uiso   1.00
C435   C     0.97448   0.89095   0.79856   0.00000  Uiso   1.00
C436   C     0.05663   0.83312   0.83021   0.00000  Uiso   1.00
C437   C     0.11526   0.84482   0.79815   0.00000  Uiso   1.00
H438   H     0.84068   0.06599   0.66361   0.00000  Uiso   1.00
H439   H     0.75300   0.03090   0.60665   0.00000  Uiso   1.00
H440   H     0.77014   0.16404   0.70965   0.00000  Uiso   1.00
H441   H     0.99251   0.02185   0.65736   0.00000  Uiso   1.00
H442   H     0.66583   0.96241   0.57062   0.00000  Uiso   1.00
H443   H     0.70199   0.24313   0.78780   0.00000  Uiso   1.00
H444   H     0.17090   0.94330   0.67754   0.00000  Uiso   1.00
H445   H     0.91818   0.83783   0.87259   0.00000  Uiso   1.00
H446   H     0.83476   0.79021   0.82709   0.00000  Uiso   1.00
H447   H     0.85189   0.92335   0.93009   0.00000  Uiso   1.00
H448   H     0.07426   0.78117   0.87780   0.00000  Uiso   1.00
H449   H     0.73218   0.76705   0.74954   0.00000  Uiso   1.00
H450   H     0.76834   0.04778   0.96672   0.00000  Uiso   1.00
H451   H     0.23725   0.74795   0.85646   0.00000  Uiso   1.00
O452   O     0.64271   0.83754   0.62639   0.00000  Uiso   1.00
O453   O     0.69015   0.20584   0.91132   0.00000  Uiso   1.00
O454   O     0.30535   0.81247   0.76666   0.00000  Uiso   1.00
N455   N     0.69291   0.92295   0.61897   0.00000  Uiso   1.00
N456   N     0.72670   0.18542   0.82202   0.00000  Uiso   1.00
N457   N     0.16510   0.90511   0.71894   0.00000  Uiso   1.00
N458   N     0.72861   0.81784   0.71524   0.00000  Uiso   1.00
N459   N     0.76240   0.08030   0.91829   0.00000  Uiso   1.00
N460   N     0.20080   0.80000   0.81522   0.00000  Uiso   1.00
C461   C     0.16113   0.10137   0.78041   0.00000  Uiso   1.00
C462   C     0.19391   0.13971   0.80880   0.00000  Uiso   1.00
C463   C     0.26563   0.14393   0.80184   0.00000  Uiso   1.00
C464   C     0.28495   0.18144   0.83152   0.00000  Uiso   1.00
C465   C     0.34357   0.23604   0.87025   0.00000  Uiso   1.00
C466   C     0.15192   0.03890   0.83914   0.00000  Uiso   1.00
C467   C     0.18832   0.95837   0.85767   0.00000  Uiso   1.00
C468   C     0.17229   0.91102   0.91290   0.00000  Uiso   1.00
C469   C     0.16567   0.80912   0.99869   0.00000  Uiso   1.00
C470   C     0.07369   0.16601   0.73792   0.00000  Uiso   1.00
C471   C     0.04430   0.19235   0.67136   0.00000  Uiso   1.00
C472   C     0.96240   0.25201   0.64137   0.00000  Uiso   1.00
C473   C     0.83431   0.34747   0.57001   0.00000  Uiso   1.00
C474   C     0.06791   0.16048   0.84551   0.00000  Uiso   1.00
C475   C     0.14327   0.17181   0.84416   0.00000  Uiso   1.00
C476   C     0.16249   0.20932   0.87386   0.00000  Uiso   1.00
C477   C     0.23423   0.21360   0.86695   0.00000  Uiso   1.00
C478   C     0.10129   0.07100   0.87450   0.00000  Uiso   1.00
C479   C     0.08519   0.02376   0.92970   0.00000  Uiso   1.00
C480   C     0.12157   0.94318   0.94832   0.00000  Uiso   1.00
C481   C     0.02305   0.19812   0.77328   0.00000  Uiso   1.00
C482   C     0.94117   0.25774   0.74339   0.00000  Uiso   1.00
C483   C     0.91167   0.28416   0.67679   0.00000  Uiso   1.00
H484   H     0.20055   0.07638   0.75288   0.00000  Uiso   1.00
H485   H     0.30480   0.11907   0.77447   0.00000  Uiso   1.00
H486   H     0.22750   0.93354   0.83030   0.00000  Uiso   1.00
H487   H     0.08350   0.16749   0.64401   0.00000  Uiso   1.00
H488   H     0.39807   0.18054   0.81402   0.00000  Uiso   1.00
H489   H     0.23505   0.78935   0.93172   0.00000  Uiso   1.00
H490   H     0.93141   0.28267   0.53889   0.00000  Uiso   1.00
H491   H     0.02849   0.18547   0.87305   0.00000  Uiso   1.00
H492   H     0.12330   0.23416   0.90123   0.00000  Uiso   1.00
H493   H     0.04600   0.04862   0.95705   0.00000  Uiso   1.00
H494   H     0.90200   0.28257   0.77077   0.00000  Uiso   1.00
H495   H     0.25076   0.27394   0.91690   0.00000  Uiso   1.00
H496   H     0.08774   0.88275   0.03460   0.00000  Uiso   1.00
H497   H     0.78410   0.37607   0.64178   0.00000  Uiso   1.00
O498   O     0.38990   0.25728   0.88185   0.00000  Uiso   1.00
O499   O     0.17602   0.74405   0.03625   0.00000  Uiso   1.00
O500   O     0.77765   0.39127   0.52088   0.00000  Uiso   1.00
N501   N     0.35038   0.19586   0.83436   0.00000  Uiso   1.00
N502   N     0.19798   0.83011   0.94440   0.00000  Uiso   1.00
N503   N     0.91409   0.29131   0.57715   0.00000  Uiso   1.00
N504   N     0.27111   0.24612   0.88971   0.00000  Uiso   1.00
N505   N     0.11871   0.88037   0.99976   0.00000  Uiso   1.00
N506   N     0.83482   0.34156   0.63251   0.00000  Uiso   1.00
C507   C     0.70585   0.51151   0.71193   0.00000  Uiso   1.00
C508   C     0.64189   0.58006   0.72079   0.00000  Uiso   1.00
C509   C     0.63115   0.65649   0.69342   0.00000  Uiso   1.00
C510   C     0.56925   0.71067   0.70742   0.00000  Uiso   1.00
C511   C     0.47748   0.82037   0.71513   0.00000  Uiso   1.00
C512   C     0.75591   0.44333   0.78159   0.00000  Uiso   1.00
C513   C     0.84103   0.40482   0.80534   0.00000  Uiso   1.00
C514   C     0.87511   0.34389   0.87051   0.00000  Uiso   1.00
C515   C     0.96036   0.24129   0.97259   0.00000  Uiso   1.00
C516   C     0.65751   0.48393   0.68379   0.00000  Uiso   1.00
C517   C     0.65991   0.47952   0.62533   0.00000  Uiso   1.00
C518   C     0.61115   0.45275   0.60817   0.00000  Uiso   1.00
C519   C     0.54362   0.41317   0.55842   0.00000  Uiso   1.00
C520   C     0.61503   0.47179   0.78544   0.00000  Uiso   1.00
C521   C     0.59257   0.55848   0.76072   0.00000  Uiso   1.00
C522   C     0.53067   0.61255   0.77475   0.00000  Uiso   1.00
C523   C     0.51983   0.68906   0.74741   0.00000  Uiso   1.00
C524   C     0.70659   0.42176   0.82151   0.00000  Uiso   1.00
C525   C     0.74055   0.36087   0.88666   0.00000  Uiso   1.00
C526   C     0.82570   0.32228   0.91051   0.00000  Uiso   1.00
C527   C     0.60818   0.46236   0.72372   0.00000  Uiso   1.00
C528   C     0.55942   0.43558   0.70666   0.00000  Uiso   1.00
C529   C     0.56174   0.43113   0.64817   0.00000  Uiso   1.00
H530   H     0.74426   0.52830   0.68085   0.00000  Uiso   1.00
H531   H     0.66934   0.67316   0.66253   0.00000  Uiso   1.00
H532   H     0.87919   0.42152   0.77442   0.00000  Uiso   1.00
H533   H     0.69808   0.49622   0.59444   0.00000  Uiso   1.00
H534   H     0.56455   0.82425   0.65986   0.00000  Uiso   1.00
H535   H     0.00702   0.29362   0.89578   0.00000  Uiso   1.00
H536   H     0.62514   0.45113   0.51625   0.00000  Uiso   1.00
H537   H     0.57663   0.45500   0.81652   0.00000  Uiso   1.00
H538   H     0.49251   0.59584   0.80565   0.00000  Uiso   1.00
H539   H     0.70236   0.34419   0.91755   0.00000  Uiso   1.00
H540   H     0.52126   0.41889   0.73756   0.00000  Uiso   1.00
H541   H     0.42103   0.76149   0.77602   0.00000  Uiso   1.00
H542   H     0.86351   0.23086   0.01194   0.00000  Uiso   1.00
H543   H     0.48162   0.38837   0.63242   0.00000  Uiso   1.00
O544   O     0.44049   0.88683   0.70836   0.00000  Uiso   1.00
O545   O     0.02101   0.19066   0.01787   0.00000  Uiso   1.00
O546   O     0.51998   0.39732   0.51994   0.00000  Uiso   1.00
N547   N     0.54230   0.79015   0.68868   0.00000  Uiso   1.00
N548   N     0.95599   0.29406   0.90925   0.00000  Uiso   1.00
N549   N     0.59898   0.44129   0.55444   0.00000  Uiso   1.00
N550   N     0.46507   0.75638   0.75118   0.00000  Uiso   1.00
N551   N     0.87876   0.26029   0.97176   0.00000  Uiso   1.00
N552   N     0.52175   0.40752   0.61694   0.00000  Uiso   1.00
