data_job_01020
_audit_creation_date              2018-12-19
_audit_creation_method            'Materials Studio'
_symmetry_space_group_name_H-M    'P1'
_symmetry_Int_Tables_number       1
_symmetry_cell_setting            triclinic
loop_
_symmetry_equiv_pos_as_xyz
  x,y,z
_cell_length_a                    10.0393
_cell_length_b                    15.0473
_cell_length_c                    14.2690
_cell_angle_alpha                 90.0000
_cell_angle_beta                  82.5346
_cell_angle_gamma                 90.0000
loop_
_atom_site_label
_atom_site_type_symbol
_atom_site_fract_x
_atom_site_fract_y
_atom_site_fract_z
_atom_site_U_iso_or_equiv
_atom_site_adp_type
_atom_site_occupancy
C1     C     0.99180   0.82025   0.20492   0.00000  Uiso   1.00
C2     C     0.91267   0.90377   0.18731   0.00000  Uiso   1.00
C3     C     0.89875   0.93952   0.09946   0.00000  Uiso   1.00
C4     C     0.82229   0.01630   0.09833   0.00000  Uiso   1.00
C5     C     0.70865   0.14000   0.05825   0.00000  Uiso   1.00
C6     C     0.09360   0.84833   0.26978   0.00000  Uiso   1.00
C7     C     0.23180   0.83746   0.25127   0.00000  Uiso   1.00
C8     C     0.30764   0.86756   0.31957   0.00000  Uiso   1.00
C9     C     0.47489   0.90513   0.40755   0.00000  Uiso   1.00
C10    C     0.89306   0.75855   0.26335   0.00000  Uiso   1.00
C11    C     0.86266   0.67216   0.23945   0.00000  Uiso   1.00
C12    C     0.76969   0.62667   0.30235   0.00000  Uiso   1.00
C13    C     0.62557   0.52482   0.38036   0.00000  Uiso   1.00
C14    C     0.88078   0.89305   0.35914   0.00000  Uiso   1.00
C15    C     0.85237   0.94331   0.27108   0.00000  Uiso   1.00
C16    C     0.77591   0.02006   0.27009   0.00000  Uiso   1.00
C17    C     0.76187   0.05591   0.18225   0.00000  Uiso   1.00
C18    C     0.03331   0.88787   0.35355   0.00000  Uiso   1.00
C19    C     0.10896   0.91800   0.42190   0.00000  Uiso   1.00
C20    C     0.24723   0.90718   0.40349   0.00000  Uiso   1.00
C21    C     0.83276   0.79809   0.34712   0.00000  Uiso   1.00
C22    C     0.73982   0.75271   0.41008   0.00000  Uiso   1.00
C23    C     0.70928   0.66628   0.38627   0.00000  Uiso   1.00
H24    H     0.03876   0.78947   0.13970   0.00000  Uiso   1.00
H25    H     0.94544   0.90890   0.03464   0.00000  Uiso   1.00
H26    H     0.27844   0.80685   0.18644   0.00000  Uiso   1.00
H27    H     0.90935   0.64159   0.17462   0.00000  Uiso   1.00
H28    H     0.81543   0.05877   0.95511   0.00000  Uiso   1.00
H29    H     0.51756   0.84356   0.27519   0.00000  Uiso   1.00
H30    H     0.73927   0.49507   0.25027   0.00000  Uiso   1.00
H31    H     0.83383   0.92383   0.42436   0.00000  Uiso   1.00
H32    H     0.72926   0.05064   0.33492   0.00000  Uiso   1.00
H33    H     0.06226   0.94859   0.48672   0.00000  Uiso   1.00
H34    H     0.69317   0.78333   0.47490   0.00000  Uiso   1.00
H35    H     0.63997   0.17382   0.19883   0.00000  Uiso   1.00
H36    H     0.34211   0.95860   0.51891   0.00000  Uiso   1.00
H37    H     0.56382   0.61011   0.49399   0.00000  Uiso   1.00
O38    O     0.66264   0.19731   0.01300   0.00000  Uiso   1.00
O39    O     0.58381   0.91493   0.43294   0.00000  Uiso   1.00
O40    O     0.56272   0.45773   0.40024   0.00000  Uiso   1.00
N41    N     0.78846   0.06844   0.02475   0.00000  Uiso   1.00
N42    N     0.44492   0.86723   0.32399   0.00000  Uiso   1.00
N43    N     0.71731   0.54142   0.30070   0.00000  Uiso   1.00
N44    N     0.69405   0.13034   0.15589   0.00000  Uiso   1.00
N45    N     0.35050   0.92914   0.45513   0.00000  Uiso   1.00
N46    N     0.62290   0.60332   0.43185   0.00000  Uiso   1.00
C47    C     0.00820   0.32025   0.29508   0.00000  Uiso   1.00
C48    C     0.08733   0.40377   0.31269   0.00000  Uiso   1.00
C49    C     0.10125   0.43952   0.40054   0.00000  Uiso   1.00
C50    C     0.17771   0.51630   0.40167   0.00000  Uiso   1.00
C51    C     0.29135   0.64000   0.44175   0.00000  Uiso   1.00
C52    C     0.90640   0.34833   0.23022   0.00000  Uiso   1.00
C53    C     0.76820   0.33746   0.24873   0.00000  Uiso   1.00
C54    C     0.69236   0.36756   0.18043   0.00000  Uiso   1.00
C55    C     0.52511   0.40513   0.09245   0.00000  Uiso   1.00
C56    C     0.10694   0.25855   0.23665   0.00000  Uiso   1.00
C57    C     0.13734   0.17216   0.26055   0.00000  Uiso   1.00
C58    C     0.23031   0.12667   0.19765   0.00000  Uiso   1.00
C59    C     0.37443   0.02482   0.11964   0.00000  Uiso   1.00
C60    C     0.11922   0.39305   0.14086   0.00000  Uiso   1.00
C61    C     0.14763   0.44331   0.22892   0.00000  Uiso   1.00
C62    C     0.22409   0.52006   0.22991   0.00000  Uiso   1.00
C63    C     0.23813   0.55591   0.31775   0.00000  Uiso   1.00
C64    C     0.96669   0.38787   0.14645   0.00000  Uiso   1.00
C65    C     0.89104   0.41800   0.07810   0.00000  Uiso   1.00
C66    C     0.75277   0.40718   0.09651   0.00000  Uiso   1.00
C67    C     0.16724   0.29809   0.15288   0.00000  Uiso   1.00
C68    C     0.26018   0.25271   0.08992   0.00000  Uiso   1.00
C69    C     0.29072   0.16628   0.11373   0.00000  Uiso   1.00
H70    H     0.96124   0.28947   0.36030   0.00000  Uiso   1.00
H71    H     0.05456   0.40890   0.46536   0.00000  Uiso   1.00
H72    H     0.72156   0.30685   0.31356   0.00000  Uiso   1.00
H73    H     0.09065   0.14159   0.32538   0.00000  Uiso   1.00
H74    H     0.18457   0.55877   0.54489   0.00000  Uiso   1.00
H75    H     0.48244   0.34356   0.22481   0.00000  Uiso   1.00
H76    H     0.26073   0.99507   0.24973   0.00000  Uiso   1.00
H77    H     0.16617   0.42383   0.07564   0.00000  Uiso   1.00
H78    H     0.27074   0.55064   0.16508   0.00000  Uiso   1.00
H79    H     0.93774   0.44859   0.01328   0.00000  Uiso   1.00
H80    H     0.30683   0.28333   0.02510   0.00000  Uiso   1.00
H81    H     0.36003   0.67382   0.30117   0.00000  Uiso   1.00
H82    H     0.65789   0.45860   0.98109   0.00000  Uiso   1.00
H83    H     0.43618   0.11011   0.00601   0.00000  Uiso   1.00
O84    O     0.33736   0.69731   0.48700   0.00000  Uiso   1.00
O85    O     0.41619   0.41493   0.06706   0.00000  Uiso   1.00
O86    O     0.43728   0.95773   0.09976   0.00000  Uiso   1.00
N87    N     0.21154   0.56844   0.47525   0.00000  Uiso   1.00
N88    N     0.55508   0.36723   0.17601   0.00000  Uiso   1.00
N89    N     0.28269   0.04142   0.19930   0.00000  Uiso   1.00
N90    N     0.30595   0.63034   0.34411   0.00000  Uiso   1.00
N91    N     0.64950   0.42914   0.04487   0.00000  Uiso   1.00
N92    N     0.37710   0.10332   0.06815   0.00000  Uiso   1.00
C93    C     0.00820   0.17975   0.79508   0.00000  Uiso   1.00
C94    C     0.08733   0.09623   0.81269   0.00000  Uiso   1.00
C95    C     0.10125   0.06048   0.90054   0.00000  Uiso   1.00
C96    C     0.17771   0.98370   0.90167   0.00000  Uiso   1.00
C97    C     0.29135   0.86000   0.94175   0.00000  Uiso   1.00
C98    C     0.90640   0.15167   0.73022   0.00000  Uiso   1.00
C99    C     0.76820   0.16254   0.74873   0.00000  Uiso   1.00
C100   C     0.69236   0.13244   0.68043   0.00000  Uiso   1.00
C101   C     0.52511   0.09487   0.59245   0.00000  Uiso   1.00
C102   C     0.10694   0.24145   0.73665   0.00000  Uiso   1.00
C103   C     0.13734   0.32784   0.76055   0.00000  Uiso   1.00
C104   C     0.23031   0.37333   0.69765   0.00000  Uiso   1.00
C105   C     0.37443   0.47518   0.61964   0.00000  Uiso   1.00
C106   C     0.11922   0.10695   0.64086   0.00000  Uiso   1.00
C107   C     0.14763   0.05669   0.72892   0.00000  Uiso   1.00
C108   C     0.22409   0.97994   0.72991   0.00000  Uiso   1.00
C109   C     0.23813   0.94409   0.81775   0.00000  Uiso   1.00
C110   C     0.96669   0.11213   0.64645   0.00000  Uiso   1.00
C111   C     0.89104   0.08200   0.57810   0.00000  Uiso   1.00
C112   C     0.75277   0.09282   0.59651   0.00000  Uiso   1.00
C113   C     0.16724   0.20191   0.65288   0.00000  Uiso   1.00
C114   C     0.26018   0.24729   0.58992   0.00000  Uiso   1.00
C115   C     0.29072   0.33372   0.61373   0.00000  Uiso   1.00
H116   H     0.96124   0.21053   0.86030   0.00000  Uiso   1.00
H117   H     0.05456   0.09110   0.96536   0.00000  Uiso   1.00
H118   H     0.72156   0.19315   0.81356   0.00000  Uiso   1.00
H119   H     0.09065   0.35841   0.82538   0.00000  Uiso   1.00
H120   H     0.18457   0.94123   0.04489   0.00000  Uiso   1.00
H121   H     0.48244   0.15644   0.72481   0.00000  Uiso   1.00
H122   H     0.26073   0.50493   0.74973   0.00000  Uiso   1.00
H123   H     0.16617   0.07617   0.57564   0.00000  Uiso   1.00
H124   H     0.27074   0.94936   0.66508   0.00000  Uiso   1.00
H125   H     0.93774   0.05141   0.51328   0.00000  Uiso   1.00
H126   H     0.30683   0.21667   0.52510   0.00000  Uiso   1.00
H127   H     0.36003   0.82618   0.80117   0.00000  Uiso   1.00
H128   H     0.65789   0.04140   0.48109   0.00000  Uiso   1.00
H129   H     0.43618   0.38989   0.50601   0.00000  Uiso   1.00
O130   O     0.33736   0.80269   0.98700   0.00000  Uiso   1.00
O131   O     0.41619   0.08507   0.56706   0.00000  Uiso   1.00
O132   O     0.43728   0.54227   0.59976   0.00000  Uiso   1.00
N133   N     0.21154   0.93156   0.97525   0.00000  Uiso   1.00
N134   N     0.55508   0.13277   0.67601   0.00000  Uiso   1.00
N135   N     0.28269   0.45858   0.69930   0.00000  Uiso   1.00
N136   N     0.30595   0.86966   0.84411   0.00000  Uiso   1.00
N137   N     0.64950   0.07086   0.54487   0.00000  Uiso   1.00
N138   N     0.37710   0.39668   0.56815   0.00000  Uiso   1.00
C139   C     0.99180   0.67975   0.70492   0.00000  Uiso   1.00
C140   C     0.91267   0.59623   0.68731   0.00000  Uiso   1.00
C141   C     0.89875   0.56048   0.59946   0.00000  Uiso   1.00
C142   C     0.82229   0.48370   0.59833   0.00000  Uiso   1.00
C143   C     0.70865   0.36000   0.55825   0.00000  Uiso   1.00
C144   C     0.09360   0.65167   0.76978   0.00000  Uiso   1.00
C145   C     0.23180   0.66254   0.75127   0.00000  Uiso   1.00
C146   C     0.30764   0.63244   0.81957   0.00000  Uiso   1.00
C147   C     0.47489   0.59487   0.90755   0.00000  Uiso   1.00
C148   C     0.89306   0.74145   0.76335   0.00000  Uiso   1.00
C149   C     0.86266   0.82784   0.73945   0.00000  Uiso   1.00
C150   C     0.76969   0.87333   0.80235   0.00000  Uiso   1.00
C151   C     0.62557   0.97518   0.88036   0.00000  Uiso   1.00
C152   C     0.88078   0.60695   0.85914   0.00000  Uiso   1.00
C153   C     0.85237   0.55669   0.77108   0.00000  Uiso   1.00
C154   C     0.77591   0.47994   0.77009   0.00000  Uiso   1.00
C155   C     0.76187   0.44409   0.68225   0.00000  Uiso   1.00
C156   C     0.03331   0.61213   0.85355   0.00000  Uiso   1.00
C157   C     0.10896   0.58200   0.92190   0.00000  Uiso   1.00
C158   C     0.24723   0.59282   0.90349   0.00000  Uiso   1.00
C159   C     0.83276   0.70191   0.84712   0.00000  Uiso   1.00
C160   C     0.73982   0.74729   0.91008   0.00000  Uiso   1.00
C161   C     0.70928   0.83372   0.88627   0.00000  Uiso   1.00
H162   H     0.03876   0.71053   0.63970   0.00000  Uiso   1.00
H163   H     0.94544   0.59110   0.53464   0.00000  Uiso   1.00
H164   H     0.27844   0.69315   0.68644   0.00000  Uiso   1.00
H165   H     0.90935   0.85841   0.67462   0.00000  Uiso   1.00
H166   H     0.81543   0.44123   0.45511   0.00000  Uiso   1.00
H167   H     0.51756   0.65644   0.77519   0.00000  Uiso   1.00
H168   H     0.73927   0.00493   0.75027   0.00000  Uiso   1.00
H169   H     0.83383   0.57617   0.92436   0.00000  Uiso   1.00
H170   H     0.72926   0.44936   0.83492   0.00000  Uiso   1.00
H171   H     0.06226   0.55141   0.98672   0.00000  Uiso   1.00
H172   H     0.69317   0.71667   0.97490   0.00000  Uiso   1.00
H173   H     0.63997   0.32618   0.69883   0.00000  Uiso   1.00
H174   H     0.34211   0.54140   0.01891   0.00000  Uiso   1.00
H175   H     0.56382   0.88989   0.99399   0.00000  Uiso   1.00
O176   O     0.66264   0.30269   0.51300   0.00000  Uiso   1.00
O177   O     0.58381   0.58507   0.93294   0.00000  Uiso   1.00
O178   O     0.56272   0.04227   0.90024   0.00000  Uiso   1.00
N179   N     0.78846   0.43156   0.52475   0.00000  Uiso   1.00
N180   N     0.44492   0.63277   0.82399   0.00000  Uiso   1.00
N181   N     0.71731   0.95858   0.80070   0.00000  Uiso   1.00
N182   N     0.69405   0.36966   0.65589   0.00000  Uiso   1.00
N183   N     0.35050   0.57086   0.95513   0.00000  Uiso   1.00
N184   N     0.62290   0.89668   0.93185   0.00000  Uiso   1.00
