data_job_01753
_audit_creation_date              2018-12-19
_audit_creation_method            'Materials Studio'
_symmetry_space_group_name_H-M    'P1'
_symmetry_Int_Tables_number       1
_symmetry_cell_setting            triclinic
loop_
_symmetry_equiv_pos_as_xyz
  x,y,z
_cell_length_a                    18.3869
_cell_length_b                    12.3597
_cell_length_c                    12.4915
_cell_angle_alpha                 90.0000
_cell_angle_beta                  92.0554
_cell_angle_gamma                 90.0000
loop_
_atom_site_label
_atom_site_type_symbol
_atom_site_fract_x
_atom_site_fract_y
_atom_site_fract_z
_atom_site_U_iso_or_equiv
_atom_site_adp_type
_atom_site_occupancy
C1     C     0.30813   0.38045   0.01780   0.00000  Uiso   1.00
C2     C     0.30415   0.43767   0.90959   0.00000  Uiso   1.00
C3     C     0.30099   0.54875   0.89396   0.00000  Uiso   1.00
C4     C     0.29758   0.58512   0.78874   0.00000  Uiso   1.00
C5     C     0.29140   0.68495   0.63386   0.00000  Uiso   1.00
C6     C     0.24377   0.30261   0.01728   0.00000  Uiso   1.00
C7     C     0.18985   0.30014   0.09219   0.00000  Uiso   1.00
C8     C     0.13563   0.22280   0.07762   0.00000  Uiso   1.00
C9     C     0.03574   0.11290   0.08997   0.00000  Uiso   1.00
C10    C     0.37618   0.30995   0.01753   0.00000  Uiso   1.00
C11    C     0.43359   0.31362   0.09267   0.00000  Uiso   1.00
C12    C     0.49084   0.24244   0.07832   0.00000  Uiso   1.00
C13    C     0.59654   0.14393   0.09106   0.00000  Uiso   1.00
C14    C     0.30772   0.24749   0.85874   0.00000  Uiso   1.00
C15    C     0.30392   0.36544   0.82320   0.00000  Uiso   1.00
C16    C     0.30053   0.40165   0.71797   0.00000  Uiso   1.00
C17    C     0.29736   0.51277   0.70218   0.00000  Uiso   1.00
C18    C     0.24355   0.23039   0.93088   0.00000  Uiso   1.00
C19    C     0.18940   0.15303   0.91620   0.00000  Uiso   1.00
C20    C     0.13540   0.15045   0.99107   0.00000  Uiso   1.00
C21    C     0.37596   0.23773   0.93113   0.00000  Uiso   1.00
C22    C     0.43313   0.16652   0.91667   0.00000  Uiso   1.00
C23    C     0.49062   0.17009   0.99177   0.00000  Uiso   1.00
H24    H     0.30830   0.43667   0.08507   0.00000  Uiso   1.00
H25    H     0.30115   0.60462   0.96084   0.00000  Uiso   1.00
H26    H     0.19004   0.35603   0.15905   0.00000  Uiso   1.00
H27    H     0.43374   0.36952   0.15951   0.00000  Uiso   1.00
H28    H     0.29310   0.75897   0.78501   0.00000  Uiso   1.00
H29    H     0.05883   0.23478   0.20296   0.00000  Uiso   1.00
H30    H     0.57272   0.26322   0.20395   0.00000  Uiso   1.00
H31    H     0.30755   0.19126   0.79147   0.00000  Uiso   1.00
H32    H     0.30036   0.34574   0.65113   0.00000  Uiso   1.00
H33    H     0.18924   0.09715   0.84934   0.00000  Uiso   1.00
H34    H     0.43294   0.11064   0.84980   0.00000  Uiso   1.00
H35    H     0.29245   0.54886   0.53364   0.00000  Uiso   1.00
H36    H     0.05818   0.02467   0.95159   0.00000  Uiso   1.00
H37    H     0.57207   0.05311   0.95258   0.00000  Uiso   1.00
O38    O     0.28804   0.75997   0.57230   0.00000  Uiso   1.00
O39    O     0.98069   0.07224   0.12065   0.00000  Uiso   1.00
O40    O     0.65490   0.10956   0.12194   0.00000  Uiso   1.00
N41    N     0.29395   0.68832   0.74511   0.00000  Uiso   1.00
N42    N     0.07491   0.19825   0.13586   0.00000  Uiso   1.00
N43    N     0.55535   0.22482   0.13680   0.00000  Uiso   1.00
N44    N     0.29360   0.57526   0.60985   0.00000  Uiso   1.00
N45    N     0.07457   0.08519   0.00060   0.00000  Uiso   1.00
N46    N     0.55500   0.11176   0.00154   0.00000  Uiso   1.00
C47    C     0.69187   0.88045   0.48220   0.00000  Uiso   1.00
C48    C     0.69585   0.93767   0.59041   0.00000  Uiso   1.00
C49    C     0.69901   0.04875   0.60604   0.00000  Uiso   1.00
C50    C     0.70242   0.08512   0.71126   0.00000  Uiso   1.00
C51    C     0.70860   0.18495   0.86614   0.00000  Uiso   1.00
C52    C     0.75623   0.80261   0.48272   0.00000  Uiso   1.00
C53    C     0.81015   0.80014   0.40781   0.00000  Uiso   1.00
C54    C     0.86437   0.72280   0.42238   0.00000  Uiso   1.00
C55    C     0.96426   0.61290   0.41003   0.00000  Uiso   1.00
C56    C     0.62382   0.80995   0.48247   0.00000  Uiso   1.00
C57    C     0.56641   0.81362   0.40733   0.00000  Uiso   1.00
C58    C     0.50916   0.74244   0.42168   0.00000  Uiso   1.00
C59    C     0.40346   0.64393   0.40894   0.00000  Uiso   1.00
C60    C     0.69228   0.74749   0.64126   0.00000  Uiso   1.00
C61    C     0.69608   0.86544   0.67680   0.00000  Uiso   1.00
C62    C     0.69947   0.90165   0.78203   0.00000  Uiso   1.00
C63    C     0.70264   0.01277   0.79782   0.00000  Uiso   1.00
C64    C     0.75645   0.73039   0.56912   0.00000  Uiso   1.00
C65    C     0.81060   0.65303   0.58380   0.00000  Uiso   1.00
C66    C     0.86460   0.65045   0.50893   0.00000  Uiso   1.00
C67    C     0.62404   0.73773   0.56887   0.00000  Uiso   1.00
C68    C     0.56687   0.66652   0.58333   0.00000  Uiso   1.00
C69    C     0.50938   0.67009   0.50823   0.00000  Uiso   1.00
H70    H     0.69170   0.93667   0.41493   0.00000  Uiso   1.00
H71    H     0.69885   0.10462   0.53916   0.00000  Uiso   1.00
H72    H     0.80996   0.85603   0.34095   0.00000  Uiso   1.00
H73    H     0.56626   0.86952   0.34049   0.00000  Uiso   1.00
H74    H     0.70690   0.25897   0.71499   0.00000  Uiso   1.00
H75    H     0.94117   0.73478   0.29704   0.00000  Uiso   1.00
H76    H     0.42728   0.76322   0.29605   0.00000  Uiso   1.00
H77    H     0.69245   0.69126   0.70853   0.00000  Uiso   1.00
H78    H     0.69964   0.84574   0.84887   0.00000  Uiso   1.00
H79    H     0.81076   0.59715   0.65066   0.00000  Uiso   1.00
H80    H     0.56706   0.61064   0.65020   0.00000  Uiso   1.00
H81    H     0.70755   0.04886   0.96636   0.00000  Uiso   1.00
H82    H     0.94182   0.52467   0.54841   0.00000  Uiso   1.00
H83    H     0.42793   0.55311   0.54742   0.00000  Uiso   1.00
O84    O     0.71196   0.25997   0.92770   0.00000  Uiso   1.00
O85    O     0.01931   0.57224   0.37935   0.00000  Uiso   1.00
O86    O     0.34510   0.60956   0.37806   0.00000  Uiso   1.00
N87    N     0.70605   0.18832   0.75489   0.00000  Uiso   1.00
N88    N     0.92509   0.69825   0.36414   0.00000  Uiso   1.00
N89    N     0.44465   0.72482   0.36320   0.00000  Uiso   1.00
N90    N     0.70640   0.07526   0.89015   0.00000  Uiso   1.00
N91    N     0.92543   0.58519   0.49940   0.00000  Uiso   1.00
N92    N     0.44500   0.61176   0.49846   0.00000  Uiso   1.00
C93    C     0.69187   0.61955   0.98220   0.00000  Uiso   1.00
C94    C     0.69585   0.56233   0.09041   0.00000  Uiso   1.00
C95    C     0.69901   0.45125   0.10604   0.00000  Uiso   1.00
C96    C     0.70242   0.41488   0.21126   0.00000  Uiso   1.00
C97    C     0.70860   0.31505   0.36614   0.00000  Uiso   1.00
C98    C     0.75623   0.69739   0.98272   0.00000  Uiso   1.00
C99    C     0.81015   0.69986   0.90781   0.00000  Uiso   1.00
C100   C     0.86437   0.77720   0.92238   0.00000  Uiso   1.00
C101   C     0.96426   0.88710   0.91003   0.00000  Uiso   1.00
C102   C     0.62382   0.69005   0.98247   0.00000  Uiso   1.00
C103   C     0.56641   0.68638   0.90733   0.00000  Uiso   1.00
C104   C     0.50916   0.75756   0.92168   0.00000  Uiso   1.00
C105   C     0.40346   0.85607   0.90894   0.00000  Uiso   1.00
C106   C     0.69228   0.75251   0.14126   0.00000  Uiso   1.00
C107   C     0.69608   0.63456   0.17680   0.00000  Uiso   1.00
C108   C     0.69947   0.59835   0.28203   0.00000  Uiso   1.00
C109   C     0.70264   0.48723   0.29782   0.00000  Uiso   1.00
C110   C     0.75645   0.76961   0.06912   0.00000  Uiso   1.00
C111   C     0.81060   0.84697   0.08380   0.00000  Uiso   1.00
C112   C     0.86460   0.84955   0.00893   0.00000  Uiso   1.00
C113   C     0.62404   0.76227   0.06887   0.00000  Uiso   1.00
C114   C     0.56687   0.83348   0.08333   0.00000  Uiso   1.00
C115   C     0.50938   0.82991   0.00823   0.00000  Uiso   1.00
H116   H     0.69170   0.56333   0.91493   0.00000  Uiso   1.00
H117   H     0.69885   0.39538   0.03916   0.00000  Uiso   1.00
H118   H     0.80996   0.64397   0.84095   0.00000  Uiso   1.00
H119   H     0.56626   0.63048   0.84049   0.00000  Uiso   1.00
H120   H     0.70690   0.24103   0.21499   0.00000  Uiso   1.00
H121   H     0.94117   0.76522   0.79704   0.00000  Uiso   1.00
H122   H     0.42728   0.73678   0.79605   0.00000  Uiso   1.00
H123   H     0.69245   0.80874   0.20853   0.00000  Uiso   1.00
H124   H     0.69964   0.65426   0.34887   0.00000  Uiso   1.00
H125   H     0.81076   0.90285   0.15066   0.00000  Uiso   1.00
H126   H     0.56706   0.88936   0.15020   0.00000  Uiso   1.00
H127   H     0.70755   0.45114   0.46636   0.00000  Uiso   1.00
H128   H     0.94182   0.97533   0.04841   0.00000  Uiso   1.00
H129   H     0.42793   0.94689   0.04742   0.00000  Uiso   1.00
O130   O     0.71196   0.24003   0.42770   0.00000  Uiso   1.00
O131   O     0.01931   0.92776   0.87935   0.00000  Uiso   1.00
O132   O     0.34510   0.89044   0.87806   0.00000  Uiso   1.00
N133   N     0.70605   0.31168   0.25489   0.00000  Uiso   1.00
N134   N     0.92509   0.80175   0.86414   0.00000  Uiso   1.00
N135   N     0.44465   0.77518   0.86320   0.00000  Uiso   1.00
N136   N     0.70640   0.42474   0.39015   0.00000  Uiso   1.00
N137   N     0.92543   0.91481   0.99940   0.00000  Uiso   1.00
N138   N     0.44500   0.88824   0.99846   0.00000  Uiso   1.00
C139   C     0.30813   0.11955   0.51780   0.00000  Uiso   1.00
C140   C     0.30415   0.06233   0.40959   0.00000  Uiso   1.00
C141   C     0.30099   0.95125   0.39396   0.00000  Uiso   1.00
C142   C     0.29758   0.91488   0.28874   0.00000  Uiso   1.00
C143   C     0.29140   0.81505   0.13386   0.00000  Uiso   1.00
C144   C     0.24377   0.19739   0.51728   0.00000  Uiso   1.00
C145   C     0.18985   0.19986   0.59219   0.00000  Uiso   1.00
C146   C     0.13563   0.27720   0.57762   0.00000  Uiso   1.00
C147   C     0.03574   0.38710   0.58997   0.00000  Uiso   1.00
C148   C     0.37618   0.19005   0.51753   0.00000  Uiso   1.00
C149   C     0.43359   0.18638   0.59267   0.00000  Uiso   1.00
C150   C     0.49084   0.25756   0.57832   0.00000  Uiso   1.00
C151   C     0.59654   0.35607   0.59106   0.00000  Uiso   1.00
C152   C     0.30772   0.25251   0.35874   0.00000  Uiso   1.00
C153   C     0.30392   0.13456   0.32320   0.00000  Uiso   1.00
C154   C     0.30053   0.09835   0.21797   0.00000  Uiso   1.00
C155   C     0.29736   0.98723   0.20218   0.00000  Uiso   1.00
C156   C     0.24355   0.26961   0.43088   0.00000  Uiso   1.00
C157   C     0.18940   0.34697   0.41620   0.00000  Uiso   1.00
C158   C     0.13540   0.34955   0.49107   0.00000  Uiso   1.00
C159   C     0.37596   0.26227   0.43113   0.00000  Uiso   1.00
C160   C     0.43313   0.33348   0.41667   0.00000  Uiso   1.00
C161   C     0.49062   0.32991   0.49177   0.00000  Uiso   1.00
H162   H     0.30830   0.06333   0.58507   0.00000  Uiso   1.00
H163   H     0.30115   0.89538   0.46084   0.00000  Uiso   1.00
H164   H     0.19004   0.14397   0.65905   0.00000  Uiso   1.00
H165   H     0.43374   0.13048   0.65951   0.00000  Uiso   1.00
H166   H     0.29310   0.74103   0.28501   0.00000  Uiso   1.00
H167   H     0.05883   0.26522   0.70296   0.00000  Uiso   1.00
H168   H     0.57272   0.23678   0.70395   0.00000  Uiso   1.00
H169   H     0.30755   0.30874   0.29147   0.00000  Uiso   1.00
H170   H     0.30036   0.15426   0.15113   0.00000  Uiso   1.00
H171   H     0.18924   0.40285   0.34934   0.00000  Uiso   1.00
H172   H     0.43294   0.38936   0.34980   0.00000  Uiso   1.00
H173   H     0.29245   0.95114   0.03364   0.00000  Uiso   1.00
H174   H     0.05818   0.47533   0.45159   0.00000  Uiso   1.00
H175   H     0.57207   0.44689   0.45258   0.00000  Uiso   1.00
O176   O     0.28804   0.74003   0.07230   0.00000  Uiso   1.00
O177   O     0.98069   0.42776   0.62065   0.00000  Uiso   1.00
O178   O     0.65490   0.39044   0.62194   0.00000  Uiso   1.00
N179   N     0.29395   0.81168   0.24511   0.00000  Uiso   1.00
N180   N     0.07491   0.30175   0.63586   0.00000  Uiso   1.00
N181   N     0.55535   0.27518   0.63680   0.00000  Uiso   1.00
N182   N     0.29360   0.92474   0.10985   0.00000  Uiso   1.00
N183   N     0.07457   0.41481   0.50060   0.00000  Uiso   1.00
N184   N     0.55500   0.38824   0.50154   0.00000  Uiso   1.00
