data_job_01963
_audit_creation_date              2018-12-19
_audit_creation_method            'Materials Studio'
_symmetry_space_group_name_H-M    'P1'
_symmetry_Int_Tables_number       1
_symmetry_cell_setting            triclinic
loop_
_symmetry_equiv_pos_as_xyz
  x,y,z
_cell_length_a                    12.6292
_cell_length_b                    23.4004
_cell_length_c                    8.3838
_cell_angle_alpha                 90.0000
_cell_angle_beta                  90.0000
_cell_angle_gamma                 90.0000
loop_
_atom_site_label
_atom_site_type_symbol
_atom_site_fract_x
_atom_site_fract_y
_atom_site_fract_z
_atom_site_U_iso_or_equiv
_atom_site_adp_type
_atom_site_occupancy
C1     C     0.30765   0.90240   0.91016   0.00000  Uiso   1.00
C2     C     0.38785   0.90956   0.77565   0.00000  Uiso   1.00
C3     C     0.49707   0.90631   0.79134   0.00000  Uiso   1.00
C4     C     0.55675   0.91408   0.65397   0.00000  Uiso   1.00
C5     C     0.68856   0.92361   0.46759   0.00000  Uiso   1.00
C6     C     0.24092   0.95671   0.91033   0.00000  Uiso   1.00
C7     C     0.22660   0.99309   0.03927   0.00000  Uiso   1.00
C8     C     0.16258   0.04056   0.01526   0.00000  Uiso   1.00
C9     C     0.06622   0.12326   0.03801   0.00000  Uiso   1.00
C10    C     0.23372   0.85436   0.85819   0.00000  Uiso   1.00
C11    C     0.21332   0.80470   0.94331   0.00000  Uiso   1.00
C12    C     0.14322   0.76600   0.87542   0.00000  Uiso   1.00
C13    C     0.03569   0.68979   0.81721   0.00000  Uiso   1.00
C14    C     0.21940   0.92199   0.63829   0.00000  Uiso   1.00
C15    C     0.33991   0.92020   0.62799   0.00000  Uiso   1.00
C16    C     0.39944   0.92798   0.49054   0.00000  Uiso   1.00
C17    C     0.50873   0.92474   0.50603   0.00000  Uiso   1.00
C18    C     0.19299   0.96735   0.76267   0.00000  Uiso   1.00
C19    C     0.12896   0.01477   0.73847   0.00000  Uiso   1.00
C20    C     0.11456   0.05122   0.86733   0.00000  Uiso   1.00
C21    C     0.18579   0.86500   0.71052   0.00000  Uiso   1.00
C22    C     0.11570   0.82637   0.64250   0.00000  Uiso   1.00
C23    C     0.09520   0.77666   0.72748   0.00000  Uiso   1.00
H24    H     0.34497   0.89412   0.02513   0.00000  Uiso   1.00
H25    H     0.53414   0.89808   0.90565   0.00000  Uiso   1.00
H26    H     0.26369   0.98485   0.15353   0.00000  Uiso   1.00
H27    H     0.25043   0.79648   0.05758   0.00000  Uiso   1.00
H28    H     0.72273   0.90718   0.70806   0.00000  Uiso   1.00
H29    H     0.15246   0.09013   0.23076   0.00000  Uiso   1.00
H30    H     0.12449   0.69292   0.02842   0.00000  Uiso   1.00
H31    H     0.18208   0.93027   0.52332   0.00000  Uiso   1.00
H32    H     0.36232   0.93621   0.37628   0.00000  Uiso   1.00
H33    H     0.09188   0.02298   0.62418   0.00000  Uiso   1.00
H34    H     0.07862   0.83462   0.52822   0.00000  Uiso   1.00
H35    H     0.58328   0.93813   0.27842   0.00000  Uiso   1.00
H36    H     0.01300   0.12108   0.80112   0.00000  Uiso   1.00
H37    H     0.98504   0.72387   0.59877   0.00000  Uiso   1.00
O38    O     0.77450   0.92593   0.40558   0.00000  Uiso   1.00
O39    O     0.02632   0.16594   0.09135   0.00000  Uiso   1.00
O40    O     0.98963   0.64482   0.82589   0.00000  Uiso   1.00
N41    N     0.66517   0.91363   0.62712   0.00000  Uiso   1.00
N42    N     0.13202   0.08469   0.11580   0.00000  Uiso   1.00
N43    N     0.10585   0.71334   0.92665   0.00000  Uiso   1.00
N44    N     0.59013   0.93029   0.39593   0.00000  Uiso   1.00
N45    N     0.05698   0.10134   0.88461   0.00000  Uiso   1.00
N46    N     0.03081   0.73000   0.69546   0.00000  Uiso   1.00
C47    C     0.69235   0.09760   0.91016   0.00000  Uiso   1.00
C48    C     0.61215   0.09044   0.77565   0.00000  Uiso   1.00
C49    C     0.50293   0.09369   0.79134   0.00000  Uiso   1.00
C50    C     0.44325   0.08592   0.65397   0.00000  Uiso   1.00
C51    C     0.31144   0.07639   0.46759   0.00000  Uiso   1.00
C52    C     0.75908   0.04329   0.91033   0.00000  Uiso   1.00
C53    C     0.77340   0.00691   0.03927   0.00000  Uiso   1.00
C54    C     0.83742   0.95944   0.01526   0.00000  Uiso   1.00
C55    C     0.93378   0.87674   0.03801   0.00000  Uiso   1.00
C56    C     0.76628   0.14564   0.85819   0.00000  Uiso   1.00
C57    C     0.78668   0.19530   0.94331   0.00000  Uiso   1.00
C58    C     0.85678   0.23400   0.87542   0.00000  Uiso   1.00
C59    C     0.96431   0.31021   0.81721   0.00000  Uiso   1.00
C60    C     0.78060   0.07801   0.63829   0.00000  Uiso   1.00
C61    C     0.66009   0.07980   0.62799   0.00000  Uiso   1.00
C62    C     0.60056   0.07202   0.49054   0.00000  Uiso   1.00
C63    C     0.49127   0.07526   0.50603   0.00000  Uiso   1.00
C64    C     0.80701   0.03265   0.76267   0.00000  Uiso   1.00
C65    C     0.87104   0.98523   0.73847   0.00000  Uiso   1.00
C66    C     0.88544   0.94878   0.86733   0.00000  Uiso   1.00
C67    C     0.81421   0.13500   0.71052   0.00000  Uiso   1.00
C68    C     0.88430   0.17363   0.64250   0.00000  Uiso   1.00
C69    C     0.90480   0.22334   0.72748   0.00000  Uiso   1.00
H70    H     0.65503   0.10588   0.02513   0.00000  Uiso   1.00
H71    H     0.46586   0.10192   0.90565   0.00000  Uiso   1.00
H72    H     0.73631   0.01515   0.15353   0.00000  Uiso   1.00
H73    H     0.74957   0.20352   0.05758   0.00000  Uiso   1.00
H74    H     0.27727   0.09282   0.70806   0.00000  Uiso   1.00
H75    H     0.84754   0.90987   0.23076   0.00000  Uiso   1.00
H76    H     0.87551   0.30708   0.02842   0.00000  Uiso   1.00
H77    H     0.81792   0.06973   0.52332   0.00000  Uiso   1.00
H78    H     0.63768   0.06379   0.37628   0.00000  Uiso   1.00
H79    H     0.90812   0.97702   0.62418   0.00000  Uiso   1.00
H80    H     0.92138   0.16538   0.52822   0.00000  Uiso   1.00
H81    H     0.41672   0.06187   0.27842   0.00000  Uiso   1.00
H82    H     0.98700   0.87892   0.80112   0.00000  Uiso   1.00
H83    H     0.01496   0.27613   0.59877   0.00000  Uiso   1.00
O84    O     0.22550   0.07407   0.40558   0.00000  Uiso   1.00
O85    O     0.97368   0.83406   0.09135   0.00000  Uiso   1.00
O86    O     0.01037   0.35518   0.82589   0.00000  Uiso   1.00
N87    N     0.33483   0.08637   0.62712   0.00000  Uiso   1.00
N88    N     0.86798   0.91531   0.11580   0.00000  Uiso   1.00
N89    N     0.89415   0.28666   0.92665   0.00000  Uiso   1.00
N90    N     0.40987   0.06971   0.39593   0.00000  Uiso   1.00
N91    N     0.94302   0.89866   0.88461   0.00000  Uiso   1.00
N92    N     0.96919   0.27000   0.69546   0.00000  Uiso   1.00
C93    C     0.19235   0.40240   0.08984   0.00000  Uiso   1.00
C94    C     0.11215   0.40956   0.22435   0.00000  Uiso   1.00
C95    C     0.00293   0.40631   0.20866   0.00000  Uiso   1.00
C96    C     0.94325   0.41408   0.34603   0.00000  Uiso   1.00
C97    C     0.81144   0.42361   0.53241   0.00000  Uiso   1.00
C98    C     0.25908   0.45671   0.08967   0.00000  Uiso   1.00
C99    C     0.27340   0.49309   0.96073   0.00000  Uiso   1.00
C100   C     0.33742   0.54056   0.98474   0.00000  Uiso   1.00
C101   C     0.43378   0.62326   0.96199   0.00000  Uiso   1.00
C102   C     0.26628   0.35436   0.14181   0.00000  Uiso   1.00
C103   C     0.28668   0.30470   0.05669   0.00000  Uiso   1.00
C104   C     0.35678   0.26600   0.12458   0.00000  Uiso   1.00
C105   C     0.46431   0.18979   0.18279   0.00000  Uiso   1.00
C106   C     0.28060   0.42199   0.36171   0.00000  Uiso   1.00
C107   C     0.16009   0.42020   0.37201   0.00000  Uiso   1.00
C108   C     0.10056   0.42798   0.50946   0.00000  Uiso   1.00
C109   C     0.99127   0.42474   0.49397   0.00000  Uiso   1.00
C110   C     0.30701   0.46735   0.23733   0.00000  Uiso   1.00
C111   C     0.37104   0.51477   0.26153   0.00000  Uiso   1.00
C112   C     0.38544   0.55122   0.13267   0.00000  Uiso   1.00
C113   C     0.31421   0.36500   0.28948   0.00000  Uiso   1.00
C114   C     0.38430   0.32637   0.35750   0.00000  Uiso   1.00
C115   C     0.40480   0.27666   0.27252   0.00000  Uiso   1.00
H116   H     0.15503   0.39412   0.97487   0.00000  Uiso   1.00
H117   H     0.96586   0.39808   0.09435   0.00000  Uiso   1.00
H118   H     0.23631   0.48485   0.84647   0.00000  Uiso   1.00
H119   H     0.24957   0.29648   0.94242   0.00000  Uiso   1.00
H120   H     0.77727   0.40718   0.29194   0.00000  Uiso   1.00
H121   H     0.34754   0.59013   0.76924   0.00000  Uiso   1.00
H122   H     0.37551   0.19292   0.97158   0.00000  Uiso   1.00
H123   H     0.31792   0.43027   0.47668   0.00000  Uiso   1.00
H124   H     0.13768   0.43621   0.62372   0.00000  Uiso   1.00
H125   H     0.40812   0.52298   0.37582   0.00000  Uiso   1.00
H126   H     0.42138   0.33462   0.47178   0.00000  Uiso   1.00
H127   H     0.91672   0.43813   0.72158   0.00000  Uiso   1.00
H128   H     0.48700   0.62108   0.19888   0.00000  Uiso   1.00
H129   H     0.51496   0.22387   0.40123   0.00000  Uiso   1.00
O130   O     0.72550   0.42593   0.59442   0.00000  Uiso   1.00
O131   O     0.47368   0.66594   0.90865   0.00000  Uiso   1.00
O132   O     0.51037   0.14482   0.17411   0.00000  Uiso   1.00
N133   N     0.83483   0.41363   0.37288   0.00000  Uiso   1.00
N134   N     0.36798   0.58469   0.88420   0.00000  Uiso   1.00
N135   N     0.39415   0.21334   0.07335   0.00000  Uiso   1.00
N136   N     0.90987   0.43029   0.60407   0.00000  Uiso   1.00
N137   N     0.44302   0.60134   0.11539   0.00000  Uiso   1.00
N138   N     0.46919   0.23000   0.30454   0.00000  Uiso   1.00
C139   C     0.80765   0.59760   0.08984   0.00000  Uiso   1.00
C140   C     0.88785   0.59044   0.22435   0.00000  Uiso   1.00
C141   C     0.99707   0.59369   0.20866   0.00000  Uiso   1.00
C142   C     0.05675   0.58592   0.34603   0.00000  Uiso   1.00
C143   C     0.18856   0.57639   0.53241   0.00000  Uiso   1.00
C144   C     0.74092   0.54329   0.08967   0.00000  Uiso   1.00
C145   C     0.72660   0.50691   0.96073   0.00000  Uiso   1.00
C146   C     0.66258   0.45944   0.98474   0.00000  Uiso   1.00
C147   C     0.56622   0.37674   0.96199   0.00000  Uiso   1.00
C148   C     0.73372   0.64564   0.14181   0.00000  Uiso   1.00
C149   C     0.71332   0.69530   0.05669   0.00000  Uiso   1.00
C150   C     0.64322   0.73400   0.12458   0.00000  Uiso   1.00
C151   C     0.53569   0.81021   0.18279   0.00000  Uiso   1.00
C152   C     0.71940   0.57801   0.36171   0.00000  Uiso   1.00
C153   C     0.83991   0.57980   0.37201   0.00000  Uiso   1.00
C154   C     0.89944   0.57202   0.50946   0.00000  Uiso   1.00
C155   C     0.00873   0.57526   0.49397   0.00000  Uiso   1.00
C156   C     0.69299   0.53265   0.23733   0.00000  Uiso   1.00
C157   C     0.62896   0.48523   0.26153   0.00000  Uiso   1.00
C158   C     0.61456   0.44878   0.13267   0.00000  Uiso   1.00
C159   C     0.68579   0.63500   0.28948   0.00000  Uiso   1.00
C160   C     0.61570   0.67363   0.35750   0.00000  Uiso   1.00
C161   C     0.59520   0.72334   0.27252   0.00000  Uiso   1.00
H162   H     0.84497   0.60588   0.97487   0.00000  Uiso   1.00
H163   H     0.03414   0.60192   0.09435   0.00000  Uiso   1.00
H164   H     0.76369   0.51515   0.84647   0.00000  Uiso   1.00
H165   H     0.75043   0.70352   0.94242   0.00000  Uiso   1.00
H166   H     0.22273   0.59282   0.29194   0.00000  Uiso   1.00
H167   H     0.65246   0.40987   0.76924   0.00000  Uiso   1.00
H168   H     0.62449   0.80708   0.97158   0.00000  Uiso   1.00
H169   H     0.68208   0.56973   0.47668   0.00000  Uiso   1.00
H170   H     0.86232   0.56379   0.62372   0.00000  Uiso   1.00
H171   H     0.59188   0.47702   0.37582   0.00000  Uiso   1.00
H172   H     0.57862   0.66538   0.47178   0.00000  Uiso   1.00
H173   H     0.08328   0.56187   0.72158   0.00000  Uiso   1.00
H174   H     0.51300   0.37892   0.19888   0.00000  Uiso   1.00
H175   H     0.48504   0.77613   0.40123   0.00000  Uiso   1.00
O176   O     0.27450   0.57407   0.59442   0.00000  Uiso   1.00
O177   O     0.52632   0.33406   0.90865   0.00000  Uiso   1.00
O178   O     0.48963   0.85518   0.17411   0.00000  Uiso   1.00
N179   N     0.16517   0.58637   0.37288   0.00000  Uiso   1.00
N180   N     0.63202   0.41531   0.88420   0.00000  Uiso   1.00
N181   N     0.60585   0.78666   0.07335   0.00000  Uiso   1.00
N182   N     0.09013   0.56971   0.60407   0.00000  Uiso   1.00
N183   N     0.55698   0.39866   0.11539   0.00000  Uiso   1.00
N184   N     0.53081   0.77000   0.30454   0.00000  Uiso   1.00
