data_job_03489
_audit_creation_date              2018-12-19
_audit_creation_method            'Materials Studio'
_symmetry_space_group_name_H-M    'P1'
_symmetry_Int_Tables_number       1
_symmetry_cell_setting            triclinic
loop_
_symmetry_equiv_pos_as_xyz
  x,y,z
_cell_length_a                    19.9654
_cell_length_b                    19.9654
_cell_length_c                    15.0584
_cell_angle_alpha                 90.0000
_cell_angle_beta                  90.0000
_cell_angle_gamma                 90.0000
loop_
_atom_site_label
_atom_site_type_symbol
_atom_site_fract_x
_atom_site_fract_y
_atom_site_fract_z
_atom_site_U_iso_or_equiv
_atom_site_adp_type
_atom_site_occupancy
C1     C     0.31950   0.78443   0.86846   0.00000  Uiso   1.00
C2     C     0.27028   0.76835   0.79402   0.00000  Uiso   1.00
C3     C     0.20404   0.74902   0.80513   0.00000  Uiso   1.00
C4     C     0.16727   0.73655   0.72864   0.00000  Uiso   1.00
C5     C     0.08652   0.71054   0.62590   0.00000  Uiso   1.00
C6     C     0.37936   0.73816   0.85452   0.00000  Uiso   1.00
C7     C     0.40483   0.69347   0.91651   0.00000  Uiso   1.00
C8     C     0.45988   0.65560   0.89095   0.00000  Uiso   1.00
C9     C     0.54850   0.58276   0.88217   0.00000  Uiso   1.00
C10    C     0.34484   0.85516   0.85022   0.00000  Uiso   1.00
C11    C     0.34130   0.90883   0.90860   0.00000  Uiso   1.00
C12    C     0.36730   0.96946   0.87943   0.00000  Uiso   1.00
C13    C     0.40232   0.07827   0.86398   0.00000  Uiso   1.00
C14    C     0.37199   0.79666   0.71287   0.00000  Uiso   1.00
C15    C     0.29880   0.77499   0.70950   0.00000  Uiso   1.00
C16    C     0.26211   0.76255   0.63298   0.00000  Uiso   1.00
C17    C     0.19583   0.74321   0.64397   0.00000  Uiso   1.00
C18    C     0.40787   0.74481   0.77001   0.00000  Uiso   1.00
C19    C     0.46290   0.70700   0.74436   0.00000  Uiso   1.00
C20    C     0.48844   0.66226   0.80628   0.00000  Uiso   1.00
C21    C     0.37334   0.86180   0.76571   0.00000  Uiso   1.00
C22    C     0.39937   0.92236   0.73645   0.00000  Uiso   1.00
C23    C     0.39587   0.97611   0.79477   0.00000  Uiso   1.00
H24    H     0.29731   0.77925   0.93426   0.00000  Uiso   1.00
H25    H     0.18200   0.74388   0.87054   0.00000  Uiso   1.00
H26    H     0.38276   0.68834   0.98191   0.00000  Uiso   1.00
H27    H     0.31923   0.90367   0.97400   0.00000  Uiso   1.00
H28    H     0.06674   0.70756   0.76263   0.00000  Uiso   1.00
H29    H     0.49006   0.59048   0.99745   0.00000  Uiso   1.00
H30    H     0.35611   0.04453   0.98078   0.00000  Uiso   1.00
H31    H     0.39419   0.80183   0.64707   0.00000  Uiso   1.00
H32    H     0.28419   0.76770   0.56758   0.00000  Uiso   1.00
H33    H     0.48495   0.71216   0.67895   0.00000  Uiso   1.00
H34    H     0.42142   0.92748   0.67104   0.00000  Uiso   1.00
H35    H     0.14968   0.72689   0.51674   0.00000  Uiso   1.00
H36    H     0.57300   0.60981   0.75157   0.00000  Uiso   1.00
H37    H     0.43905   0.06386   0.73489   0.00000  Uiso   1.00
O38    O     0.03411   0.69434   0.59258   0.00000  Uiso   1.00
O39    O     0.58949   0.54074   0.90067   0.00000  Uiso   1.00
O40    O     0.41376   0.13645   0.87879   0.00000  Uiso   1.00
N41    N     0.10135   0.71681   0.71566   0.00000  Uiso   1.00
N42    N     0.49712   0.60733   0.93521   0.00000  Uiso   1.00
N43    N     0.37191   0.03183   0.91963   0.00000  Uiso   1.00
N44    N     0.14598   0.72721   0.58335   0.00000  Uiso   1.00
N45    N     0.54175   0.61774   0.80290   0.00000  Uiso   1.00
N46    N     0.41654   0.04224   0.78732   0.00000  Uiso   1.00
C47    C     0.68050   0.21557   0.86846   0.00000  Uiso   1.00
C48    C     0.72972   0.23165   0.79402   0.00000  Uiso   1.00
C49    C     0.79596   0.25098   0.80513   0.00000  Uiso   1.00
C50    C     0.83273   0.26345   0.72864   0.00000  Uiso   1.00
C51    C     0.91348   0.28946   0.62590   0.00000  Uiso   1.00
C52    C     0.62064   0.26184   0.85452   0.00000  Uiso   1.00
C53    C     0.59517   0.30653   0.91651   0.00000  Uiso   1.00
C54    C     0.54012   0.34440   0.89095   0.00000  Uiso   1.00
C55    C     0.45150   0.41724   0.88217   0.00000  Uiso   1.00
C56    C     0.65516   0.14484   0.85022   0.00000  Uiso   1.00
C57    C     0.65870   0.09117   0.90860   0.00000  Uiso   1.00
C58    C     0.63270   0.03054   0.87943   0.00000  Uiso   1.00
C59    C     0.59768   0.92173   0.86398   0.00000  Uiso   1.00
C60    C     0.62801   0.20334   0.71287   0.00000  Uiso   1.00
C61    C     0.70120   0.22501   0.70950   0.00000  Uiso   1.00
C62    C     0.73789   0.23745   0.63298   0.00000  Uiso   1.00
C63    C     0.80417   0.25679   0.64397   0.00000  Uiso   1.00
C64    C     0.59213   0.25519   0.77001   0.00000  Uiso   1.00
C65    C     0.53710   0.29300   0.74436   0.00000  Uiso   1.00
C66    C     0.51156   0.33774   0.80628   0.00000  Uiso   1.00
C67    C     0.62666   0.13820   0.76571   0.00000  Uiso   1.00
C68    C     0.60063   0.07764   0.73645   0.00000  Uiso   1.00
C69    C     0.60413   0.02389   0.79477   0.00000  Uiso   1.00
H70    H     0.70269   0.22075   0.93426   0.00000  Uiso   1.00
H71    H     0.81800   0.25612   0.87054   0.00000  Uiso   1.00
H72    H     0.61724   0.31166   0.98191   0.00000  Uiso   1.00
H73    H     0.68077   0.09633   0.97400   0.00000  Uiso   1.00
H74    H     0.93326   0.29244   0.76263   0.00000  Uiso   1.00
H75    H     0.50994   0.40952   0.99745   0.00000  Uiso   1.00
H76    H     0.64389   0.95547   0.98078   0.00000  Uiso   1.00
H77    H     0.60581   0.19817   0.64707   0.00000  Uiso   1.00
H78    H     0.71581   0.23230   0.56758   0.00000  Uiso   1.00
H79    H     0.51505   0.28784   0.67895   0.00000  Uiso   1.00
H80    H     0.57858   0.07252   0.67104   0.00000  Uiso   1.00
H81    H     0.85032   0.27311   0.51674   0.00000  Uiso   1.00
H82    H     0.42700   0.39019   0.75157   0.00000  Uiso   1.00
H83    H     0.56095   0.93614   0.73489   0.00000  Uiso   1.00
O84    O     0.96589   0.30566   0.59258   0.00000  Uiso   1.00
O85    O     0.41051   0.45926   0.90067   0.00000  Uiso   1.00
O86    O     0.58624   0.86355   0.87879   0.00000  Uiso   1.00
N87    N     0.89865   0.28319   0.71566   0.00000  Uiso   1.00
N88    N     0.50288   0.39267   0.93521   0.00000  Uiso   1.00
N89    N     0.62809   0.96817   0.91963   0.00000  Uiso   1.00
N90    N     0.85402   0.27279   0.58335   0.00000  Uiso   1.00
N91    N     0.45825   0.38226   0.80290   0.00000  Uiso   1.00
N92    N     0.58346   0.95776   0.78732   0.00000  Uiso   1.00
C93    C     0.78443   0.68050   0.13154   0.00000  Uiso   1.00
C94    C     0.76835   0.72972   0.20598   0.00000  Uiso   1.00
C95    C     0.74902   0.79596   0.19487   0.00000  Uiso   1.00
C96    C     0.73655   0.83273   0.27136   0.00000  Uiso   1.00
C97    C     0.71054   0.91348   0.37410   0.00000  Uiso   1.00
C98    C     0.73816   0.62064   0.14548   0.00000  Uiso   1.00
C99    C     0.69347   0.59517   0.08349   0.00000  Uiso   1.00
C100   C     0.65560   0.54012   0.10905   0.00000  Uiso   1.00
C101   C     0.58276   0.45150   0.11783   0.00000  Uiso   1.00
C102   C     0.85516   0.65516   0.14978   0.00000  Uiso   1.00
C103   C     0.90883   0.65870   0.09140   0.00000  Uiso   1.00
C104   C     0.96946   0.63270   0.12057   0.00000  Uiso   1.00
C105   C     0.07827   0.59768   0.13602   0.00000  Uiso   1.00
C106   C     0.79666   0.62801   0.28713   0.00000  Uiso   1.00
C107   C     0.77499   0.70120   0.29050   0.00000  Uiso   1.00
C108   C     0.76255   0.73789   0.36702   0.00000  Uiso   1.00
C109   C     0.74321   0.80417   0.35603   0.00000  Uiso   1.00
C110   C     0.74481   0.59213   0.22999   0.00000  Uiso   1.00
C111   C     0.70700   0.53710   0.25564   0.00000  Uiso   1.00
C112   C     0.66226   0.51156   0.19372   0.00000  Uiso   1.00
C113   C     0.86180   0.62666   0.23429   0.00000  Uiso   1.00
C114   C     0.92236   0.60063   0.26355   0.00000  Uiso   1.00
C115   C     0.97611   0.60413   0.20523   0.00000  Uiso   1.00
H116   H     0.77925   0.70269   0.06574   0.00000  Uiso   1.00
H117   H     0.74388   0.81800   0.12946   0.00000  Uiso   1.00
H118   H     0.68834   0.61724   0.01809   0.00000  Uiso   1.00
H119   H     0.90367   0.68077   0.02600   0.00000  Uiso   1.00
H120   H     0.70756   0.93326   0.23737   0.00000  Uiso   1.00
H121   H     0.59048   0.50994   0.00255   0.00000  Uiso   1.00
H122   H     0.04453   0.64389   0.01922   0.00000  Uiso   1.00
H123   H     0.80183   0.60581   0.35293   0.00000  Uiso   1.00
H124   H     0.76770   0.71581   0.43242   0.00000  Uiso   1.00
H125   H     0.71216   0.51505   0.32105   0.00000  Uiso   1.00
H126   H     0.92748   0.57858   0.32896   0.00000  Uiso   1.00
H127   H     0.72689   0.85032   0.48326   0.00000  Uiso   1.00
H128   H     0.60981   0.42700   0.24843   0.00000  Uiso   1.00
H129   H     0.06386   0.56095   0.26511   0.00000  Uiso   1.00
O130   O     0.69434   0.96589   0.40742   0.00000  Uiso   1.00
O131   O     0.54074   0.41051   0.09933   0.00000  Uiso   1.00
O132   O     0.13645   0.58624   0.12121   0.00000  Uiso   1.00
N133   N     0.71681   0.89865   0.28434   0.00000  Uiso   1.00
N134   N     0.60733   0.50288   0.06479   0.00000  Uiso   1.00
N135   N     0.03183   0.62809   0.08037   0.00000  Uiso   1.00
N136   N     0.72721   0.85402   0.41665   0.00000  Uiso   1.00
N137   N     0.61774   0.45825   0.19710   0.00000  Uiso   1.00
N138   N     0.04224   0.58346   0.21268   0.00000  Uiso   1.00
C139   C     0.21557   0.31950   0.13154   0.00000  Uiso   1.00
C140   C     0.23165   0.27028   0.20598   0.00000  Uiso   1.00
C141   C     0.25098   0.20404   0.19487   0.00000  Uiso   1.00
C142   C     0.26345   0.16727   0.27136   0.00000  Uiso   1.00
C143   C     0.28946   0.08652   0.37410   0.00000  Uiso   1.00
C144   C     0.26184   0.37936   0.14548   0.00000  Uiso   1.00
C145   C     0.30653   0.40483   0.08349   0.00000  Uiso   1.00
C146   C     0.34440   0.45988   0.10905   0.00000  Uiso   1.00
C147   C     0.41724   0.54850   0.11783   0.00000  Uiso   1.00
C148   C     0.14484   0.34484   0.14978   0.00000  Uiso   1.00
C149   C     0.09117   0.34130   0.09140   0.00000  Uiso   1.00
C150   C     0.03054   0.36730   0.12057   0.00000  Uiso   1.00
C151   C     0.92173   0.40232   0.13602   0.00000  Uiso   1.00
C152   C     0.20334   0.37199   0.28713   0.00000  Uiso   1.00
C153   C     0.22501   0.29880   0.29050   0.00000  Uiso   1.00
C154   C     0.23745   0.26211   0.36702   0.00000  Uiso   1.00
C155   C     0.25679   0.19583   0.35603   0.00000  Uiso   1.00
C156   C     0.25519   0.40787   0.22999   0.00000  Uiso   1.00
C157   C     0.29300   0.46290   0.25564   0.00000  Uiso   1.00
C158   C     0.33774   0.48844   0.19372   0.00000  Uiso   1.00
C159   C     0.13820   0.37334   0.23429   0.00000  Uiso   1.00
C160   C     0.07764   0.39937   0.26355   0.00000  Uiso   1.00
C161   C     0.02389   0.39587   0.20523   0.00000  Uiso   1.00
H162   H     0.22075   0.29731   0.06574   0.00000  Uiso   1.00
H163   H     0.25612   0.18200   0.12946   0.00000  Uiso   1.00
H164   H     0.31166   0.38276   0.01809   0.00000  Uiso   1.00
H165   H     0.09633   0.31923   0.02600   0.00000  Uiso   1.00
H166   H     0.29244   0.06674   0.23737   0.00000  Uiso   1.00
H167   H     0.40952   0.49006   0.00255   0.00000  Uiso   1.00
H168   H     0.95547   0.35611   0.01922   0.00000  Uiso   1.00
H169   H     0.19817   0.39419   0.35293   0.00000  Uiso   1.00
H170   H     0.23230   0.28419   0.43242   0.00000  Uiso   1.00
H171   H     0.28784   0.48495   0.32105   0.00000  Uiso   1.00
H172   H     0.07252   0.42142   0.32896   0.00000  Uiso   1.00
H173   H     0.27311   0.14968   0.48326   0.00000  Uiso   1.00
H174   H     0.39019   0.57300   0.24843   0.00000  Uiso   1.00
H175   H     0.93614   0.43905   0.26511   0.00000  Uiso   1.00
O176   O     0.30566   0.03411   0.40742   0.00000  Uiso   1.00
O177   O     0.45926   0.58949   0.09933   0.00000  Uiso   1.00
O178   O     0.86355   0.41376   0.12121   0.00000  Uiso   1.00
N179   N     0.28319   0.10135   0.28434   0.00000  Uiso   1.00
N180   N     0.39267   0.49712   0.06479   0.00000  Uiso   1.00
N181   N     0.96817   0.37191   0.08037   0.00000  Uiso   1.00
N182   N     0.27279   0.14598   0.41665   0.00000  Uiso   1.00
N183   N     0.38226   0.54175   0.19710   0.00000  Uiso   1.00
N184   N     0.95776   0.41654   0.21268   0.00000  Uiso   1.00
C185   C     0.81950   0.71557   0.86846   0.00000  Uiso   1.00
C186   C     0.77028   0.73165   0.79402   0.00000  Uiso   1.00
C187   C     0.70404   0.75098   0.80513   0.00000  Uiso   1.00
C188   C     0.66727   0.76345   0.72864   0.00000  Uiso   1.00
C189   C     0.58652   0.78946   0.62590   0.00000  Uiso   1.00
C190   C     0.87936   0.76184   0.85452   0.00000  Uiso   1.00
C191   C     0.90483   0.80653   0.91651   0.00000  Uiso   1.00
C192   C     0.95988   0.84440   0.89095   0.00000  Uiso   1.00
C193   C     0.04850   0.91724   0.88217   0.00000  Uiso   1.00
C194   C     0.84484   0.64484   0.85022   0.00000  Uiso   1.00
C195   C     0.84130   0.59117   0.90860   0.00000  Uiso   1.00
C196   C     0.86730   0.53054   0.87943   0.00000  Uiso   1.00
C197   C     0.90232   0.42173   0.86398   0.00000  Uiso   1.00
C198   C     0.87199   0.70334   0.71287   0.00000  Uiso   1.00
C199   C     0.79880   0.72501   0.70950   0.00000  Uiso   1.00
C200   C     0.76211   0.73745   0.63298   0.00000  Uiso   1.00
C201   C     0.69583   0.75679   0.64397   0.00000  Uiso   1.00
C202   C     0.90787   0.75519   0.77001   0.00000  Uiso   1.00
C203   C     0.96290   0.79300   0.74436   0.00000  Uiso   1.00
C204   C     0.98844   0.83774   0.80628   0.00000  Uiso   1.00
C205   C     0.87334   0.63820   0.76571   0.00000  Uiso   1.00
C206   C     0.89937   0.57764   0.73645   0.00000  Uiso   1.00
C207   C     0.89587   0.52389   0.79477   0.00000  Uiso   1.00
H208   H     0.79731   0.72075   0.93426   0.00000  Uiso   1.00
H209   H     0.68200   0.75612   0.87054   0.00000  Uiso   1.00
H210   H     0.88276   0.81166   0.98191   0.00000  Uiso   1.00
H211   H     0.81923   0.59633   0.97400   0.00000  Uiso   1.00
H212   H     0.56674   0.79244   0.76263   0.00000  Uiso   1.00
H213   H     0.99006   0.90952   0.99745   0.00000  Uiso   1.00
H214   H     0.85611   0.45547   0.98078   0.00000  Uiso   1.00
H215   H     0.89419   0.69817   0.64707   0.00000  Uiso   1.00
H216   H     0.78419   0.73230   0.56758   0.00000  Uiso   1.00
H217   H     0.98495   0.78784   0.67895   0.00000  Uiso   1.00
H218   H     0.92142   0.57252   0.67104   0.00000  Uiso   1.00
H219   H     0.64968   0.77311   0.51674   0.00000  Uiso   1.00
H220   H     0.07300   0.89019   0.75157   0.00000  Uiso   1.00
H221   H     0.93905   0.43614   0.73489   0.00000  Uiso   1.00
O222   O     0.53411   0.80566   0.59258   0.00000  Uiso   1.00
O223   O     0.08949   0.95926   0.90067   0.00000  Uiso   1.00
O224   O     0.91376   0.36355   0.87879   0.00000  Uiso   1.00
N225   N     0.60135   0.78319   0.71566   0.00000  Uiso   1.00
N226   N     0.99712   0.89267   0.93521   0.00000  Uiso   1.00
N227   N     0.87191   0.46817   0.91963   0.00000  Uiso   1.00
N228   N     0.64598   0.77279   0.58335   0.00000  Uiso   1.00
N229   N     0.04175   0.88226   0.80290   0.00000  Uiso   1.00
N230   N     0.91654   0.45776   0.78732   0.00000  Uiso   1.00
C231   C     0.18050   0.28443   0.86846   0.00000  Uiso   1.00
C232   C     0.22972   0.26835   0.79402   0.00000  Uiso   1.00
C233   C     0.29596   0.24902   0.80513   0.00000  Uiso   1.00
C234   C     0.33273   0.23655   0.72864   0.00000  Uiso   1.00
C235   C     0.41348   0.21054   0.62590   0.00000  Uiso   1.00
C236   C     0.12064   0.23816   0.85452   0.00000  Uiso   1.00
C237   C     0.09517   0.19347   0.91651   0.00000  Uiso   1.00
C238   C     0.04012   0.15560   0.89095   0.00000  Uiso   1.00
C239   C     0.95150   0.08276   0.88217   0.00000  Uiso   1.00
C240   C     0.15516   0.35516   0.85022   0.00000  Uiso   1.00
C241   C     0.15870   0.40883   0.90860   0.00000  Uiso   1.00
C242   C     0.13270   0.46946   0.87943   0.00000  Uiso   1.00
C243   C     0.09768   0.57827   0.86398   0.00000  Uiso   1.00
C244   C     0.12801   0.29666   0.71287   0.00000  Uiso   1.00
C245   C     0.20120   0.27499   0.70950   0.00000  Uiso   1.00
C246   C     0.23789   0.26255   0.63298   0.00000  Uiso   1.00
C247   C     0.30417   0.24321   0.64397   0.00000  Uiso   1.00
C248   C     0.09213   0.24481   0.77001   0.00000  Uiso   1.00
C249   C     0.03710   0.20700   0.74436   0.00000  Uiso   1.00
C250   C     0.01156   0.16226   0.80628   0.00000  Uiso   1.00
C251   C     0.12666   0.36180   0.76571   0.00000  Uiso   1.00
C252   C     0.10063   0.42236   0.73645   0.00000  Uiso   1.00
C253   C     0.10413   0.47611   0.79477   0.00000  Uiso   1.00
H254   H     0.20269   0.27925   0.93426   0.00000  Uiso   1.00
H255   H     0.31800   0.24388   0.87054   0.00000  Uiso   1.00
H256   H     0.11724   0.18834   0.98191   0.00000  Uiso   1.00
H257   H     0.18077   0.40367   0.97400   0.00000  Uiso   1.00
H258   H     0.43326   0.20756   0.76263   0.00000  Uiso   1.00
H259   H     0.00994   0.09048   0.99745   0.00000  Uiso   1.00
H260   H     0.14389   0.54453   0.98078   0.00000  Uiso   1.00
H261   H     0.10581   0.30183   0.64707   0.00000  Uiso   1.00
H262   H     0.21581   0.26770   0.56758   0.00000  Uiso   1.00
H263   H     0.01505   0.21216   0.67895   0.00000  Uiso   1.00
H264   H     0.07858   0.42748   0.67104   0.00000  Uiso   1.00
H265   H     0.35032   0.22689   0.51674   0.00000  Uiso   1.00
H266   H     0.92700   0.10981   0.75157   0.00000  Uiso   1.00
H267   H     0.06095   0.56386   0.73489   0.00000  Uiso   1.00
O268   O     0.46589   0.19434   0.59258   0.00000  Uiso   1.00
O269   O     0.91051   0.04074   0.90067   0.00000  Uiso   1.00
O270   O     0.08624   0.63645   0.87879   0.00000  Uiso   1.00
N271   N     0.39865   0.21681   0.71566   0.00000  Uiso   1.00
N272   N     0.00288   0.10733   0.93521   0.00000  Uiso   1.00
N273   N     0.12809   0.53183   0.91963   0.00000  Uiso   1.00
N274   N     0.35402   0.22721   0.58335   0.00000  Uiso   1.00
N275   N     0.95825   0.11774   0.80290   0.00000  Uiso   1.00
N276   N     0.08346   0.54224   0.78732   0.00000  Uiso   1.00
C277   C     0.28443   0.81950   0.13154   0.00000  Uiso   1.00
C278   C     0.26835   0.77028   0.20598   0.00000  Uiso   1.00
C279   C     0.24902   0.70404   0.19487   0.00000  Uiso   1.00
C280   C     0.23655   0.66727   0.27136   0.00000  Uiso   1.00
C281   C     0.21054   0.58652   0.37410   0.00000  Uiso   1.00
C282   C     0.23816   0.87936   0.14548   0.00000  Uiso   1.00
C283   C     0.19347   0.90483   0.08349   0.00000  Uiso   1.00
C284   C     0.15560   0.95988   0.10905   0.00000  Uiso   1.00
C285   C     0.08276   0.04850   0.11783   0.00000  Uiso   1.00
C286   C     0.35516   0.84484   0.14978   0.00000  Uiso   1.00
C287   C     0.40883   0.84130   0.09140   0.00000  Uiso   1.00
C288   C     0.46946   0.86730   0.12057   0.00000  Uiso   1.00
C289   C     0.57827   0.90232   0.13602   0.00000  Uiso   1.00
C290   C     0.29666   0.87199   0.28713   0.00000  Uiso   1.00
C291   C     0.27499   0.79880   0.29050   0.00000  Uiso   1.00
C292   C     0.26255   0.76211   0.36702   0.00000  Uiso   1.00
C293   C     0.24321   0.69583   0.35603   0.00000  Uiso   1.00
C294   C     0.24481   0.90787   0.22999   0.00000  Uiso   1.00
C295   C     0.20700   0.96290   0.25564   0.00000  Uiso   1.00
C296   C     0.16226   0.98844   0.19372   0.00000  Uiso   1.00
C297   C     0.36180   0.87334   0.23429   0.00000  Uiso   1.00
C298   C     0.42236   0.89937   0.26355   0.00000  Uiso   1.00
C299   C     0.47611   0.89587   0.20523   0.00000  Uiso   1.00
H300   H     0.27925   0.79731   0.06574   0.00000  Uiso   1.00
H301   H     0.24388   0.68200   0.12946   0.00000  Uiso   1.00
H302   H     0.18834   0.88276   0.01809   0.00000  Uiso   1.00
H303   H     0.40367   0.81923   0.02600   0.00000  Uiso   1.00
H304   H     0.20756   0.56674   0.23737   0.00000  Uiso   1.00
H305   H     0.09048   0.99006   0.00255   0.00000  Uiso   1.00
H306   H     0.54453   0.85611   0.01922   0.00000  Uiso   1.00
H307   H     0.30183   0.89419   0.35293   0.00000  Uiso   1.00
H308   H     0.26770   0.78419   0.43242   0.00000  Uiso   1.00
H309   H     0.21216   0.98495   0.32105   0.00000  Uiso   1.00
H310   H     0.42748   0.92142   0.32896   0.00000  Uiso   1.00
H311   H     0.22689   0.64968   0.48326   0.00000  Uiso   1.00
H312   H     0.10981   0.07300   0.24843   0.00000  Uiso   1.00
H313   H     0.56386   0.93905   0.26511   0.00000  Uiso   1.00
O314   O     0.19434   0.53411   0.40742   0.00000  Uiso   1.00
O315   O     0.04074   0.08949   0.09933   0.00000  Uiso   1.00
O316   O     0.63645   0.91376   0.12121   0.00000  Uiso   1.00
N317   N     0.21681   0.60135   0.28434   0.00000  Uiso   1.00
N318   N     0.10733   0.99712   0.06479   0.00000  Uiso   1.00
N319   N     0.53183   0.87191   0.08037   0.00000  Uiso   1.00
N320   N     0.22721   0.64598   0.41665   0.00000  Uiso   1.00
N321   N     0.11774   0.04175   0.19710   0.00000  Uiso   1.00
N322   N     0.54224   0.91654   0.21268   0.00000  Uiso   1.00
C323   C     0.71557   0.18050   0.13154   0.00000  Uiso   1.00
C324   C     0.73165   0.22972   0.20598   0.00000  Uiso   1.00
C325   C     0.75098   0.29596   0.19487   0.00000  Uiso   1.00
C326   C     0.76345   0.33273   0.27136   0.00000  Uiso   1.00
C327   C     0.78946   0.41348   0.37410   0.00000  Uiso   1.00
C328   C     0.76184   0.12064   0.14548   0.00000  Uiso   1.00
C329   C     0.80653   0.09517   0.08349   0.00000  Uiso   1.00
C330   C     0.84440   0.04012   0.10905   0.00000  Uiso   1.00
C331   C     0.91724   0.95150   0.11783   0.00000  Uiso   1.00
C332   C     0.64484   0.15516   0.14978   0.00000  Uiso   1.00
C333   C     0.59117   0.15870   0.09140   0.00000  Uiso   1.00
C334   C     0.53054   0.13270   0.12057   0.00000  Uiso   1.00
C335   C     0.42173   0.09768   0.13602   0.00000  Uiso   1.00
C336   C     0.70334   0.12801   0.28713   0.00000  Uiso   1.00
C337   C     0.72501   0.20120   0.29050   0.00000  Uiso   1.00
C338   C     0.73745   0.23789   0.36702   0.00000  Uiso   1.00
C339   C     0.75679   0.30417   0.35603   0.00000  Uiso   1.00
C340   C     0.75519   0.09213   0.22999   0.00000  Uiso   1.00
C341   C     0.79300   0.03710   0.25564   0.00000  Uiso   1.00
C342   C     0.83774   0.01156   0.19372   0.00000  Uiso   1.00
C343   C     0.63820   0.12666   0.23429   0.00000  Uiso   1.00
C344   C     0.57764   0.10063   0.26355   0.00000  Uiso   1.00
C345   C     0.52389   0.10413   0.20523   0.00000  Uiso   1.00
H346   H     0.72075   0.20269   0.06574   0.00000  Uiso   1.00
H347   H     0.75612   0.31800   0.12946   0.00000  Uiso   1.00
H348   H     0.81166   0.11724   0.01809   0.00000  Uiso   1.00
H349   H     0.59633   0.18077   0.02600   0.00000  Uiso   1.00
H350   H     0.79244   0.43326   0.23737   0.00000  Uiso   1.00
H351   H     0.90952   0.00994   0.00255   0.00000  Uiso   1.00
H352   H     0.45547   0.14389   0.01922   0.00000  Uiso   1.00
H353   H     0.69817   0.10581   0.35293   0.00000  Uiso   1.00
H354   H     0.73230   0.21581   0.43242   0.00000  Uiso   1.00
H355   H     0.78784   0.01505   0.32105   0.00000  Uiso   1.00
H356   H     0.57252   0.07858   0.32896   0.00000  Uiso   1.00
H357   H     0.77311   0.35032   0.48326   0.00000  Uiso   1.00
H358   H     0.89019   0.92700   0.24843   0.00000  Uiso   1.00
H359   H     0.43614   0.06095   0.26511   0.00000  Uiso   1.00
O360   O     0.80566   0.46589   0.40742   0.00000  Uiso   1.00
O361   O     0.95926   0.91051   0.09933   0.00000  Uiso   1.00
O362   O     0.36355   0.08624   0.12121   0.00000  Uiso   1.00
N363   N     0.78319   0.39865   0.28434   0.00000  Uiso   1.00
N364   N     0.89267   0.00288   0.06479   0.00000  Uiso   1.00
N365   N     0.46817   0.12809   0.08037   0.00000  Uiso   1.00
N366   N     0.77279   0.35402   0.41665   0.00000  Uiso   1.00
N367   N     0.88226   0.95825   0.19710   0.00000  Uiso   1.00
N368   N     0.45776   0.08346   0.21268   0.00000  Uiso   1.00
