data_job_04614
_audit_creation_date              2018-12-19
_audit_creation_method            'Materials Studio'
_symmetry_space_group_name_H-M    'P1'
_symmetry_Int_Tables_number       1
_symmetry_cell_setting            triclinic
loop_
_symmetry_equiv_pos_as_xyz
  x,y,z
_cell_length_a                    23.3707
_cell_length_b                    23.3707
_cell_length_c                    7.4944
_cell_angle_alpha                 90.0000
_cell_angle_beta                  90.0000
_cell_angle_gamma                 120.0000
loop_
_atom_site_label
_atom_site_type_symbol
_atom_site_fract_x
_atom_site_fract_y
_atom_site_fract_z
_atom_site_U_iso_or_equiv
_atom_site_adp_type
_atom_site_occupancy
C1     C     0.63742   0.78398   0.25419   0.00000  Uiso   1.00
C2     C     0.62845   0.71981   0.33277   0.00000  Uiso   1.00
C3     C     0.62090   0.66585   0.23589   0.00000  Uiso   1.00
C4     C     0.61333   0.61182   0.33260   0.00000  Uiso   1.00
C5     C     0.59936   0.51217   0.42619   0.00000  Uiso   1.00
C6     C     0.58222   0.79294   0.33276   0.00000  Uiso   1.00
C7     C     0.53581   0.80049   0.23586   0.00000  Uiso   1.00
C8     C     0.48933   0.80804   0.33256   0.00000  Uiso   1.00
C9     C     0.40363   0.82198   0.42613   0.00000  Uiso   1.00
C10    C     0.70158   0.83917   0.33279   0.00000  Uiso   1.00
C11    C     0.75553   0.88561   0.23593   0.00000  Uiso   1.00
C12    C     0.80954   0.93209   0.33267   0.00000  Uiso   1.00
C13    C     0.90916   0.01781   0.42629   0.00000  Uiso   1.00
C14    C     0.63740   0.78397   0.59822   0.00000  Uiso   1.00
C15    C     0.62843   0.71980   0.51964   0.00000  Uiso   1.00
C16    C     0.62088   0.66584   0.61652   0.00000  Uiso   1.00
C17    C     0.61332   0.61182   0.51980   0.00000  Uiso   1.00
C18    C     0.58221   0.79294   0.51962   0.00000  Uiso   1.00
C19    C     0.53579   0.80048   0.61649   0.00000  Uiso   1.00
C20    C     0.48932   0.80803   0.51976   0.00000  Uiso   1.00
C21    C     0.70157   0.83917   0.51966   0.00000  Uiso   1.00
C22    C     0.75551   0.88560   0.61656   0.00000  Uiso   1.00
C23    C     0.80953   0.93209   0.51987   0.00000  Uiso   1.00
H24    H     0.63742   0.78398   0.10871   0.00000  Uiso   1.00
H25    H     0.62090   0.66587   0.09128   0.00000  Uiso   1.00
H26    H     0.53583   0.80050   0.09125   0.00000  Uiso   1.00
H27    H     0.75552   0.88559   0.09133   0.00000  Uiso   1.00
H28    H     0.60255   0.53491   0.15436   0.00000  Uiso   1.00
H29    H     0.42320   0.81880   0.15430   0.00000  Uiso   1.00
H30    H     0.88644   0.99825   0.15446   0.00000  Uiso   1.00
H31    H     0.63740   0.78397   0.74371   0.00000  Uiso   1.00
H32    H     0.62087   0.66586   0.76113   0.00000  Uiso   1.00
H33    H     0.53580   0.80048   0.76109   0.00000  Uiso   1.00
H34    H     0.75549   0.88558   0.76117   0.00000  Uiso   1.00
H35    H     0.60253   0.53490   0.69803   0.00000  Uiso   1.00
H36    H     0.42317   0.81879   0.69797   0.00000  Uiso   1.00
H37    H     0.88642   0.99824   0.69813   0.00000  Uiso   1.00
O38    O     0.59165   0.45720   0.42620   0.00000  Uiso   1.00
O39    O     0.35635   0.82966   0.42612   0.00000  Uiso   1.00
O40    O     0.96412   0.06509   0.42632   0.00000  Uiso   1.00
N41    N     0.60483   0.55112   0.27993   0.00000  Uiso   1.00
N42    N     0.43713   0.81653   0.27987   0.00000  Uiso   1.00
N43    N     0.87022   0.98431   0.28001   0.00000  Uiso   1.00
N44    N     0.60481   0.55112   0.57247   0.00000  Uiso   1.00
N45    N     0.43712   0.81653   0.57241   0.00000  Uiso   1.00
N46    N     0.87021   0.98431   0.57256   0.00000  Uiso   1.00
C47    C     0.21602   0.85344   0.25419   0.00000  Uiso   1.00
C48    C     0.28019   0.90864   0.33277   0.00000  Uiso   1.00
C49    C     0.33415   0.95505   0.23589   0.00000  Uiso   1.00
C50    C     0.38818   0.00151   0.33260   0.00000  Uiso   1.00
C51    C     0.48783   0.08719   0.42619   0.00000  Uiso   1.00
C52    C     0.20706   0.78928   0.33276   0.00000  Uiso   1.00
C53    C     0.19951   0.73532   0.23586   0.00000  Uiso   1.00
C54    C     0.19196   0.68130   0.33256   0.00000  Uiso   1.00
C55    C     0.17802   0.58165   0.42613   0.00000  Uiso   1.00
C56    C     0.16083   0.86241   0.33279   0.00000  Uiso   1.00
C57    C     0.11439   0.86992   0.23593   0.00000  Uiso   1.00
C58    C     0.06791   0.87745   0.33267   0.00000  Uiso   1.00
C59    C     0.98219   0.89135   0.42629   0.00000  Uiso   1.00
C60    C     0.21603   0.85343   0.59822   0.00000  Uiso   1.00
C61    C     0.28020   0.90863   0.51964   0.00000  Uiso   1.00
C62    C     0.33416   0.95504   0.61652   0.00000  Uiso   1.00
C63    C     0.38818   0.00150   0.51980   0.00000  Uiso   1.00
C64    C     0.20706   0.78927   0.51962   0.00000  Uiso   1.00
C65    C     0.19952   0.73531   0.61649   0.00000  Uiso   1.00
C66    C     0.19197   0.68129   0.51976   0.00000  Uiso   1.00
C67    C     0.16083   0.86240   0.51966   0.00000  Uiso   1.00
C68    C     0.11440   0.86991   0.61656   0.00000  Uiso   1.00
C69    C     0.06791   0.87744   0.51987   0.00000  Uiso   1.00
H70    H     0.21602   0.85344   0.10871   0.00000  Uiso   1.00
H71    H     0.33413   0.95503   0.09128   0.00000  Uiso   1.00
H72    H     0.19950   0.73534   0.09125   0.00000  Uiso   1.00
H73    H     0.11441   0.86992   0.09133   0.00000  Uiso   1.00
H74    H     0.46509   0.06764   0.15436   0.00000  Uiso   1.00
H75    H     0.18120   0.60440   0.15430   0.00000  Uiso   1.00
H76    H     0.00175   0.88819   0.15446   0.00000  Uiso   1.00
H77    H     0.21603   0.85343   0.74371   0.00000  Uiso   1.00
H78    H     0.33414   0.95502   0.76113   0.00000  Uiso   1.00
H79    H     0.19952   0.73532   0.76109   0.00000  Uiso   1.00
H80    H     0.11442   0.86991   0.76117   0.00000  Uiso   1.00
H81    H     0.46510   0.06763   0.69803   0.00000  Uiso   1.00
H82    H     0.18121   0.60438   0.69797   0.00000  Uiso   1.00
H83    H     0.00176   0.88818   0.69813   0.00000  Uiso   1.00
O84    O     0.54280   0.13445   0.42620   0.00000  Uiso   1.00
O85    O     0.17034   0.52669   0.42612   0.00000  Uiso   1.00
O86    O     0.93491   0.89903   0.42632   0.00000  Uiso   1.00
N87    N     0.44888   0.05370   0.27993   0.00000  Uiso   1.00
N88    N     0.18347   0.62060   0.27987   0.00000  Uiso   1.00
N89    N     0.01569   0.88591   0.28001   0.00000  Uiso   1.00
N90    N     0.44888   0.05370   0.57247   0.00000  Uiso   1.00
N91    N     0.18347   0.62059   0.57241   0.00000  Uiso   1.00
N92    N     0.01569   0.88590   0.57256   0.00000  Uiso   1.00
C93    C     0.14656   0.36258   0.25419   0.00000  Uiso   1.00
C94    C     0.09136   0.37155   0.33277   0.00000  Uiso   1.00
C95    C     0.04495   0.37910   0.23589   0.00000  Uiso   1.00
C96    C     0.99849   0.38667   0.33260   0.00000  Uiso   1.00
C97    C     0.91281   0.40064   0.42619   0.00000  Uiso   1.00
C98    C     0.21072   0.41778   0.33276   0.00000  Uiso   1.00
C99    C     0.26468   0.46419   0.23586   0.00000  Uiso   1.00
C100   C     0.31870   0.51067   0.33256   0.00000  Uiso   1.00
C101   C     0.41835   0.59637   0.42613   0.00000  Uiso   1.00
C102   C     0.13759   0.29842   0.33279   0.00000  Uiso   1.00
C103   C     0.13008   0.24447   0.23593   0.00000  Uiso   1.00
C104   C     0.12255   0.19046   0.33267   0.00000  Uiso   1.00
C105   C     0.10865   0.09084   0.42629   0.00000  Uiso   1.00
C106   C     0.14657   0.36260   0.59822   0.00000  Uiso   1.00
C107   C     0.09137   0.37157   0.51964   0.00000  Uiso   1.00
C108   C     0.04496   0.37912   0.61652   0.00000  Uiso   1.00
C109   C     0.99850   0.38668   0.51980   0.00000  Uiso   1.00
C110   C     0.21073   0.41779   0.51962   0.00000  Uiso   1.00
C111   C     0.26469   0.46421   0.61649   0.00000  Uiso   1.00
C112   C     0.31871   0.51068   0.51976   0.00000  Uiso   1.00
C113   C     0.13760   0.29843   0.51966   0.00000  Uiso   1.00
C114   C     0.13009   0.24449   0.61656   0.00000  Uiso   1.00
C115   C     0.12256   0.19047   0.51987   0.00000  Uiso   1.00
H116   H     0.14656   0.36258   0.10871   0.00000  Uiso   1.00
H117   H     0.04497   0.37910   0.09128   0.00000  Uiso   1.00
H118   H     0.26466   0.46417   0.09125   0.00000  Uiso   1.00
H119   H     0.13008   0.24448   0.09133   0.00000  Uiso   1.00
H120   H     0.93236   0.39745   0.15436   0.00000  Uiso   1.00
H121   H     0.39560   0.57680   0.15430   0.00000  Uiso   1.00
H122   H     0.11181   0.11356   0.15446   0.00000  Uiso   1.00
H123   H     0.14657   0.36260   0.74371   0.00000  Uiso   1.00
H124   H     0.04498   0.37913   0.76113   0.00000  Uiso   1.00
H125   H     0.26468   0.46420   0.76109   0.00000  Uiso   1.00
H126   H     0.13009   0.24451   0.76117   0.00000  Uiso   1.00
H127   H     0.93237   0.39747   0.69803   0.00000  Uiso   1.00
H128   H     0.39562   0.57683   0.69797   0.00000  Uiso   1.00
H129   H     0.11182   0.11358   0.69813   0.00000  Uiso   1.00
O130   O     0.86555   0.40835   0.42620   0.00000  Uiso   1.00
O131   O     0.47331   0.64365   0.42612   0.00000  Uiso   1.00
O132   O     0.10097   0.03588   0.42632   0.00000  Uiso   1.00
N133   N     0.94630   0.39517   0.27993   0.00000  Uiso   1.00
N134   N     0.37940   0.56287   0.27987   0.00000  Uiso   1.00
N135   N     0.11409   0.12978   0.28001   0.00000  Uiso   1.00
N136   N     0.94630   0.39519   0.57247   0.00000  Uiso   1.00
N137   N     0.37941   0.56288   0.57241   0.00000  Uiso   1.00
N138   N     0.11410   0.12979   0.57256   0.00000  Uiso   1.00
C139   C     0.36258   0.21602   0.75419   0.00000  Uiso   1.00
C140   C     0.37155   0.28019   0.83277   0.00000  Uiso   1.00
C141   C     0.37910   0.33415   0.73589   0.00000  Uiso   1.00
C142   C     0.38667   0.38818   0.83260   0.00000  Uiso   1.00
C143   C     0.40064   0.48783   0.92619   0.00000  Uiso   1.00
C144   C     0.41778   0.20706   0.83276   0.00000  Uiso   1.00
C145   C     0.46419   0.19951   0.73586   0.00000  Uiso   1.00
C146   C     0.51067   0.19196   0.83256   0.00000  Uiso   1.00
C147   C     0.59637   0.17802   0.92613   0.00000  Uiso   1.00
C148   C     0.29842   0.16083   0.83279   0.00000  Uiso   1.00
C149   C     0.24447   0.11439   0.73593   0.00000  Uiso   1.00
C150   C     0.19046   0.06791   0.83267   0.00000  Uiso   1.00
C151   C     0.09084   0.98219   0.92629   0.00000  Uiso   1.00
C152   C     0.36260   0.21603   0.09822   0.00000  Uiso   1.00
C153   C     0.37157   0.28020   0.01964   0.00000  Uiso   1.00
C154   C     0.37912   0.33416   0.11652   0.00000  Uiso   1.00
C155   C     0.38668   0.38818   0.01980   0.00000  Uiso   1.00
C156   C     0.41779   0.20706   0.01962   0.00000  Uiso   1.00
C157   C     0.46421   0.19952   0.11649   0.00000  Uiso   1.00
C158   C     0.51068   0.19197   0.01976   0.00000  Uiso   1.00
C159   C     0.29843   0.16083   0.01966   0.00000  Uiso   1.00
C160   C     0.24449   0.11440   0.11656   0.00000  Uiso   1.00
C161   C     0.19047   0.06791   0.01987   0.00000  Uiso   1.00
H162   H     0.36258   0.21602   0.60871   0.00000  Uiso   1.00
H163   H     0.37910   0.33413   0.59128   0.00000  Uiso   1.00
H164   H     0.46417   0.19950   0.59125   0.00000  Uiso   1.00
H165   H     0.24448   0.11441   0.59133   0.00000  Uiso   1.00
H166   H     0.39745   0.46509   0.65436   0.00000  Uiso   1.00
H167   H     0.57680   0.18120   0.65430   0.00000  Uiso   1.00
H168   H     0.11356   0.00175   0.65446   0.00000  Uiso   1.00
H169   H     0.36260   0.21603   0.24371   0.00000  Uiso   1.00
H170   H     0.37913   0.33414   0.26113   0.00000  Uiso   1.00
H171   H     0.46420   0.19952   0.26109   0.00000  Uiso   1.00
H172   H     0.24451   0.11442   0.26117   0.00000  Uiso   1.00
H173   H     0.39747   0.46510   0.19803   0.00000  Uiso   1.00
H174   H     0.57683   0.18121   0.19797   0.00000  Uiso   1.00
H175   H     0.11358   0.00176   0.19813   0.00000  Uiso   1.00
O176   O     0.40835   0.54280   0.92620   0.00000  Uiso   1.00
O177   O     0.64365   0.17034   0.92612   0.00000  Uiso   1.00
O178   O     0.03588   0.93491   0.92632   0.00000  Uiso   1.00
N179   N     0.39517   0.44888   0.77993   0.00000  Uiso   1.00
N180   N     0.56287   0.18347   0.77987   0.00000  Uiso   1.00
N181   N     0.12978   0.01569   0.78001   0.00000  Uiso   1.00
N182   N     0.39519   0.44888   0.07247   0.00000  Uiso   1.00
N183   N     0.56288   0.18347   0.07241   0.00000  Uiso   1.00
N184   N     0.12979   0.01569   0.07256   0.00000  Uiso   1.00
C185   C     0.78398   0.14656   0.75419   0.00000  Uiso   1.00
C186   C     0.71981   0.09136   0.83277   0.00000  Uiso   1.00
C187   C     0.66585   0.04495   0.73589   0.00000  Uiso   1.00
C188   C     0.61182   0.99849   0.83260   0.00000  Uiso   1.00
C189   C     0.51217   0.91281   0.92619   0.00000  Uiso   1.00
C190   C     0.79294   0.21072   0.83276   0.00000  Uiso   1.00
C191   C     0.80049   0.26468   0.73586   0.00000  Uiso   1.00
C192   C     0.80804   0.31870   0.83256   0.00000  Uiso   1.00
C193   C     0.82198   0.41835   0.92613   0.00000  Uiso   1.00
C194   C     0.83917   0.13759   0.83279   0.00000  Uiso   1.00
C195   C     0.88561   0.13008   0.73593   0.00000  Uiso   1.00
C196   C     0.93209   0.12255   0.83267   0.00000  Uiso   1.00
C197   C     0.01781   0.10865   0.92629   0.00000  Uiso   1.00
C198   C     0.78397   0.14657   0.09822   0.00000  Uiso   1.00
C199   C     0.71980   0.09137   0.01964   0.00000  Uiso   1.00
C200   C     0.66584   0.04496   0.11652   0.00000  Uiso   1.00
C201   C     0.61182   0.99850   0.01980   0.00000  Uiso   1.00
C202   C     0.79294   0.21073   0.01962   0.00000  Uiso   1.00
C203   C     0.80048   0.26469   0.11649   0.00000  Uiso   1.00
C204   C     0.80803   0.31871   0.01976   0.00000  Uiso   1.00
C205   C     0.83917   0.13760   0.01966   0.00000  Uiso   1.00
C206   C     0.88560   0.13009   0.11656   0.00000  Uiso   1.00
C207   C     0.93209   0.12256   0.01987   0.00000  Uiso   1.00
H208   H     0.78398   0.14656   0.60871   0.00000  Uiso   1.00
H209   H     0.66587   0.04497   0.59128   0.00000  Uiso   1.00
H210   H     0.80050   0.26466   0.59125   0.00000  Uiso   1.00
H211   H     0.88559   0.13008   0.59133   0.00000  Uiso   1.00
H212   H     0.53491   0.93236   0.65436   0.00000  Uiso   1.00
H213   H     0.81880   0.39560   0.65430   0.00000  Uiso   1.00
H214   H     0.99825   0.11181   0.65446   0.00000  Uiso   1.00
H215   H     0.78397   0.14657   0.24371   0.00000  Uiso   1.00
H216   H     0.66586   0.04498   0.26113   0.00000  Uiso   1.00
H217   H     0.80048   0.26468   0.26109   0.00000  Uiso   1.00
H218   H     0.88558   0.13009   0.26117   0.00000  Uiso   1.00
H219   H     0.53490   0.93237   0.19803   0.00000  Uiso   1.00
H220   H     0.81879   0.39562   0.19797   0.00000  Uiso   1.00
H221   H     0.99824   0.11182   0.19813   0.00000  Uiso   1.00
O222   O     0.45720   0.86555   0.92620   0.00000  Uiso   1.00
O223   O     0.82966   0.47331   0.92612   0.00000  Uiso   1.00
O224   O     0.06509   0.10097   0.92632   0.00000  Uiso   1.00
N225   N     0.55112   0.94630   0.77993   0.00000  Uiso   1.00
N226   N     0.81653   0.37940   0.77987   0.00000  Uiso   1.00
N227   N     0.98431   0.11409   0.78001   0.00000  Uiso   1.00
N228   N     0.55112   0.94630   0.07247   0.00000  Uiso   1.00
N229   N     0.81653   0.37941   0.07241   0.00000  Uiso   1.00
N230   N     0.98431   0.11410   0.07256   0.00000  Uiso   1.00
C231   C     0.85344   0.63742   0.75419   0.00000  Uiso   1.00
C232   C     0.90864   0.62845   0.83277   0.00000  Uiso   1.00
C233   C     0.95505   0.62090   0.73589   0.00000  Uiso   1.00
C234   C     0.00151   0.61333   0.83260   0.00000  Uiso   1.00
C235   C     0.08719   0.59936   0.92619   0.00000  Uiso   1.00
C236   C     0.78928   0.58222   0.83276   0.00000  Uiso   1.00
C237   C     0.73532   0.53581   0.73586   0.00000  Uiso   1.00
C238   C     0.68130   0.48933   0.83256   0.00000  Uiso   1.00
C239   C     0.58165   0.40363   0.92613   0.00000  Uiso   1.00
C240   C     0.86241   0.70158   0.83279   0.00000  Uiso   1.00
C241   C     0.86992   0.75553   0.73593   0.00000  Uiso   1.00
C242   C     0.87745   0.80954   0.83267   0.00000  Uiso   1.00
C243   C     0.89135   0.90916   0.92629   0.00000  Uiso   1.00
C244   C     0.85343   0.63740   0.09822   0.00000  Uiso   1.00
C245   C     0.90863   0.62843   0.01964   0.00000  Uiso   1.00
C246   C     0.95504   0.62088   0.11652   0.00000  Uiso   1.00
C247   C     0.00150   0.61332   0.01980   0.00000  Uiso   1.00
C248   C     0.78927   0.58221   0.01962   0.00000  Uiso   1.00
C249   C     0.73531   0.53579   0.11649   0.00000  Uiso   1.00
C250   C     0.68129   0.48932   0.01976   0.00000  Uiso   1.00
C251   C     0.86240   0.70157   0.01966   0.00000  Uiso   1.00
C252   C     0.86991   0.75551   0.11656   0.00000  Uiso   1.00
C253   C     0.87744   0.80953   0.01987   0.00000  Uiso   1.00
H254   H     0.85344   0.63742   0.60871   0.00000  Uiso   1.00
H255   H     0.95503   0.62090   0.59128   0.00000  Uiso   1.00
H256   H     0.73534   0.53583   0.59125   0.00000  Uiso   1.00
H257   H     0.86992   0.75552   0.59133   0.00000  Uiso   1.00
H258   H     0.06764   0.60255   0.65436   0.00000  Uiso   1.00
H259   H     0.60440   0.42320   0.65430   0.00000  Uiso   1.00
H260   H     0.88819   0.88644   0.65446   0.00000  Uiso   1.00
H261   H     0.85343   0.63740   0.24371   0.00000  Uiso   1.00
H262   H     0.95502   0.62087   0.26113   0.00000  Uiso   1.00
H263   H     0.73532   0.53580   0.26109   0.00000  Uiso   1.00
H264   H     0.86991   0.75549   0.26117   0.00000  Uiso   1.00
H265   H     0.06763   0.60253   0.19803   0.00000  Uiso   1.00
H266   H     0.60438   0.42317   0.19797   0.00000  Uiso   1.00
H267   H     0.88818   0.88642   0.19813   0.00000  Uiso   1.00
O268   O     0.13445   0.59165   0.92620   0.00000  Uiso   1.00
O269   O     0.52669   0.35635   0.92612   0.00000  Uiso   1.00
O270   O     0.89903   0.96412   0.92632   0.00000  Uiso   1.00
N271   N     0.05370   0.60483   0.77993   0.00000  Uiso   1.00
N272   N     0.62060   0.43713   0.77987   0.00000  Uiso   1.00
N273   N     0.88591   0.87022   0.78001   0.00000  Uiso   1.00
N274   N     0.05370   0.60481   0.07247   0.00000  Uiso   1.00
N275   N     0.62059   0.43712   0.07241   0.00000  Uiso   1.00
N276   N     0.88590   0.87021   0.07256   0.00000  Uiso   1.00
