data_job_03522
_audit_creation_date              2018-12-19
_audit_creation_method            'Materials Studio'
_symmetry_space_group_name_H-M    'P1'
_symmetry_Int_Tables_number       1
_symmetry_cell_setting            triclinic
loop_
_symmetry_equiv_pos_as_xyz
  x,y,z
_cell_length_a                    10.2044
_cell_length_b                    13.5682
_cell_length_c                    16.4034
_cell_angle_alpha                 90.0000
_cell_angle_beta                  90.0000
_cell_angle_gamma                 90.0000
loop_
_atom_site_label
_atom_site_type_symbol
_atom_site_fract_x
_atom_site_fract_y
_atom_site_fract_z
_atom_site_U_iso_or_equiv
_atom_site_adp_type
_atom_site_occupancy
C1     C     0.70688   0.93569   0.72850   0.00000  Uiso   1.00
C2     C     0.67100   0.90231   0.81442   0.00000  Uiso   1.00
C3     C     0.56600   0.93669   0.86005   0.00000  Uiso   1.00
C4     C     0.54983   0.89690   0.93738   0.00000  Uiso   1.00
C5     C     0.48110   0.85600   0.06616   0.00000  Uiso   1.00
C6     C     0.84819   0.97183   0.73316   0.00000  Uiso   1.00
C7     C     0.89216   0.06465   0.71046   0.00000  Uiso   1.00
C8     C     0.02515   0.08337   0.71938   0.00000  Uiso   1.00
C9     C     0.23152   0.15037   0.72195   0.00000  Uiso   1.00
C10    C     0.70976   0.84261   0.67643   0.00000  Uiso   1.00
C11    C     0.63736   0.82679   0.60602   0.00000  Uiso   1.00
C12    C     0.65384   0.73673   0.56716   0.00000  Uiso   1.00
C13    C     0.64527   0.60310   0.48165   0.00000  Uiso   1.00
C14    C     0.86490   0.80388   0.78469   0.00000  Uiso   1.00
C15    C     0.75683   0.83072   0.84494   0.00000  Uiso   1.00
C16    C     0.74082   0.79086   0.92222   0.00000  Uiso   1.00
C17    C     0.63581   0.82517   0.96795   0.00000  Uiso   1.00
C18    C     0.93402   0.90024   0.76368   0.00000  Uiso   1.00
C19    C     0.06698   0.91882   0.77263   0.00000  Uiso   1.00
C20    C     0.11114   0.01165   0.74995   0.00000  Uiso   1.00
C21    C     0.79558   0.77102   0.70695   0.00000  Uiso   1.00
C22    C     0.81218   0.68097   0.66819   0.00000  Uiso   1.00
C23    C     0.73982   0.66501   0.59773   0.00000  Uiso   1.00
H24    H     0.64007   0.99143   0.70474   0.00000  Uiso   1.00
H25    H     0.49960   0.99210   0.83641   0.00000  Uiso   1.00
H26    H     0.82572   0.12003   0.68684   0.00000  Uiso   1.00
H27    H     0.57096   0.88221   0.58242   0.00000  Uiso   1.00
H28    H     0.38175   0.96130   0.99586   0.00000  Uiso   1.00
H29    H     0.06938   0.23104   0.68045   0.00000  Uiso   1.00
H30    H     0.53217   0.72955   0.46026   0.00000  Uiso   1.00
H31    H     0.93172   0.74815   0.80845   0.00000  Uiso   1.00
H32    H     0.80725   0.73546   0.94582   0.00000  Uiso   1.00
H33    H     0.13337   0.86340   0.79624   0.00000  Uiso   1.00
H34    H     0.87861   0.62558   0.69182   0.00000  Uiso   1.00
H35    H     0.63145   0.75301   0.08466   0.00000  Uiso   1.00
H36    H     0.31909   0.02275   0.76925   0.00000  Uiso   1.00
H37    H     0.78187   0.52126   0.54906   0.00000  Uiso   1.00
O38    O     0.41949   0.85322   0.12877   0.00000  Uiso   1.00
O39    O     0.32163   0.20711   0.71494   0.00000  Uiso   1.00
O40    O     0.61682   0.54917   0.42606   0.00000  Uiso   1.00
N41    N     0.45758   0.91400   0.99790   0.00000  Uiso   1.00
N42    N     0.10047   0.16620   0.70303   0.00000  Uiso   1.00
N43    N     0.59825   0.69736   0.49715   0.00000  Uiso   1.00
N44    N     0.59195   0.80192   0.04569   0.00000  Uiso   1.00
N45    N     0.23484   0.05412   0.75081   0.00000  Uiso   1.00
N46    N     0.73262   0.58528   0.54493   0.00000  Uiso   1.00
C47    C     0.29312   0.06431   0.22850   0.00000  Uiso   1.00
C48    C     0.32900   0.09769   0.31442   0.00000  Uiso   1.00
C49    C     0.43400   0.06331   0.36005   0.00000  Uiso   1.00
C50    C     0.45017   0.10310   0.43738   0.00000  Uiso   1.00
C51    C     0.51890   0.14400   0.56616   0.00000  Uiso   1.00
C52    C     0.15181   0.02817   0.23316   0.00000  Uiso   1.00
C53    C     0.10784   0.93535   0.21046   0.00000  Uiso   1.00
C54    C     0.97485   0.91663   0.21938   0.00000  Uiso   1.00
C55    C     0.76848   0.84963   0.22195   0.00000  Uiso   1.00
C56    C     0.29024   0.15739   0.17643   0.00000  Uiso   1.00
C57    C     0.36264   0.17321   0.10602   0.00000  Uiso   1.00
C58    C     0.34616   0.26327   0.06716   0.00000  Uiso   1.00
C59    C     0.35473   0.39690   0.98165   0.00000  Uiso   1.00
C60    C     0.13510   0.19612   0.28469   0.00000  Uiso   1.00
C61    C     0.24317   0.16928   0.34494   0.00000  Uiso   1.00
C62    C     0.25918   0.20914   0.42222   0.00000  Uiso   1.00
C63    C     0.36419   0.17483   0.46795   0.00000  Uiso   1.00
C64    C     0.06598   0.09976   0.26368   0.00000  Uiso   1.00
C65    C     0.93302   0.08118   0.27263   0.00000  Uiso   1.00
C66    C     0.88886   0.98835   0.24995   0.00000  Uiso   1.00
C67    C     0.20442   0.22898   0.20695   0.00000  Uiso   1.00
C68    C     0.18782   0.31903   0.16819   0.00000  Uiso   1.00
C69    C     0.26018   0.33499   0.09773   0.00000  Uiso   1.00
H70    H     0.35993   0.00857   0.20474   0.00000  Uiso   1.00
H71    H     0.50040   0.00790   0.33641   0.00000  Uiso   1.00
H72    H     0.17428   0.87997   0.18684   0.00000  Uiso   1.00
H73    H     0.42904   0.11779   0.08242   0.00000  Uiso   1.00
H74    H     0.61825   0.03870   0.49586   0.00000  Uiso   1.00
H75    H     0.93062   0.76896   0.18045   0.00000  Uiso   1.00
H76    H     0.46783   0.27045   0.96026   0.00000  Uiso   1.00
H77    H     0.06828   0.25185   0.30845   0.00000  Uiso   1.00
H78    H     0.19275   0.26454   0.44582   0.00000  Uiso   1.00
H79    H     0.86663   0.13660   0.29624   0.00000  Uiso   1.00
H80    H     0.12139   0.37442   0.19182   0.00000  Uiso   1.00
H81    H     0.36855   0.24699   0.58466   0.00000  Uiso   1.00
H82    H     0.68091   0.97725   0.26925   0.00000  Uiso   1.00
H83    H     0.21813   0.47874   0.04906   0.00000  Uiso   1.00
O84    O     0.58051   0.14678   0.62877   0.00000  Uiso   1.00
O85    O     0.67837   0.79289   0.21494   0.00000  Uiso   1.00
O86    O     0.38318   0.45083   0.92606   0.00000  Uiso   1.00
N87    N     0.54242   0.08600   0.49790   0.00000  Uiso   1.00
N88    N     0.89953   0.83380   0.20303   0.00000  Uiso   1.00
N89    N     0.40175   0.30264   0.99715   0.00000  Uiso   1.00
N90    N     0.40805   0.19808   0.54569   0.00000  Uiso   1.00
N91    N     0.76516   0.94588   0.25081   0.00000  Uiso   1.00
N92    N     0.26738   0.41472   0.04493   0.00000  Uiso   1.00
C93    C     0.20688   0.56431   0.72850   0.00000  Uiso   1.00
C94    C     0.17100   0.59769   0.81442   0.00000  Uiso   1.00
C95    C     0.06600   0.56331   0.86005   0.00000  Uiso   1.00
C96    C     0.04983   0.60310   0.93738   0.00000  Uiso   1.00
C97    C     0.98110   0.64400   0.06616   0.00000  Uiso   1.00
C98    C     0.34819   0.52817   0.73316   0.00000  Uiso   1.00
C99    C     0.39216   0.43535   0.71046   0.00000  Uiso   1.00
C100   C     0.52515   0.41663   0.71938   0.00000  Uiso   1.00
C101   C     0.73152   0.34963   0.72195   0.00000  Uiso   1.00
C102   C     0.20976   0.65739   0.67643   0.00000  Uiso   1.00
C103   C     0.13736   0.67321   0.60602   0.00000  Uiso   1.00
C104   C     0.15384   0.76327   0.56716   0.00000  Uiso   1.00
C105   C     0.14527   0.89690   0.48165   0.00000  Uiso   1.00
C106   C     0.36490   0.69612   0.78469   0.00000  Uiso   1.00
C107   C     0.25683   0.66928   0.84494   0.00000  Uiso   1.00
C108   C     0.24082   0.70914   0.92222   0.00000  Uiso   1.00
C109   C     0.13581   0.67483   0.96795   0.00000  Uiso   1.00
C110   C     0.43402   0.59976   0.76368   0.00000  Uiso   1.00
C111   C     0.56698   0.58118   0.77263   0.00000  Uiso   1.00
C112   C     0.61114   0.48835   0.74995   0.00000  Uiso   1.00
C113   C     0.29558   0.72898   0.70695   0.00000  Uiso   1.00
C114   C     0.31218   0.81903   0.66819   0.00000  Uiso   1.00
C115   C     0.23982   0.83499   0.59773   0.00000  Uiso   1.00
H116   H     0.14007   0.50857   0.70474   0.00000  Uiso   1.00
H117   H     0.99960   0.50790   0.83641   0.00000  Uiso   1.00
H118   H     0.32572   0.37997   0.68684   0.00000  Uiso   1.00
H119   H     0.07096   0.61779   0.58242   0.00000  Uiso   1.00
H120   H     0.88175   0.53870   0.99586   0.00000  Uiso   1.00
H121   H     0.56938   0.26896   0.68045   0.00000  Uiso   1.00
H122   H     0.03217   0.77045   0.46026   0.00000  Uiso   1.00
H123   H     0.43172   0.75185   0.80845   0.00000  Uiso   1.00
H124   H     0.30725   0.76454   0.94582   0.00000  Uiso   1.00
H125   H     0.63337   0.63660   0.79624   0.00000  Uiso   1.00
H126   H     0.37861   0.87442   0.69182   0.00000  Uiso   1.00
H127   H     0.13145   0.74699   0.08466   0.00000  Uiso   1.00
H128   H     0.81909   0.47725   0.76925   0.00000  Uiso   1.00
H129   H     0.28187   0.97874   0.54906   0.00000  Uiso   1.00
O130   O     0.91949   0.64678   0.12877   0.00000  Uiso   1.00
O131   O     0.82163   0.29289   0.71494   0.00000  Uiso   1.00
O132   O     0.11682   0.95083   0.42606   0.00000  Uiso   1.00
N133   N     0.95758   0.58600   0.99790   0.00000  Uiso   1.00
N134   N     0.60047   0.33380   0.70303   0.00000  Uiso   1.00
N135   N     0.09825   0.80264   0.49715   0.00000  Uiso   1.00
N136   N     0.09195   0.69808   0.04569   0.00000  Uiso   1.00
N137   N     0.73484   0.44588   0.75081   0.00000  Uiso   1.00
N138   N     0.23262   0.91472   0.54493   0.00000  Uiso   1.00
C139   C     0.79312   0.43569   0.22850   0.00000  Uiso   1.00
C140   C     0.82900   0.40231   0.31442   0.00000  Uiso   1.00
C141   C     0.93400   0.43669   0.36005   0.00000  Uiso   1.00
C142   C     0.95017   0.39690   0.43738   0.00000  Uiso   1.00
C143   C     0.01890   0.35600   0.56616   0.00000  Uiso   1.00
C144   C     0.65181   0.47183   0.23316   0.00000  Uiso   1.00
C145   C     0.60784   0.56465   0.21046   0.00000  Uiso   1.00
C146   C     0.47485   0.58337   0.21938   0.00000  Uiso   1.00
C147   C     0.26848   0.65037   0.22195   0.00000  Uiso   1.00
C148   C     0.79024   0.34261   0.17643   0.00000  Uiso   1.00
C149   C     0.86264   0.32679   0.10602   0.00000  Uiso   1.00
C150   C     0.84616   0.23673   0.06716   0.00000  Uiso   1.00
C151   C     0.85473   0.10310   0.98165   0.00000  Uiso   1.00
C152   C     0.63510   0.30388   0.28469   0.00000  Uiso   1.00
C153   C     0.74317   0.33072   0.34494   0.00000  Uiso   1.00
C154   C     0.75918   0.29086   0.42222   0.00000  Uiso   1.00
C155   C     0.86419   0.32517   0.46795   0.00000  Uiso   1.00
C156   C     0.56598   0.40024   0.26368   0.00000  Uiso   1.00
C157   C     0.43302   0.41882   0.27263   0.00000  Uiso   1.00
C158   C     0.38886   0.51165   0.24995   0.00000  Uiso   1.00
C159   C     0.70442   0.27102   0.20695   0.00000  Uiso   1.00
C160   C     0.68782   0.18097   0.16819   0.00000  Uiso   1.00
C161   C     0.76018   0.16501   0.09773   0.00000  Uiso   1.00
H162   H     0.85993   0.49143   0.20474   0.00000  Uiso   1.00
H163   H     0.00040   0.49210   0.33641   0.00000  Uiso   1.00
H164   H     0.67428   0.62003   0.18684   0.00000  Uiso   1.00
H165   H     0.92904   0.38221   0.08242   0.00000  Uiso   1.00
H166   H     0.11825   0.46130   0.49586   0.00000  Uiso   1.00
H167   H     0.43062   0.73104   0.18045   0.00000  Uiso   1.00
H168   H     0.96783   0.22955   0.96026   0.00000  Uiso   1.00
H169   H     0.56828   0.24815   0.30845   0.00000  Uiso   1.00
H170   H     0.69275   0.23546   0.44582   0.00000  Uiso   1.00
H171   H     0.36663   0.36340   0.29624   0.00000  Uiso   1.00
H172   H     0.62139   0.12558   0.19182   0.00000  Uiso   1.00
H173   H     0.86855   0.25301   0.58466   0.00000  Uiso   1.00
H174   H     0.18091   0.52275   0.26925   0.00000  Uiso   1.00
H175   H     0.71813   0.02126   0.04906   0.00000  Uiso   1.00
O176   O     0.08051   0.35322   0.62877   0.00000  Uiso   1.00
O177   O     0.17837   0.70711   0.21494   0.00000  Uiso   1.00
O178   O     0.88318   0.04917   0.92606   0.00000  Uiso   1.00
N179   N     0.04242   0.41400   0.49790   0.00000  Uiso   1.00
N180   N     0.39953   0.66620   0.20303   0.00000  Uiso   1.00
N181   N     0.90175   0.19736   0.99715   0.00000  Uiso   1.00
N182   N     0.90805   0.30192   0.54569   0.00000  Uiso   1.00
N183   N     0.26516   0.55412   0.25081   0.00000  Uiso   1.00
N184   N     0.76738   0.08528   0.04493   0.00000  Uiso   1.00
