data_job_03837
_audit_creation_date              2018-12-19
_audit_creation_method            'Materials Studio'
_symmetry_space_group_name_H-M    'P1'
_symmetry_Int_Tables_number       1
_symmetry_cell_setting            triclinic
loop_
_symmetry_equiv_pos_as_xyz
  x,y,z
_cell_length_a                    21.2942
_cell_length_b                    9.5080
_cell_length_c                    39.1748
_cell_angle_alpha                 90.0000
_cell_angle_beta                  132.3959
_cell_angle_gamma                 90.0000
loop_
_atom_site_label
_atom_site_type_symbol
_atom_site_fract_x
_atom_site_fract_y
_atom_site_fract_z
_atom_site_U_iso_or_equiv
_atom_site_adp_type
_atom_site_occupancy
C1     C     0.88711   0.90047   0.90783   0.00000  Uiso   1.00
C2     C     0.88723   0.74075   0.91141   0.00000  Uiso   1.00
C3     C     0.89110   0.66659   0.94330   0.00000  Uiso   1.00
C4     C     0.89051   0.52085   0.94090   0.00000  Uiso   1.00
C5     C     0.89140   0.28333   0.95150   0.00000  Uiso   1.00
C6     C     0.96168   0.93636   0.91186   0.00000  Uiso   1.00
C7     C     0.02815   0.02669   0.94412   0.00000  Uiso   1.00
C8     C     0.09022   0.04563   0.94209   0.00000  Uiso   1.00
C9     C     0.20666   0.11188   0.95337   0.00000  Uiso   1.00
C10    C     0.80698   0.93730   0.85845   0.00000  Uiso   1.00
C11    C     0.74338   0.02845   0.84581   0.00000  Uiso   1.00
C12    C     0.67522   0.04821   0.79882   0.00000  Uiso   1.00
C13    C     0.55147   0.11592   0.72718   0.00000  Uiso   1.00
C14    C     0.87916   0.77351   0.84685   0.00000  Uiso   1.00
C15    C     0.88291   0.67179   0.87828   0.00000  Uiso   1.00
C16    C     0.88231   0.52612   0.87583   0.00000  Uiso   1.00
C17    C     0.88618   0.45176   0.90771   0.00000  Uiso   1.00
C18    C     0.95736   0.86741   0.87873   0.00000  Uiso   1.00
C19    C     0.01935   0.88622   0.87665   0.00000  Uiso   1.00
C20    C     0.08590   0.97655   0.90891   0.00000  Uiso   1.00
C21    C     0.80266   0.86834   0.82533   0.00000  Uiso   1.00
C22    C     0.73459   0.88797   0.77834   0.00000  Uiso   1.00
C23    C     0.67090   0.97913   0.76564   0.00000  Uiso   1.00
H24    H     0.89047   0.95416   0.93362   0.00000  Uiso   1.00
H25    H     0.89445   0.71999   0.96893   0.00000  Uiso   1.00
H26    H     0.03147   0.08005   0.96975   0.00000  Uiso   1.00
H27    H     0.74675   0.08180   0.87145   0.00000  Uiso   1.00
H28    H     0.89699   0.42996   0.99348   0.00000  Uiso   1.00
H29    H     0.18588   0.18919   0.99520   0.00000  Uiso   1.00
H30    H     0.58549   0.19289   0.78792   0.00000  Uiso   1.00
H31    H     0.87580   0.71982   0.82106   0.00000  Uiso   1.00
H32    H     0.87897   0.47279   0.85019   0.00000  Uiso   1.00
H33    H     0.01599   0.83285   0.85101   0.00000  Uiso   1.00
H34    H     0.73127   0.83459   0.75272   0.00000  Uiso   1.00
H35    H     0.88443   0.22932   0.89711   0.00000  Uiso   1.00
H36    H     0.17332   0.98856   0.89883   0.00000  Uiso   1.00
H37    H     0.57293   0.99225   0.69155   0.00000  Uiso   1.00
O38    O     0.89309   0.17136   0.96650   0.00000  Uiso   1.00
O39    O     0.27209   0.16747   0.96875   0.00000  Uiso   1.00
O40    O     0.48439   0.17231   0.69681   0.00000  Uiso   1.00
N41    N     0.89358   0.41664   0.96680   0.00000  Uiso   1.00
N42    N     0.16368   0.12646   0.96841   0.00000  Uiso   1.00
N43    N     0.60238   0.12995   0.77462   0.00000  Uiso   1.00
N44    N     0.88682   0.30868   0.91494   0.00000  Uiso   1.00
N45    N     0.15692   0.01850   0.91655   0.00000  Uiso   1.00
N46    N     0.59562   0.02198   0.72277   0.00000  Uiso   1.00
C47    C     0.38711   0.40047   0.90783   0.00000  Uiso   1.00
C48    C     0.38723   0.24075   0.91141   0.00000  Uiso   1.00
C49    C     0.39110   0.16659   0.94330   0.00000  Uiso   1.00
C50    C     0.39051   0.02085   0.94090   0.00000  Uiso   1.00
C51    C     0.39140   0.78333   0.95150   0.00000  Uiso   1.00
C52    C     0.46168   0.43636   0.91186   0.00000  Uiso   1.00
C53    C     0.52815   0.52669   0.94412   0.00000  Uiso   1.00
C54    C     0.59022   0.54563   0.94209   0.00000  Uiso   1.00
C55    C     0.70666   0.61188   0.95337   0.00000  Uiso   1.00
C56    C     0.30698   0.43730   0.85845   0.00000  Uiso   1.00
C57    C     0.24338   0.52845   0.84581   0.00000  Uiso   1.00
C58    C     0.17522   0.54821   0.79882   0.00000  Uiso   1.00
C59    C     0.05147   0.61592   0.72718   0.00000  Uiso   1.00
C60    C     0.37916   0.27351   0.84685   0.00000  Uiso   1.00
C61    C     0.38291   0.17179   0.87828   0.00000  Uiso   1.00
C62    C     0.38231   0.02612   0.87583   0.00000  Uiso   1.00
C63    C     0.38618   0.95176   0.90771   0.00000  Uiso   1.00
C64    C     0.45736   0.36741   0.87873   0.00000  Uiso   1.00
C65    C     0.51935   0.38622   0.87665   0.00000  Uiso   1.00
C66    C     0.58590   0.47655   0.90891   0.00000  Uiso   1.00
C67    C     0.30266   0.36834   0.82533   0.00000  Uiso   1.00
C68    C     0.23459   0.38797   0.77834   0.00000  Uiso   1.00
C69    C     0.17090   0.47913   0.76564   0.00000  Uiso   1.00
H70    H     0.39047   0.45416   0.93362   0.00000  Uiso   1.00
H71    H     0.39445   0.21999   0.96893   0.00000  Uiso   1.00
H72    H     0.53147   0.58005   0.96975   0.00000  Uiso   1.00
H73    H     0.24675   0.58180   0.87145   0.00000  Uiso   1.00
H74    H     0.39699   0.92996   0.99348   0.00000  Uiso   1.00
H75    H     0.68588   0.68919   0.99520   0.00000  Uiso   1.00
H76    H     0.08549   0.69289   0.78792   0.00000  Uiso   1.00
H77    H     0.37580   0.21982   0.82106   0.00000  Uiso   1.00
H78    H     0.37897   0.97279   0.85019   0.00000  Uiso   1.00
H79    H     0.51599   0.33285   0.85101   0.00000  Uiso   1.00
H80    H     0.23127   0.33459   0.75272   0.00000  Uiso   1.00
H81    H     0.38443   0.72932   0.89711   0.00000  Uiso   1.00
H82    H     0.67332   0.48856   0.89883   0.00000  Uiso   1.00
H83    H     0.07293   0.49225   0.69155   0.00000  Uiso   1.00
O84    O     0.39309   0.67136   0.96650   0.00000  Uiso   1.00
O85    O     0.77209   0.66747   0.96875   0.00000  Uiso   1.00
O86    O     0.98439   0.67231   0.69681   0.00000  Uiso   1.00
N87    N     0.39358   0.91664   0.96680   0.00000  Uiso   1.00
N88    N     0.66368   0.62646   0.96841   0.00000  Uiso   1.00
N89    N     0.10238   0.62995   0.77462   0.00000  Uiso   1.00
N90    N     0.38682   0.80868   0.91494   0.00000  Uiso   1.00
N91    N     0.65692   0.51850   0.91655   0.00000  Uiso   1.00
N92    N     0.09562   0.52198   0.72277   0.00000  Uiso   1.00
C93    C     0.11289   0.90047   0.59217   0.00000  Uiso   1.00
C94    C     0.11277   0.74075   0.58859   0.00000  Uiso   1.00
C95    C     0.10890   0.66659   0.55670   0.00000  Uiso   1.00
C96    C     0.10949   0.52085   0.55910   0.00000  Uiso   1.00
C97    C     0.10860   0.28333   0.54850   0.00000  Uiso   1.00
C98    C     0.03832   0.93636   0.58814   0.00000  Uiso   1.00
C99    C     0.97185   0.02669   0.55588   0.00000  Uiso   1.00
C100   C     0.90978   0.04563   0.55791   0.00000  Uiso   1.00
C101   C     0.79334   0.11188   0.54663   0.00000  Uiso   1.00
C102   C     0.19302   0.93730   0.64155   0.00000  Uiso   1.00
C103   C     0.25662   0.02845   0.65419   0.00000  Uiso   1.00
C104   C     0.32478   0.04821   0.70118   0.00000  Uiso   1.00
C105   C     0.44853   0.11592   0.77282   0.00000  Uiso   1.00
C106   C     0.12084   0.77351   0.65315   0.00000  Uiso   1.00
C107   C     0.11709   0.67179   0.62172   0.00000  Uiso   1.00
C108   C     0.11769   0.52612   0.62417   0.00000  Uiso   1.00
C109   C     0.11382   0.45176   0.59229   0.00000  Uiso   1.00
C110   C     0.04264   0.86741   0.62127   0.00000  Uiso   1.00
C111   C     0.98065   0.88622   0.62335   0.00000  Uiso   1.00
C112   C     0.91410   0.97655   0.59109   0.00000  Uiso   1.00
C113   C     0.19734   0.86834   0.67467   0.00000  Uiso   1.00
C114   C     0.26541   0.88797   0.72166   0.00000  Uiso   1.00
C115   C     0.32910   0.97913   0.73436   0.00000  Uiso   1.00
H116   H     0.10953   0.95416   0.56638   0.00000  Uiso   1.00
H117   H     0.10555   0.71999   0.53107   0.00000  Uiso   1.00
H118   H     0.96853   0.08005   0.53025   0.00000  Uiso   1.00
H119   H     0.25325   0.08180   0.62855   0.00000  Uiso   1.00
H120   H     0.10301   0.42996   0.50652   0.00000  Uiso   1.00
H121   H     0.81412   0.18919   0.50480   0.00000  Uiso   1.00
H122   H     0.41451   0.19289   0.71208   0.00000  Uiso   1.00
H123   H     0.12420   0.71982   0.67894   0.00000  Uiso   1.00
H124   H     0.12103   0.47279   0.64981   0.00000  Uiso   1.00
H125   H     0.98401   0.83285   0.64899   0.00000  Uiso   1.00
H126   H     0.26873   0.83459   0.74728   0.00000  Uiso   1.00
H127   H     0.11557   0.22932   0.60289   0.00000  Uiso   1.00
H128   H     0.82668   0.98856   0.60117   0.00000  Uiso   1.00
H129   H     0.42707   0.99225   0.80845   0.00000  Uiso   1.00
O130   O     0.10691   0.17136   0.53350   0.00000  Uiso   1.00
O131   O     0.72791   0.16747   0.53125   0.00000  Uiso   1.00
O132   O     0.51561   0.17231   0.80319   0.00000  Uiso   1.00
N133   N     0.10642   0.41664   0.53320   0.00000  Uiso   1.00
N134   N     0.83632   0.12646   0.53159   0.00000  Uiso   1.00
N135   N     0.39762   0.12995   0.72538   0.00000  Uiso   1.00
N136   N     0.11318   0.30868   0.58506   0.00000  Uiso   1.00
N137   N     0.84308   0.01850   0.58345   0.00000  Uiso   1.00
N138   N     0.40438   0.02198   0.77723   0.00000  Uiso   1.00
C139   C     0.61289   0.40047   0.59217   0.00000  Uiso   1.00
C140   C     0.61277   0.24075   0.58859   0.00000  Uiso   1.00
C141   C     0.60890   0.16659   0.55670   0.00000  Uiso   1.00
C142   C     0.60949   0.02085   0.55910   0.00000  Uiso   1.00
C143   C     0.60860   0.78333   0.54850   0.00000  Uiso   1.00
C144   C     0.53832   0.43636   0.58814   0.00000  Uiso   1.00
C145   C     0.47185   0.52669   0.55588   0.00000  Uiso   1.00
C146   C     0.40978   0.54563   0.55791   0.00000  Uiso   1.00
C147   C     0.29334   0.61188   0.54663   0.00000  Uiso   1.00
C148   C     0.69302   0.43730   0.64155   0.00000  Uiso   1.00
C149   C     0.75662   0.52845   0.65419   0.00000  Uiso   1.00
C150   C     0.82478   0.54821   0.70118   0.00000  Uiso   1.00
C151   C     0.94853   0.61592   0.77282   0.00000  Uiso   1.00
C152   C     0.62084   0.27351   0.65315   0.00000  Uiso   1.00
C153   C     0.61709   0.17179   0.62172   0.00000  Uiso   1.00
C154   C     0.61769   0.02612   0.62417   0.00000  Uiso   1.00
C155   C     0.61382   0.95176   0.59229   0.00000  Uiso   1.00
C156   C     0.54264   0.36741   0.62127   0.00000  Uiso   1.00
C157   C     0.48065   0.38622   0.62335   0.00000  Uiso   1.00
C158   C     0.41410   0.47655   0.59109   0.00000  Uiso   1.00
C159   C     0.69734   0.36834   0.67467   0.00000  Uiso   1.00
C160   C     0.76541   0.38797   0.72166   0.00000  Uiso   1.00
C161   C     0.82910   0.47913   0.73436   0.00000  Uiso   1.00
H162   H     0.60953   0.45416   0.56638   0.00000  Uiso   1.00
H163   H     0.60555   0.21999   0.53107   0.00000  Uiso   1.00
H164   H     0.46853   0.58005   0.53025   0.00000  Uiso   1.00
H165   H     0.75325   0.58180   0.62855   0.00000  Uiso   1.00
H166   H     0.60301   0.92996   0.50652   0.00000  Uiso   1.00
H167   H     0.31412   0.68919   0.50480   0.00000  Uiso   1.00
H168   H     0.91451   0.69289   0.71208   0.00000  Uiso   1.00
H169   H     0.62420   0.21982   0.67894   0.00000  Uiso   1.00
H170   H     0.62103   0.97279   0.64981   0.00000  Uiso   1.00
H171   H     0.48401   0.33285   0.64899   0.00000  Uiso   1.00
H172   H     0.76873   0.33459   0.74728   0.00000  Uiso   1.00
H173   H     0.61557   0.72932   0.60289   0.00000  Uiso   1.00
H174   H     0.32668   0.48856   0.60117   0.00000  Uiso   1.00
H175   H     0.92707   0.49225   0.80845   0.00000  Uiso   1.00
O176   O     0.60691   0.67136   0.53350   0.00000  Uiso   1.00
O177   O     0.22791   0.66747   0.53125   0.00000  Uiso   1.00
O178   O     0.01561   0.67231   0.80319   0.00000  Uiso   1.00
N179   N     0.60642   0.91664   0.53320   0.00000  Uiso   1.00
N180   N     0.33632   0.62646   0.53159   0.00000  Uiso   1.00
N181   N     0.89762   0.62995   0.72538   0.00000  Uiso   1.00
N182   N     0.61318   0.80868   0.58506   0.00000  Uiso   1.00
N183   N     0.34308   0.51850   0.58345   0.00000  Uiso   1.00
N184   N     0.90438   0.52198   0.77723   0.00000  Uiso   1.00
C185   C     0.11289   0.09953   0.09217   0.00000  Uiso   1.00
C186   C     0.11277   0.25925   0.08859   0.00000  Uiso   1.00
C187   C     0.10890   0.33341   0.05670   0.00000  Uiso   1.00
C188   C     0.10949   0.47915   0.05910   0.00000  Uiso   1.00
C189   C     0.10860   0.71667   0.04850   0.00000  Uiso   1.00
C190   C     0.03832   0.06364   0.08814   0.00000  Uiso   1.00
C191   C     0.97185   0.97331   0.05588   0.00000  Uiso   1.00
C192   C     0.90978   0.95437   0.05791   0.00000  Uiso   1.00
C193   C     0.79334   0.88812   0.04663   0.00000  Uiso   1.00
C194   C     0.19302   0.06270   0.14155   0.00000  Uiso   1.00
C195   C     0.25662   0.97155   0.15419   0.00000  Uiso   1.00
C196   C     0.32478   0.95179   0.20118   0.00000  Uiso   1.00
C197   C     0.44853   0.88408   0.27282   0.00000  Uiso   1.00
C198   C     0.12084   0.22649   0.15315   0.00000  Uiso   1.00
C199   C     0.11709   0.32821   0.12172   0.00000  Uiso   1.00
C200   C     0.11769   0.47388   0.12417   0.00000  Uiso   1.00
C201   C     0.11382   0.54824   0.09229   0.00000  Uiso   1.00
C202   C     0.04264   0.13259   0.12127   0.00000  Uiso   1.00
C203   C     0.98065   0.11378   0.12335   0.00000  Uiso   1.00
C204   C     0.91410   0.02345   0.09109   0.00000  Uiso   1.00
C205   C     0.19734   0.13166   0.17467   0.00000  Uiso   1.00
C206   C     0.26541   0.11203   0.22166   0.00000  Uiso   1.00
C207   C     0.32910   0.02087   0.23436   0.00000  Uiso   1.00
H208   H     0.10953   0.04584   0.06638   0.00000  Uiso   1.00
H209   H     0.10555   0.28001   0.03107   0.00000  Uiso   1.00
H210   H     0.96853   0.91995   0.03025   0.00000  Uiso   1.00
H211   H     0.25325   0.91820   0.12855   0.00000  Uiso   1.00
H212   H     0.10301   0.57004   0.00652   0.00000  Uiso   1.00
H213   H     0.81412   0.81081   0.00480   0.00000  Uiso   1.00
H214   H     0.41451   0.80711   0.21208   0.00000  Uiso   1.00
H215   H     0.12420   0.28018   0.17894   0.00000  Uiso   1.00
H216   H     0.12103   0.52721   0.14981   0.00000  Uiso   1.00
H217   H     0.98401   0.16715   0.14899   0.00000  Uiso   1.00
H218   H     0.26873   0.16541   0.24728   0.00000  Uiso   1.00
H219   H     0.11557   0.77068   0.10289   0.00000  Uiso   1.00
H220   H     0.82668   0.01144   0.10117   0.00000  Uiso   1.00
H221   H     0.42707   0.00775   0.30845   0.00000  Uiso   1.00
O222   O     0.10691   0.82864   0.03350   0.00000  Uiso   1.00
O223   O     0.72791   0.83253   0.03125   0.00000  Uiso   1.00
O224   O     0.51561   0.82769   0.30319   0.00000  Uiso   1.00
N225   N     0.10642   0.58336   0.03320   0.00000  Uiso   1.00
N226   N     0.83632   0.87354   0.03159   0.00000  Uiso   1.00
N227   N     0.39762   0.87005   0.22538   0.00000  Uiso   1.00
N228   N     0.11318   0.69132   0.08506   0.00000  Uiso   1.00
N229   N     0.84308   0.98150   0.08345   0.00000  Uiso   1.00
N230   N     0.40438   0.97802   0.27723   0.00000  Uiso   1.00
C231   C     0.61289   0.59953   0.09217   0.00000  Uiso   1.00
C232   C     0.61277   0.75925   0.08859   0.00000  Uiso   1.00
C233   C     0.60890   0.83341   0.05670   0.00000  Uiso   1.00
C234   C     0.60949   0.97915   0.05910   0.00000  Uiso   1.00
C235   C     0.60860   0.21667   0.04850   0.00000  Uiso   1.00
C236   C     0.53832   0.56364   0.08814   0.00000  Uiso   1.00
C237   C     0.47185   0.47331   0.05588   0.00000  Uiso   1.00
C238   C     0.40978   0.45437   0.05791   0.00000  Uiso   1.00
C239   C     0.29334   0.38812   0.04663   0.00000  Uiso   1.00
C240   C     0.69302   0.56270   0.14155   0.00000  Uiso   1.00
C241   C     0.75662   0.47155   0.15419   0.00000  Uiso   1.00
C242   C     0.82478   0.45179   0.20118   0.00000  Uiso   1.00
C243   C     0.94853   0.38408   0.27282   0.00000  Uiso   1.00
C244   C     0.62084   0.72649   0.15315   0.00000  Uiso   1.00
C245   C     0.61709   0.82821   0.12172   0.00000  Uiso   1.00
C246   C     0.61769   0.97388   0.12417   0.00000  Uiso   1.00
C247   C     0.61382   0.04824   0.09229   0.00000  Uiso   1.00
C248   C     0.54264   0.63259   0.12127   0.00000  Uiso   1.00
C249   C     0.48065   0.61378   0.12335   0.00000  Uiso   1.00
C250   C     0.41410   0.52345   0.09109   0.00000  Uiso   1.00
C251   C     0.69734   0.63166   0.17467   0.00000  Uiso   1.00
C252   C     0.76541   0.61203   0.22166   0.00000  Uiso   1.00
C253   C     0.82910   0.52087   0.23436   0.00000  Uiso   1.00
H254   H     0.60953   0.54584   0.06638   0.00000  Uiso   1.00
H255   H     0.60555   0.78001   0.03107   0.00000  Uiso   1.00
H256   H     0.46853   0.41995   0.03025   0.00000  Uiso   1.00
H257   H     0.75325   0.41820   0.12855   0.00000  Uiso   1.00
H258   H     0.60301   0.07004   0.00652   0.00000  Uiso   1.00
H259   H     0.31412   0.31081   0.00480   0.00000  Uiso   1.00
H260   H     0.91451   0.30711   0.21208   0.00000  Uiso   1.00
H261   H     0.62420   0.78018   0.17894   0.00000  Uiso   1.00
H262   H     0.62103   0.02721   0.14981   0.00000  Uiso   1.00
H263   H     0.48401   0.66715   0.14899   0.00000  Uiso   1.00
H264   H     0.76873   0.66541   0.24728   0.00000  Uiso   1.00
H265   H     0.61557   0.27068   0.10289   0.00000  Uiso   1.00
H266   H     0.32668   0.51144   0.10117   0.00000  Uiso   1.00
H267   H     0.92707   0.50775   0.30845   0.00000  Uiso   1.00
O268   O     0.60691   0.32864   0.03350   0.00000  Uiso   1.00
O269   O     0.22791   0.33253   0.03125   0.00000  Uiso   1.00
O270   O     0.01561   0.32769   0.30319   0.00000  Uiso   1.00
N271   N     0.60642   0.08336   0.03320   0.00000  Uiso   1.00
N272   N     0.33632   0.37354   0.03159   0.00000  Uiso   1.00
N273   N     0.89762   0.37005   0.22538   0.00000  Uiso   1.00
N274   N     0.61318   0.19132   0.08506   0.00000  Uiso   1.00
N275   N     0.34308   0.48150   0.08345   0.00000  Uiso   1.00
N276   N     0.90438   0.47802   0.27723   0.00000  Uiso   1.00
C277   C     0.88711   0.09953   0.40783   0.00000  Uiso   1.00
C278   C     0.88723   0.25925   0.41141   0.00000  Uiso   1.00
C279   C     0.89110   0.33341   0.44330   0.00000  Uiso   1.00
C280   C     0.89051   0.47915   0.44090   0.00000  Uiso   1.00
C281   C     0.89140   0.71667   0.45150   0.00000  Uiso   1.00
C282   C     0.96168   0.06364   0.41186   0.00000  Uiso   1.00
C283   C     0.02815   0.97331   0.44412   0.00000  Uiso   1.00
C284   C     0.09022   0.95437   0.44209   0.00000  Uiso   1.00
C285   C     0.20666   0.88812   0.45337   0.00000  Uiso   1.00
C286   C     0.80698   0.06270   0.35845   0.00000  Uiso   1.00
C287   C     0.74338   0.97155   0.34581   0.00000  Uiso   1.00
C288   C     0.67522   0.95179   0.29882   0.00000  Uiso   1.00
C289   C     0.55147   0.88408   0.22718   0.00000  Uiso   1.00
C290   C     0.87916   0.22649   0.34685   0.00000  Uiso   1.00
C291   C     0.88291   0.32821   0.37828   0.00000  Uiso   1.00
C292   C     0.88231   0.47388   0.37583   0.00000  Uiso   1.00
C293   C     0.88618   0.54824   0.40771   0.00000  Uiso   1.00
C294   C     0.95736   0.13259   0.37873   0.00000  Uiso   1.00
C295   C     0.01935   0.11378   0.37665   0.00000  Uiso   1.00
C296   C     0.08590   0.02345   0.40891   0.00000  Uiso   1.00
C297   C     0.80266   0.13166   0.32533   0.00000  Uiso   1.00
C298   C     0.73459   0.11203   0.27834   0.00000  Uiso   1.00
C299   C     0.67090   0.02087   0.26564   0.00000  Uiso   1.00
H300   H     0.89047   0.04584   0.43362   0.00000  Uiso   1.00
H301   H     0.89445   0.28001   0.46893   0.00000  Uiso   1.00
H302   H     0.03147   0.91995   0.46975   0.00000  Uiso   1.00
H303   H     0.74675   0.91820   0.37145   0.00000  Uiso   1.00
H304   H     0.89699   0.57004   0.49348   0.00000  Uiso   1.00
H305   H     0.18588   0.81081   0.49520   0.00000  Uiso   1.00
H306   H     0.58549   0.80711   0.28792   0.00000  Uiso   1.00
H307   H     0.87580   0.28018   0.32106   0.00000  Uiso   1.00
H308   H     0.87897   0.52721   0.35019   0.00000  Uiso   1.00
H309   H     0.01599   0.16715   0.35101   0.00000  Uiso   1.00
H310   H     0.73127   0.16541   0.25272   0.00000  Uiso   1.00
H311   H     0.88443   0.77068   0.39711   0.00000  Uiso   1.00
H312   H     0.17332   0.01144   0.39883   0.00000  Uiso   1.00
H313   H     0.57293   0.00775   0.19155   0.00000  Uiso   1.00
O314   O     0.89309   0.82864   0.46650   0.00000  Uiso   1.00
O315   O     0.27209   0.83253   0.46875   0.00000  Uiso   1.00
O316   O     0.48439   0.82769   0.19681   0.00000  Uiso   1.00
N317   N     0.89358   0.58336   0.46680   0.00000  Uiso   1.00
N318   N     0.16368   0.87354   0.46841   0.00000  Uiso   1.00
N319   N     0.60238   0.87005   0.27462   0.00000  Uiso   1.00
N320   N     0.88682   0.69132   0.41494   0.00000  Uiso   1.00
N321   N     0.15692   0.98150   0.41655   0.00000  Uiso   1.00
N322   N     0.59562   0.97802   0.22277   0.00000  Uiso   1.00
C323   C     0.38711   0.59953   0.40783   0.00000  Uiso   1.00
C324   C     0.38723   0.75925   0.41141   0.00000  Uiso   1.00
C325   C     0.39110   0.83341   0.44330   0.00000  Uiso   1.00
C326   C     0.39051   0.97915   0.44090   0.00000  Uiso   1.00
C327   C     0.39140   0.21667   0.45150   0.00000  Uiso   1.00
C328   C     0.46168   0.56364   0.41186   0.00000  Uiso   1.00
C329   C     0.52815   0.47331   0.44412   0.00000  Uiso   1.00
C330   C     0.59022   0.45437   0.44209   0.00000  Uiso   1.00
C331   C     0.70666   0.38812   0.45337   0.00000  Uiso   1.00
C332   C     0.30698   0.56270   0.35845   0.00000  Uiso   1.00
C333   C     0.24338   0.47155   0.34581   0.00000  Uiso   1.00
C334   C     0.17522   0.45179   0.29882   0.00000  Uiso   1.00
C335   C     0.05147   0.38408   0.22718   0.00000  Uiso   1.00
C336   C     0.37916   0.72649   0.34685   0.00000  Uiso   1.00
C337   C     0.38291   0.82821   0.37828   0.00000  Uiso   1.00
C338   C     0.38231   0.97388   0.37583   0.00000  Uiso   1.00
C339   C     0.38618   0.04824   0.40771   0.00000  Uiso   1.00
C340   C     0.45736   0.63259   0.37873   0.00000  Uiso   1.00
C341   C     0.51935   0.61378   0.37665   0.00000  Uiso   1.00
C342   C     0.58590   0.52345   0.40891   0.00000  Uiso   1.00
C343   C     0.30266   0.63166   0.32533   0.00000  Uiso   1.00
C344   C     0.23459   0.61203   0.27834   0.00000  Uiso   1.00
C345   C     0.17090   0.52087   0.26564   0.00000  Uiso   1.00
H346   H     0.39047   0.54584   0.43362   0.00000  Uiso   1.00
H347   H     0.39445   0.78001   0.46893   0.00000  Uiso   1.00
H348   H     0.53147   0.41995   0.46975   0.00000  Uiso   1.00
H349   H     0.24675   0.41820   0.37145   0.00000  Uiso   1.00
H350   H     0.39699   0.07004   0.49348   0.00000  Uiso   1.00
H351   H     0.68588   0.31081   0.49520   0.00000  Uiso   1.00
H352   H     0.08549   0.30711   0.28792   0.00000  Uiso   1.00
H353   H     0.37580   0.78018   0.32106   0.00000  Uiso   1.00
H354   H     0.37897   0.02721   0.35019   0.00000  Uiso   1.00
H355   H     0.51599   0.66715   0.35101   0.00000  Uiso   1.00
H356   H     0.23127   0.66541   0.25272   0.00000  Uiso   1.00
H357   H     0.38443   0.27068   0.39711   0.00000  Uiso   1.00
H358   H     0.67332   0.51144   0.39883   0.00000  Uiso   1.00
H359   H     0.07293   0.50775   0.19155   0.00000  Uiso   1.00
O360   O     0.39309   0.32864   0.46650   0.00000  Uiso   1.00
O361   O     0.77209   0.33253   0.46875   0.00000  Uiso   1.00
O362   O     0.98439   0.32769   0.19681   0.00000  Uiso   1.00
N363   N     0.39358   0.08336   0.46680   0.00000  Uiso   1.00
N364   N     0.66368   0.37354   0.46841   0.00000  Uiso   1.00
N365   N     0.10238   0.37005   0.27462   0.00000  Uiso   1.00
N366   N     0.38682   0.19132   0.41494   0.00000  Uiso   1.00
N367   N     0.65692   0.48150   0.41655   0.00000  Uiso   1.00
N368   N     0.09562   0.47802   0.22277   0.00000  Uiso   1.00
