data_job_03546
_audit_creation_date              2018-12-19
_audit_creation_method            'Materials Studio'
_symmetry_space_group_name_H-M    'P1'
_symmetry_Int_Tables_number       1
_symmetry_cell_setting            triclinic
loop_
_symmetry_equiv_pos_as_xyz
  x,y,z
_cell_length_a                    20.5787
_cell_length_b                    27.0217
_cell_length_c                    9.9929
_cell_angle_alpha                 90.0000
_cell_angle_beta                  90.0000
_cell_angle_gamma                 90.0000
loop_
_atom_site_label
_atom_site_type_symbol
_atom_site_fract_x
_atom_site_fract_y
_atom_site_fract_z
_atom_site_U_iso_or_equiv
_atom_site_adp_type
_atom_site_occupancy
C1     C     0.83042   0.86791   0.44267   0.00000  Uiso   1.00
C2     C     0.89475   0.85023   0.50145   0.00000  Uiso   1.00
C3     C     0.93215   0.81142   0.45306   0.00000  Uiso   1.00
C4     C     0.98942   0.80101   0.52089   0.00000  Uiso   1.00
C5     C     0.08638   0.76936   0.59512   0.00000  Uiso   1.00
C6     C     0.78114   0.86540   0.55643   0.00000  Uiso   1.00
C7     C     0.72303   0.83935   0.55426   0.00000  Uiso   1.00
C8     C     0.68466   0.84172   0.66838   0.00000  Uiso   1.00
C9     C     0.60522   0.83365   0.82794   0.00000  Uiso   1.00
C10    C     0.83950   0.92273   0.41167   0.00000  Uiso   1.00
C11    C     0.83044   0.94490   0.28779   0.00000  Uiso   1.00
C12    C     0.84119   0.99554   0.28003   0.00000  Uiso   1.00
C13    C     0.85236   0.07650   0.21484   0.00000  Uiso   1.00
C14    C     0.86562   0.91844   0.64919   0.00000  Uiso   1.00
C15    C     0.91386   0.87767   0.61362   0.00000  Uiso   1.00
C16    C     0.97110   0.86732   0.68154   0.00000  Uiso   1.00
C17    C     0.00858   0.82851   0.63326   0.00000  Uiso   1.00
C18    C     0.80026   0.89284   0.66860   0.00000  Uiso   1.00
C19    C     0.76197   0.89525   0.78274   0.00000  Uiso   1.00
C20    C     0.70382   0.86922   0.78075   0.00000  Uiso   1.00
C21    C     0.85862   0.95018   0.52384   0.00000  Uiso   1.00
C22    C     0.86939   0.00080   0.51628   0.00000  Uiso   1.00
C23    C     0.86034   0.02304   0.39241   0.00000  Uiso   1.00
H24    H     0.81554   0.84655   0.35535   0.00000  Uiso   1.00
H25    H     0.91734   0.79019   0.36625   0.00000  Uiso   1.00
H26    H     0.70824   0.81812   0.46744   0.00000  Uiso   1.00
H27    H     0.81564   0.92365   0.20101   0.00000  Uiso   1.00
H28    H     0.03862   0.73980   0.42784   0.00000  Uiso   1.00
H29    H     0.59772   0.79871   0.64117   0.00000  Uiso   1.00
H30    H     0.82419   0.02124   0.07936   0.00000  Uiso   1.00
H31    H     0.88051   0.93981   0.73652   0.00000  Uiso   1.00
H32    H     0.98588   0.88857   0.76834   0.00000  Uiso   1.00
H33    H     0.77678   0.91650   0.86953   0.00000  Uiso   1.00
H34    H     0.88418   0.02203   0.60310   0.00000  Uiso   1.00
H35    H     0.09425   0.81964   0.75419   0.00000  Uiso   1.00
H36    H     0.65335   0.87856   0.96753   0.00000  Uiso   1.00
H37    H     0.87982   0.10108   0.40571   0.00000  Uiso   1.00
O38    O     0.13457   0.74432   0.60510   0.00000  Uiso   1.00
O39    O     0.55612   0.82162   0.88497   0.00000  Uiso   1.00
O40    O     0.85325   0.11356   0.14789   0.00000  Uiso   1.00
N41    N     0.03726   0.76563   0.50026   0.00000  Uiso   1.00
N42    N     0.62505   0.82070   0.69973   0.00000  Uiso   1.00
N43    N     0.83676   0.02875   0.17448   0.00000  Uiso   1.00
N44    N     0.06719   0.80859   0.67587   0.00000  Uiso   1.00
N45    N     0.65498   0.86366   0.87534   0.00000  Uiso   1.00
N46    N     0.86670   0.07171   0.35009   0.00000  Uiso   1.00
C47    C     0.66958   0.13209   0.44267   0.00000  Uiso   1.00
C48    C     0.60525   0.14977   0.50145   0.00000  Uiso   1.00
C49    C     0.56785   0.18858   0.45306   0.00000  Uiso   1.00
C50    C     0.51058   0.19899   0.52089   0.00000  Uiso   1.00
C51    C     0.41362   0.23064   0.59512   0.00000  Uiso   1.00
C52    C     0.71886   0.13460   0.55643   0.00000  Uiso   1.00
C53    C     0.77697   0.16065   0.55426   0.00000  Uiso   1.00
C54    C     0.81534   0.15828   0.66838   0.00000  Uiso   1.00
C55    C     0.89478   0.16635   0.82794   0.00000  Uiso   1.00
C56    C     0.66050   0.07727   0.41167   0.00000  Uiso   1.00
C57    C     0.66956   0.05510   0.28779   0.00000  Uiso   1.00
C58    C     0.65881   0.00446   0.28003   0.00000  Uiso   1.00
C59    C     0.64764   0.92350   0.21484   0.00000  Uiso   1.00
C60    C     0.63438   0.08156   0.64919   0.00000  Uiso   1.00
C61    C     0.58614   0.12233   0.61362   0.00000  Uiso   1.00
C62    C     0.52890   0.13268   0.68154   0.00000  Uiso   1.00
C63    C     0.49142   0.17149   0.63326   0.00000  Uiso   1.00
C64    C     0.69974   0.10716   0.66860   0.00000  Uiso   1.00
C65    C     0.73803   0.10475   0.78274   0.00000  Uiso   1.00
C66    C     0.79618   0.13078   0.78075   0.00000  Uiso   1.00
C67    C     0.64138   0.04982   0.52384   0.00000  Uiso   1.00
C68    C     0.63061   0.99920   0.51628   0.00000  Uiso   1.00
C69    C     0.63966   0.97696   0.39241   0.00000  Uiso   1.00
H70    H     0.68446   0.15345   0.35535   0.00000  Uiso   1.00
H71    H     0.58266   0.20981   0.36625   0.00000  Uiso   1.00
H72    H     0.79176   0.18188   0.46744   0.00000  Uiso   1.00
H73    H     0.68436   0.07635   0.20101   0.00000  Uiso   1.00
H74    H     0.46138   0.26020   0.42784   0.00000  Uiso   1.00
H75    H     0.90228   0.20129   0.64117   0.00000  Uiso   1.00
H76    H     0.67581   0.97876   0.07936   0.00000  Uiso   1.00
H77    H     0.61949   0.06019   0.73652   0.00000  Uiso   1.00
H78    H     0.51412   0.11143   0.76834   0.00000  Uiso   1.00
H79    H     0.72322   0.08350   0.86953   0.00000  Uiso   1.00
H80    H     0.61582   0.97797   0.60310   0.00000  Uiso   1.00
H81    H     0.40575   0.18036   0.75419   0.00000  Uiso   1.00
H82    H     0.84665   0.12144   0.96753   0.00000  Uiso   1.00
H83    H     0.62018   0.89892   0.40571   0.00000  Uiso   1.00
O84    O     0.36543   0.25568   0.60510   0.00000  Uiso   1.00
O85    O     0.94388   0.17838   0.88497   0.00000  Uiso   1.00
O86    O     0.64675   0.88644   0.14789   0.00000  Uiso   1.00
N87    N     0.46274   0.23437   0.50026   0.00000  Uiso   1.00
N88    N     0.87495   0.17930   0.69973   0.00000  Uiso   1.00
N89    N     0.66324   0.97125   0.17448   0.00000  Uiso   1.00
N90    N     0.43281   0.19141   0.67587   0.00000  Uiso   1.00
N91    N     0.84502   0.13634   0.87534   0.00000  Uiso   1.00
N92    N     0.63330   0.92829   0.35009   0.00000  Uiso   1.00
C93    C     0.66958   0.36791   0.05733   0.00000  Uiso   1.00
C94    C     0.60525   0.35023   0.99855   0.00000  Uiso   1.00
C95    C     0.56785   0.31142   0.04694   0.00000  Uiso   1.00
C96    C     0.51058   0.30101   0.97911   0.00000  Uiso   1.00
C97    C     0.41362   0.26936   0.90488   0.00000  Uiso   1.00
C98    C     0.71886   0.36540   0.94357   0.00000  Uiso   1.00
C99    C     0.77697   0.33935   0.94574   0.00000  Uiso   1.00
C100   C     0.81534   0.34172   0.83162   0.00000  Uiso   1.00
C101   C     0.89478   0.33365   0.67206   0.00000  Uiso   1.00
C102   C     0.66050   0.42273   0.08833   0.00000  Uiso   1.00
C103   C     0.66956   0.44490   0.21221   0.00000  Uiso   1.00
C104   C     0.65881   0.49554   0.21997   0.00000  Uiso   1.00
C105   C     0.64764   0.57650   0.28516   0.00000  Uiso   1.00
C106   C     0.63438   0.41844   0.85081   0.00000  Uiso   1.00
C107   C     0.58614   0.37767   0.88638   0.00000  Uiso   1.00
C108   C     0.52890   0.36732   0.81846   0.00000  Uiso   1.00
C109   C     0.49142   0.32851   0.86674   0.00000  Uiso   1.00
C110   C     0.69974   0.39284   0.83140   0.00000  Uiso   1.00
C111   C     0.73803   0.39525   0.71726   0.00000  Uiso   1.00
C112   C     0.79618   0.36922   0.71925   0.00000  Uiso   1.00
C113   C     0.64138   0.45018   0.97616   0.00000  Uiso   1.00
C114   C     0.63061   0.50080   0.98372   0.00000  Uiso   1.00
C115   C     0.63966   0.52304   0.10759   0.00000  Uiso   1.00
H116   H     0.68446   0.34655   0.14465   0.00000  Uiso   1.00
H117   H     0.58266   0.29019   0.13375   0.00000  Uiso   1.00
H118   H     0.79176   0.31812   0.03256   0.00000  Uiso   1.00
H119   H     0.68436   0.42365   0.29899   0.00000  Uiso   1.00
H120   H     0.46138   0.23980   0.07216   0.00000  Uiso   1.00
H121   H     0.90228   0.29871   0.85883   0.00000  Uiso   1.00
H122   H     0.67581   0.52124   0.42064   0.00000  Uiso   1.00
H123   H     0.61949   0.43981   0.76348   0.00000  Uiso   1.00
H124   H     0.51412   0.38857   0.73166   0.00000  Uiso   1.00
H125   H     0.72322   0.41650   0.63047   0.00000  Uiso   1.00
H126   H     0.61582   0.52203   0.89690   0.00000  Uiso   1.00
H127   H     0.40575   0.31964   0.74581   0.00000  Uiso   1.00
H128   H     0.84665   0.37856   0.53247   0.00000  Uiso   1.00
H129   H     0.62018   0.60108   0.09429   0.00000  Uiso   1.00
O130   O     0.36543   0.24432   0.89490   0.00000  Uiso   1.00
O131   O     0.94388   0.32162   0.61503   0.00000  Uiso   1.00
O132   O     0.64675   0.61356   0.35211   0.00000  Uiso   1.00
N133   N     0.46274   0.26563   0.99974   0.00000  Uiso   1.00
N134   N     0.87495   0.32070   0.80027   0.00000  Uiso   1.00
N135   N     0.66324   0.52875   0.32552   0.00000  Uiso   1.00
N136   N     0.43281   0.30859   0.82413   0.00000  Uiso   1.00
N137   N     0.84502   0.36366   0.62466   0.00000  Uiso   1.00
N138   N     0.63330   0.57171   0.14991   0.00000  Uiso   1.00
C139   C     0.83042   0.63209   0.05733   0.00000  Uiso   1.00
C140   C     0.89475   0.64977   0.99855   0.00000  Uiso   1.00
C141   C     0.93215   0.68858   0.04694   0.00000  Uiso   1.00
C142   C     0.98942   0.69899   0.97911   0.00000  Uiso   1.00
C143   C     0.08638   0.73064   0.90488   0.00000  Uiso   1.00
C144   C     0.78114   0.63460   0.94357   0.00000  Uiso   1.00
C145   C     0.72303   0.66065   0.94574   0.00000  Uiso   1.00
C146   C     0.68466   0.65828   0.83162   0.00000  Uiso   1.00
C147   C     0.60522   0.66635   0.67206   0.00000  Uiso   1.00
C148   C     0.83950   0.57727   0.08833   0.00000  Uiso   1.00
C149   C     0.83044   0.55510   0.21221   0.00000  Uiso   1.00
C150   C     0.84119   0.50446   0.21997   0.00000  Uiso   1.00
C151   C     0.85236   0.42350   0.28516   0.00000  Uiso   1.00
C152   C     0.86562   0.58156   0.85081   0.00000  Uiso   1.00
C153   C     0.91386   0.62233   0.88638   0.00000  Uiso   1.00
C154   C     0.97110   0.63268   0.81846   0.00000  Uiso   1.00
C155   C     0.00858   0.67149   0.86674   0.00000  Uiso   1.00
C156   C     0.80026   0.60716   0.83140   0.00000  Uiso   1.00
C157   C     0.76197   0.60475   0.71726   0.00000  Uiso   1.00
C158   C     0.70382   0.63078   0.71925   0.00000  Uiso   1.00
C159   C     0.85862   0.54982   0.97616   0.00000  Uiso   1.00
C160   C     0.86939   0.49920   0.98372   0.00000  Uiso   1.00
C161   C     0.86034   0.47696   0.10759   0.00000  Uiso   1.00
H162   H     0.81554   0.65345   0.14465   0.00000  Uiso   1.00
H163   H     0.91734   0.70981   0.13375   0.00000  Uiso   1.00
H164   H     0.70824   0.68188   0.03256   0.00000  Uiso   1.00
H165   H     0.81564   0.57635   0.29899   0.00000  Uiso   1.00
H166   H     0.03862   0.76020   0.07216   0.00000  Uiso   1.00
H167   H     0.59772   0.70129   0.85883   0.00000  Uiso   1.00
H168   H     0.82419   0.47876   0.42064   0.00000  Uiso   1.00
H169   H     0.88051   0.56019   0.76348   0.00000  Uiso   1.00
H170   H     0.98588   0.61143   0.73166   0.00000  Uiso   1.00
H171   H     0.77678   0.58350   0.63047   0.00000  Uiso   1.00
H172   H     0.88418   0.47797   0.89690   0.00000  Uiso   1.00
H173   H     0.09425   0.68036   0.74581   0.00000  Uiso   1.00
H174   H     0.65335   0.62144   0.53247   0.00000  Uiso   1.00
H175   H     0.87982   0.39892   0.09429   0.00000  Uiso   1.00
O176   O     0.13457   0.75568   0.89490   0.00000  Uiso   1.00
O177   O     0.55612   0.67838   0.61503   0.00000  Uiso   1.00
O178   O     0.85325   0.38644   0.35211   0.00000  Uiso   1.00
N179   N     0.03726   0.73437   0.99974   0.00000  Uiso   1.00
N180   N     0.62505   0.67930   0.80027   0.00000  Uiso   1.00
N181   N     0.83676   0.47125   0.32552   0.00000  Uiso   1.00
N182   N     0.06719   0.69141   0.82413   0.00000  Uiso   1.00
N183   N     0.65498   0.63634   0.62466   0.00000  Uiso   1.00
N184   N     0.86670   0.42829   0.14991   0.00000  Uiso   1.00
C185   C     0.16958   0.13209   0.55733   0.00000  Uiso   1.00
C186   C     0.10525   0.14977   0.49855   0.00000  Uiso   1.00
C187   C     0.06785   0.18858   0.54694   0.00000  Uiso   1.00
C188   C     0.01058   0.19899   0.47911   0.00000  Uiso   1.00
C189   C     0.91362   0.23064   0.40488   0.00000  Uiso   1.00
C190   C     0.21886   0.13460   0.44357   0.00000  Uiso   1.00
C191   C     0.27697   0.16065   0.44574   0.00000  Uiso   1.00
C192   C     0.31534   0.15828   0.33162   0.00000  Uiso   1.00
C193   C     0.39478   0.16635   0.17206   0.00000  Uiso   1.00
C194   C     0.16050   0.07727   0.58833   0.00000  Uiso   1.00
C195   C     0.16956   0.05510   0.71221   0.00000  Uiso   1.00
C196   C     0.15881   0.00446   0.71997   0.00000  Uiso   1.00
C197   C     0.14764   0.92350   0.78516   0.00000  Uiso   1.00
C198   C     0.13438   0.08156   0.35081   0.00000  Uiso   1.00
C199   C     0.08614   0.12233   0.38638   0.00000  Uiso   1.00
C200   C     0.02890   0.13268   0.31846   0.00000  Uiso   1.00
C201   C     0.99142   0.17149   0.36674   0.00000  Uiso   1.00
C202   C     0.19974   0.10716   0.33140   0.00000  Uiso   1.00
C203   C     0.23803   0.10475   0.21726   0.00000  Uiso   1.00
C204   C     0.29618   0.13078   0.21925   0.00000  Uiso   1.00
C205   C     0.14138   0.04982   0.47616   0.00000  Uiso   1.00
C206   C     0.13061   0.99920   0.48372   0.00000  Uiso   1.00
C207   C     0.13966   0.97696   0.60759   0.00000  Uiso   1.00
H208   H     0.18446   0.15345   0.64465   0.00000  Uiso   1.00
H209   H     0.08266   0.20981   0.63375   0.00000  Uiso   1.00
H210   H     0.29176   0.18188   0.53256   0.00000  Uiso   1.00
H211   H     0.18436   0.07635   0.79899   0.00000  Uiso   1.00
H212   H     0.96138   0.26020   0.57216   0.00000  Uiso   1.00
H213   H     0.40228   0.20129   0.35883   0.00000  Uiso   1.00
H214   H     0.17581   0.97876   0.92064   0.00000  Uiso   1.00
H215   H     0.11949   0.06019   0.26348   0.00000  Uiso   1.00
H216   H     0.01412   0.11143   0.23166   0.00000  Uiso   1.00
H217   H     0.22322   0.08350   0.13047   0.00000  Uiso   1.00
H218   H     0.11582   0.97797   0.39690   0.00000  Uiso   1.00
H219   H     0.90575   0.18036   0.24581   0.00000  Uiso   1.00
H220   H     0.34665   0.12144   0.03247   0.00000  Uiso   1.00
H221   H     0.12018   0.89892   0.59429   0.00000  Uiso   1.00
O222   O     0.86543   0.25568   0.39490   0.00000  Uiso   1.00
O223   O     0.44388   0.17838   0.11503   0.00000  Uiso   1.00
O224   O     0.14675   0.88644   0.85211   0.00000  Uiso   1.00
N225   N     0.96274   0.23437   0.49974   0.00000  Uiso   1.00
N226   N     0.37495   0.17930   0.30027   0.00000  Uiso   1.00
N227   N     0.16324   0.97125   0.82552   0.00000  Uiso   1.00
N228   N     0.93281   0.19141   0.32413   0.00000  Uiso   1.00
N229   N     0.34502   0.13634   0.12466   0.00000  Uiso   1.00
N230   N     0.13330   0.92829   0.64991   0.00000  Uiso   1.00
C231   C     0.33042   0.86791   0.55733   0.00000  Uiso   1.00
C232   C     0.39475   0.85023   0.49855   0.00000  Uiso   1.00
C233   C     0.43215   0.81142   0.54694   0.00000  Uiso   1.00
C234   C     0.48942   0.80101   0.47911   0.00000  Uiso   1.00
C235   C     0.58638   0.76936   0.40488   0.00000  Uiso   1.00
C236   C     0.28114   0.86540   0.44357   0.00000  Uiso   1.00
C237   C     0.22303   0.83935   0.44574   0.00000  Uiso   1.00
C238   C     0.18466   0.84172   0.33162   0.00000  Uiso   1.00
C239   C     0.10522   0.83365   0.17206   0.00000  Uiso   1.00
C240   C     0.33950   0.92273   0.58833   0.00000  Uiso   1.00
C241   C     0.33044   0.94490   0.71221   0.00000  Uiso   1.00
C242   C     0.34119   0.99554   0.71997   0.00000  Uiso   1.00
C243   C     0.35236   0.07650   0.78516   0.00000  Uiso   1.00
C244   C     0.36562   0.91844   0.35081   0.00000  Uiso   1.00
C245   C     0.41386   0.87767   0.38638   0.00000  Uiso   1.00
C246   C     0.47110   0.86732   0.31846   0.00000  Uiso   1.00
C247   C     0.50858   0.82851   0.36674   0.00000  Uiso   1.00
C248   C     0.30026   0.89284   0.33140   0.00000  Uiso   1.00
C249   C     0.26197   0.89525   0.21726   0.00000  Uiso   1.00
C250   C     0.20382   0.86922   0.21925   0.00000  Uiso   1.00
C251   C     0.35862   0.95018   0.47616   0.00000  Uiso   1.00
C252   C     0.36939   0.00080   0.48372   0.00000  Uiso   1.00
C253   C     0.36034   0.02304   0.60759   0.00000  Uiso   1.00
H254   H     0.31554   0.84655   0.64465   0.00000  Uiso   1.00
H255   H     0.41734   0.79019   0.63375   0.00000  Uiso   1.00
H256   H     0.20824   0.81812   0.53256   0.00000  Uiso   1.00
H257   H     0.31564   0.92365   0.79899   0.00000  Uiso   1.00
H258   H     0.53862   0.73980   0.57216   0.00000  Uiso   1.00
H259   H     0.09772   0.79871   0.35883   0.00000  Uiso   1.00
H260   H     0.32419   0.02124   0.92064   0.00000  Uiso   1.00
H261   H     0.38051   0.93981   0.26348   0.00000  Uiso   1.00
H262   H     0.48588   0.88857   0.23166   0.00000  Uiso   1.00
H263   H     0.27678   0.91650   0.13047   0.00000  Uiso   1.00
H264   H     0.38418   0.02203   0.39690   0.00000  Uiso   1.00
H265   H     0.59425   0.81964   0.24581   0.00000  Uiso   1.00
H266   H     0.15335   0.87856   0.03247   0.00000  Uiso   1.00
H267   H     0.37982   0.10108   0.59429   0.00000  Uiso   1.00
O268   O     0.63457   0.74432   0.39490   0.00000  Uiso   1.00
O269   O     0.05612   0.82162   0.11503   0.00000  Uiso   1.00
O270   O     0.35325   0.11356   0.85211   0.00000  Uiso   1.00
N271   N     0.53726   0.76563   0.49974   0.00000  Uiso   1.00
N272   N     0.12505   0.82070   0.30027   0.00000  Uiso   1.00
N273   N     0.33676   0.02875   0.82552   0.00000  Uiso   1.00
N274   N     0.56719   0.80859   0.32413   0.00000  Uiso   1.00
N275   N     0.15498   0.86366   0.12466   0.00000  Uiso   1.00
N276   N     0.36670   0.07171   0.64991   0.00000  Uiso   1.00
C277   C     0.33042   0.63209   0.94267   0.00000  Uiso   1.00
C278   C     0.39475   0.64977   0.00145   0.00000  Uiso   1.00
C279   C     0.43215   0.68858   0.95306   0.00000  Uiso   1.00
C280   C     0.48942   0.69899   0.02089   0.00000  Uiso   1.00
C281   C     0.58638   0.73064   0.09512   0.00000  Uiso   1.00
C282   C     0.28114   0.63460   0.05643   0.00000  Uiso   1.00
C283   C     0.22303   0.66065   0.05426   0.00000  Uiso   1.00
C284   C     0.18466   0.65828   0.16838   0.00000  Uiso   1.00
C285   C     0.10522   0.66635   0.32794   0.00000  Uiso   1.00
C286   C     0.33950   0.57727   0.91167   0.00000  Uiso   1.00
C287   C     0.33044   0.55510   0.78779   0.00000  Uiso   1.00
C288   C     0.34119   0.50446   0.78003   0.00000  Uiso   1.00
C289   C     0.35236   0.42350   0.71484   0.00000  Uiso   1.00
C290   C     0.36562   0.58156   0.14919   0.00000  Uiso   1.00
C291   C     0.41386   0.62233   0.11362   0.00000  Uiso   1.00
C292   C     0.47110   0.63268   0.18154   0.00000  Uiso   1.00
C293   C     0.50858   0.67149   0.13326   0.00000  Uiso   1.00
C294   C     0.30026   0.60716   0.16860   0.00000  Uiso   1.00
C295   C     0.26197   0.60475   0.28274   0.00000  Uiso   1.00
C296   C     0.20382   0.63078   0.28075   0.00000  Uiso   1.00
C297   C     0.35862   0.54982   0.02384   0.00000  Uiso   1.00
C298   C     0.36939   0.49920   0.01628   0.00000  Uiso   1.00
C299   C     0.36034   0.47696   0.89241   0.00000  Uiso   1.00
H300   H     0.31554   0.65345   0.85535   0.00000  Uiso   1.00
H301   H     0.41734   0.70981   0.86625   0.00000  Uiso   1.00
H302   H     0.20824   0.68188   0.96744   0.00000  Uiso   1.00
H303   H     0.31564   0.57635   0.70101   0.00000  Uiso   1.00
H304   H     0.53862   0.76020   0.92784   0.00000  Uiso   1.00
H305   H     0.09772   0.70129   0.14117   0.00000  Uiso   1.00
H306   H     0.32419   0.47876   0.57936   0.00000  Uiso   1.00
H307   H     0.38051   0.56019   0.23652   0.00000  Uiso   1.00
H308   H     0.48588   0.61143   0.26834   0.00000  Uiso   1.00
H309   H     0.27678   0.58350   0.36953   0.00000  Uiso   1.00
H310   H     0.38418   0.47797   0.10310   0.00000  Uiso   1.00
H311   H     0.59425   0.68036   0.25419   0.00000  Uiso   1.00
H312   H     0.15335   0.62144   0.46753   0.00000  Uiso   1.00
H313   H     0.37982   0.39892   0.90571   0.00000  Uiso   1.00
O314   O     0.63457   0.75568   0.10510   0.00000  Uiso   1.00
O315   O     0.05612   0.67838   0.38497   0.00000  Uiso   1.00
O316   O     0.35325   0.38644   0.64789   0.00000  Uiso   1.00
N317   N     0.53726   0.73437   0.00026   0.00000  Uiso   1.00
N318   N     0.12505   0.67930   0.19973   0.00000  Uiso   1.00
N319   N     0.33676   0.47125   0.67448   0.00000  Uiso   1.00
N320   N     0.56719   0.69141   0.17587   0.00000  Uiso   1.00
N321   N     0.15498   0.63634   0.37534   0.00000  Uiso   1.00
N322   N     0.36670   0.42829   0.85009   0.00000  Uiso   1.00
C323   C     0.16958   0.36791   0.94267   0.00000  Uiso   1.00
C324   C     0.10525   0.35023   0.00145   0.00000  Uiso   1.00
C325   C     0.06785   0.31142   0.95306   0.00000  Uiso   1.00
C326   C     0.01058   0.30101   0.02089   0.00000  Uiso   1.00
C327   C     0.91362   0.26936   0.09512   0.00000  Uiso   1.00
C328   C     0.21886   0.36540   0.05643   0.00000  Uiso   1.00
C329   C     0.27697   0.33935   0.05426   0.00000  Uiso   1.00
C330   C     0.31534   0.34172   0.16838   0.00000  Uiso   1.00
C331   C     0.39478   0.33365   0.32794   0.00000  Uiso   1.00
C332   C     0.16050   0.42273   0.91167   0.00000  Uiso   1.00
C333   C     0.16956   0.44490   0.78779   0.00000  Uiso   1.00
C334   C     0.15881   0.49554   0.78003   0.00000  Uiso   1.00
C335   C     0.14764   0.57650   0.71484   0.00000  Uiso   1.00
C336   C     0.13438   0.41844   0.14919   0.00000  Uiso   1.00
C337   C     0.08614   0.37767   0.11362   0.00000  Uiso   1.00
C338   C     0.02890   0.36732   0.18154   0.00000  Uiso   1.00
C339   C     0.99142   0.32851   0.13326   0.00000  Uiso   1.00
C340   C     0.19974   0.39284   0.16860   0.00000  Uiso   1.00
C341   C     0.23803   0.39525   0.28274   0.00000  Uiso   1.00
C342   C     0.29618   0.36922   0.28075   0.00000  Uiso   1.00
C343   C     0.14138   0.45018   0.02384   0.00000  Uiso   1.00
C344   C     0.13061   0.50080   0.01628   0.00000  Uiso   1.00
C345   C     0.13966   0.52304   0.89241   0.00000  Uiso   1.00
H346   H     0.18446   0.34655   0.85535   0.00000  Uiso   1.00
H347   H     0.08266   0.29019   0.86625   0.00000  Uiso   1.00
H348   H     0.29176   0.31812   0.96744   0.00000  Uiso   1.00
H349   H     0.18436   0.42365   0.70101   0.00000  Uiso   1.00
H350   H     0.96138   0.23980   0.92784   0.00000  Uiso   1.00
H351   H     0.40228   0.29871   0.14117   0.00000  Uiso   1.00
H352   H     0.17581   0.52124   0.57936   0.00000  Uiso   1.00
H353   H     0.11949   0.43981   0.23652   0.00000  Uiso   1.00
H354   H     0.01412   0.38857   0.26834   0.00000  Uiso   1.00
H355   H     0.22322   0.41650   0.36953   0.00000  Uiso   1.00
H356   H     0.11582   0.52203   0.10310   0.00000  Uiso   1.00
H357   H     0.90575   0.31964   0.25419   0.00000  Uiso   1.00
H358   H     0.34665   0.37856   0.46753   0.00000  Uiso   1.00
H359   H     0.12018   0.60108   0.90571   0.00000  Uiso   1.00
O360   O     0.86543   0.24432   0.10510   0.00000  Uiso   1.00
O361   O     0.44388   0.32162   0.38497   0.00000  Uiso   1.00
O362   O     0.14675   0.61356   0.64789   0.00000  Uiso   1.00
N363   N     0.96274   0.26563   0.00026   0.00000  Uiso   1.00
N364   N     0.37495   0.32070   0.19973   0.00000  Uiso   1.00
N365   N     0.16324   0.52875   0.67448   0.00000  Uiso   1.00
N366   N     0.93281   0.30859   0.17587   0.00000  Uiso   1.00
N367   N     0.34502   0.36366   0.37534   0.00000  Uiso   1.00
N368   N     0.13330   0.57171   0.85009   0.00000  Uiso   1.00
