data_job_05247
_audit_creation_date              2018-12-19
_audit_creation_method            'Materials Studio'
_symmetry_space_group_name_H-M    'P1'
_symmetry_Int_Tables_number       1
_symmetry_cell_setting            triclinic
loop_
_symmetry_equiv_pos_as_xyz
  x,y,z
_cell_length_a                    13.4363
_cell_length_b                    10.4247
_cell_length_c                    37.0635
_cell_angle_alpha                 90.0000
_cell_angle_beta                  90.0000
_cell_angle_gamma                 90.0000
loop_
_atom_site_label
_atom_site_type_symbol
_atom_site_fract_x
_atom_site_fract_y
_atom_site_fract_z
_atom_site_U_iso_or_equiv
_atom_site_adp_type
_atom_site_occupancy
C1     C     0.35484   0.60509   0.39553   0.00000  Uiso   1.00
C2     C     0.33969   0.53776   0.43165   0.00000  Uiso   1.00
C3     C     0.40713   0.53587   0.46000   0.00000  Uiso   1.00
C4     C     0.37936   0.46891   0.49078   0.00000  Uiso   1.00
C5     C     0.36985   0.37386   0.54649   0.00000  Uiso   1.00
C6     C     0.34197   0.50211   0.36669   0.00000  Uiso   1.00
C7     C     0.41133   0.47027   0.34042   0.00000  Uiso   1.00
C8     C     0.38547   0.37330   0.31652   0.00000  Uiso   1.00
C9     C     0.37947   0.22297   0.27137   0.00000  Uiso   1.00
C10    C     0.26687   0.69619   0.39117   0.00000  Uiso   1.00
C11    C     0.27307   0.82753   0.38548   0.00000  Uiso   1.00
C12    C     0.18397   0.89396   0.38217   0.00000  Uiso   1.00
C13    C     0.06135   0.04497   0.37504   0.00000  Uiso   1.00
C14    C     0.18559   0.48952   0.39977   0.00000  Uiso   1.00
C15    C     0.24776   0.47498   0.43394   0.00000  Uiso   1.00
C16    C     0.21988   0.40801   0.46469   0.00000  Uiso   1.00
C17    C     0.28727   0.40603   0.49308   0.00000  Uiso   1.00
C18    C     0.25005   0.43934   0.36899   0.00000  Uiso   1.00
C19    C     0.22407   0.34240   0.34511   0.00000  Uiso   1.00
C20    C     0.29337   0.31042   0.31882   0.00000  Uiso   1.00
C21    C     0.17493   0.63342   0.39347   0.00000  Uiso   1.00
C22    C     0.08581   0.69966   0.39017   0.00000  Uiso   1.00
C23    C     0.09187   0.83108   0.38448   0.00000  Uiso   1.00
H24    H     0.42641   0.65395   0.39374   0.00000  Uiso   1.00
H25    H     0.47828   0.58445   0.45821   0.00000  Uiso   1.00
H26    H     0.48246   0.51887   0.33865   0.00000  Uiso   1.00
H27    H     0.34422   0.87607   0.38370   0.00000  Uiso   1.00
H28    H     0.49525   0.47968   0.53069   0.00000  Uiso   1.00
H29    H     0.50406   0.34142   0.27859   0.00000  Uiso   1.00
H30    H     0.21256   0.09465   0.37359   0.00000  Uiso   1.00
H31    H     0.11401   0.44065   0.40156   0.00000  Uiso   1.00
H32    H     0.14873   0.35944   0.46646   0.00000  Uiso   1.00
H33    H     0.15292   0.29385   0.34690   0.00000  Uiso   1.00
H34    H     0.01468   0.65105   0.39195   0.00000  Uiso   1.00
H35    H     0.22778   0.29704   0.53739   0.00000  Uiso   1.00
H36    H     0.23660   0.15879   0.28528   0.00000  Uiso   1.00
H37    H     0.94509   0.91202   0.38028   0.00000  Uiso   1.00
O38    O     0.39001   0.33876   0.57658   0.00000  Uiso   1.00
O39    O     0.40156   0.15738   0.24583   0.00000  Uiso   1.00
O40    O     0.01912   0.14560   0.37047   0.00000  Uiso   1.00
N41    N     0.42753   0.44786   0.52336   0.00000  Uiso   1.00
N42    N     0.43577   0.31858   0.28766   0.00000  Uiso   1.00
N43    N     0.16324   0.02278   0.37647   0.00000  Uiso   1.00
N44    N     0.28361   0.34959   0.52697   0.00000  Uiso   1.00
N45    N     0.29185   0.22031   0.29127   0.00000  Uiso   1.00
N46    N     0.01932   0.92451   0.38007   0.00000  Uiso   1.00
C47    C     0.13528   0.90075   0.08982   0.00000  Uiso   1.00
C48    C     0.12047   0.96661   0.05348   0.00000  Uiso   1.00
C49    C     0.18850   0.96822   0.02531   0.00000  Uiso   1.00
C50    C     0.16095   0.03377   0.99427   0.00000  Uiso   1.00
C51    C     0.15202   0.12670   0.93826   0.00000  Uiso   1.00
C52    C     0.12110   0.00461   0.11834   0.00000  Uiso   1.00
C53    C     0.18967   0.03817   0.14470   0.00000  Uiso   1.00
C54    C     0.16265   0.13570   0.16826   0.00000  Uiso   1.00
C55    C     0.15468   0.28757   0.21296   0.00000  Uiso   1.00
C56    C     0.04782   0.80884   0.09420   0.00000  Uiso   1.00
C57    C     0.05477   0.67778   0.10028   0.00000  Uiso   1.00
C58    C     0.96605   0.61048   0.10353   0.00000  Uiso   1.00
C59    C     0.84429   0.45838   0.11075   0.00000  Uiso   1.00
C60    C     0.96536   0.01427   0.08478   0.00000  Uiso   1.00
C61    C     0.02817   0.02827   0.05074   0.00000  Uiso   1.00
C62    C     0.00051   0.09382   0.01973   0.00000  Uiso   1.00
C63    C     0.06849   0.09553   0.99152   0.00000  Uiso   1.00
C64    C     0.02882   0.06627   0.11560   0.00000  Uiso   1.00
C65    C     0.00168   0.16377   0.13912   0.00000  Uiso   1.00
C66    C     0.07019   0.19747   0.16552   0.00000  Uiso   1.00
C67    C     0.95553   0.87049   0.09146   0.00000  Uiso   1.00
C68    C     0.86678   0.80338   0.09470   0.00000  Uiso   1.00
C69    C     0.87359   0.67225   0.10079   0.00000  Uiso   1.00
H70    H     0.20713   0.85275   0.09196   0.00000  Uiso   1.00
H71    H     0.25992   0.92051   0.02744   0.00000  Uiso   1.00
H72    H     0.26108   0.99043   0.14682   0.00000  Uiso   1.00
H73    H     0.12620   0.63010   0.10240   0.00000  Uiso   1.00
H74    H     0.27777   0.02286   0.95471   0.00000  Uiso   1.00
H75    H     0.28021   0.17026   0.20643   0.00000  Uiso   1.00
H76    H     0.99578   0.41044   0.11277   0.00000  Uiso   1.00
H77    H     0.89350   0.06228   0.08265   0.00000  Uiso   1.00
H78    H     0.92909   0.14153   0.01762   0.00000  Uiso   1.00
H79    H     0.93025   0.21145   0.13700   0.00000  Uiso   1.00
H80    H     0.79537   0.85113   0.09258   0.00000  Uiso   1.00
H81    H     0.00925   0.20225   0.94674   0.00000  Uiso   1.00
H82    H     0.01169   0.34966   0.19846   0.00000  Uiso   1.00
H83    H     0.72726   0.58983   0.10480   0.00000  Uiso   1.00
O84    O     0.17259   0.16094   0.90812   0.00000  Uiso   1.00
O85    O     0.17578   0.35432   0.23837   0.00000  Uiso   1.00
O86    O     0.80262   0.35744   0.11549   0.00000  Uiso   1.00
N87    N     0.20968   0.05418   0.96176   0.00000  Uiso   1.00
N88    N     0.21197   0.19201   0.19709   0.00000  Uiso   1.00
N89    N     0.94605   0.48164   0.10954   0.00000  Uiso   1.00
N90    N     0.06519   0.15071   0.95747   0.00000  Uiso   1.00
N91    N     0.06748   0.28854   0.19280   0.00000  Uiso   1.00
N92    N     0.80157   0.57817   0.10525   0.00000  Uiso   1.00
C93    C     0.64516   0.39491   0.89553   0.00000  Uiso   1.00
C94    C     0.66031   0.46224   0.93165   0.00000  Uiso   1.00
C95    C     0.59287   0.46413   0.96000   0.00000  Uiso   1.00
C96    C     0.62064   0.53109   0.99078   0.00000  Uiso   1.00
C97    C     0.63015   0.62614   0.04649   0.00000  Uiso   1.00
C98    C     0.65803   0.49789   0.86669   0.00000  Uiso   1.00
C99    C     0.58867   0.52973   0.84042   0.00000  Uiso   1.00
C100   C     0.61453   0.62670   0.81652   0.00000  Uiso   1.00
C101   C     0.62053   0.77703   0.77137   0.00000  Uiso   1.00
C102   C     0.73313   0.30381   0.89117   0.00000  Uiso   1.00
C103   C     0.72693   0.17247   0.88548   0.00000  Uiso   1.00
C104   C     0.81603   0.10604   0.88217   0.00000  Uiso   1.00
C105   C     0.93865   0.95503   0.87504   0.00000  Uiso   1.00
C106   C     0.81441   0.51048   0.89977   0.00000  Uiso   1.00
C107   C     0.75224   0.52502   0.93394   0.00000  Uiso   1.00
C108   C     0.78012   0.59199   0.96469   0.00000  Uiso   1.00
C109   C     0.71273   0.59397   0.99308   0.00000  Uiso   1.00
C110   C     0.74995   0.56066   0.86899   0.00000  Uiso   1.00
C111   C     0.77593   0.65760   0.84511   0.00000  Uiso   1.00
C112   C     0.70663   0.68958   0.81882   0.00000  Uiso   1.00
C113   C     0.82507   0.36658   0.89347   0.00000  Uiso   1.00
C114   C     0.91419   0.30034   0.89017   0.00000  Uiso   1.00
C115   C     0.90813   0.16892   0.88448   0.00000  Uiso   1.00
H116   H     0.57359   0.34605   0.89374   0.00000  Uiso   1.00
H117   H     0.52172   0.41555   0.95821   0.00000  Uiso   1.00
H118   H     0.51754   0.48113   0.83865   0.00000  Uiso   1.00
H119   H     0.65578   0.12393   0.88370   0.00000  Uiso   1.00
H120   H     0.50475   0.52032   0.03069   0.00000  Uiso   1.00
H121   H     0.49594   0.65858   0.77859   0.00000  Uiso   1.00
H122   H     0.78744   0.90535   0.87359   0.00000  Uiso   1.00
H123   H     0.88599   0.55935   0.90156   0.00000  Uiso   1.00
H124   H     0.85127   0.64056   0.96646   0.00000  Uiso   1.00
H125   H     0.84708   0.70615   0.84690   0.00000  Uiso   1.00
H126   H     0.98532   0.34895   0.89195   0.00000  Uiso   1.00
H127   H     0.77222   0.70296   0.03739   0.00000  Uiso   1.00
H128   H     0.76340   0.84121   0.78528   0.00000  Uiso   1.00
H129   H     0.05491   0.08798   0.88028   0.00000  Uiso   1.00
O130   O     0.60999   0.66124   0.07658   0.00000  Uiso   1.00
O131   O     0.59844   0.84262   0.74583   0.00000  Uiso   1.00
O132   O     0.98088   0.85440   0.87047   0.00000  Uiso   1.00
N133   N     0.57247   0.55214   0.02336   0.00000  Uiso   1.00
N134   N     0.56423   0.68142   0.78766   0.00000  Uiso   1.00
N135   N     0.83676   0.97722   0.87647   0.00000  Uiso   1.00
N136   N     0.71639   0.65041   0.02697   0.00000  Uiso   1.00
N137   N     0.70815   0.77969   0.79127   0.00000  Uiso   1.00
N138   N     0.98068   0.07549   0.88007   0.00000  Uiso   1.00
C139   C     0.86472   0.09925   0.58982   0.00000  Uiso   1.00
C140   C     0.87953   0.03339   0.55348   0.00000  Uiso   1.00
C141   C     0.81150   0.03178   0.52531   0.00000  Uiso   1.00
C142   C     0.83905   0.96623   0.49427   0.00000  Uiso   1.00
C143   C     0.84798   0.87330   0.43826   0.00000  Uiso   1.00
C144   C     0.87890   0.99539   0.61834   0.00000  Uiso   1.00
C145   C     0.81033   0.96183   0.64470   0.00000  Uiso   1.00
C146   C     0.83735   0.86430   0.66826   0.00000  Uiso   1.00
C147   C     0.84532   0.71243   0.71296   0.00000  Uiso   1.00
C148   C     0.95218   0.19116   0.59420   0.00000  Uiso   1.00
C149   C     0.94523   0.32222   0.60028   0.00000  Uiso   1.00
C150   C     0.03395   0.38952   0.60353   0.00000  Uiso   1.00
C151   C     0.15571   0.54162   0.61075   0.00000  Uiso   1.00
C152   C     0.03464   0.98573   0.58478   0.00000  Uiso   1.00
C153   C     0.97183   0.97173   0.55074   0.00000  Uiso   1.00
C154   C     0.99949   0.90618   0.51973   0.00000  Uiso   1.00
C155   C     0.93151   0.90447   0.49152   0.00000  Uiso   1.00
C156   C     0.97118   0.93373   0.61560   0.00000  Uiso   1.00
C157   C     0.99832   0.83623   0.63912   0.00000  Uiso   1.00
C158   C     0.92981   0.80253   0.66552   0.00000  Uiso   1.00
C159   C     0.04447   0.12951   0.59146   0.00000  Uiso   1.00
C160   C     0.13322   0.19662   0.59470   0.00000  Uiso   1.00
C161   C     0.12641   0.32775   0.60079   0.00000  Uiso   1.00
H162   H     0.79287   0.14725   0.59196   0.00000  Uiso   1.00
H163   H     0.74008   0.07949   0.52744   0.00000  Uiso   1.00
H164   H     0.73892   0.00957   0.64682   0.00000  Uiso   1.00
H165   H     0.87380   0.36990   0.60240   0.00000  Uiso   1.00
H166   H     0.72223   0.97714   0.45471   0.00000  Uiso   1.00
H167   H     0.71979   0.82974   0.70643   0.00000  Uiso   1.00
H168   H     0.00422   0.58956   0.61277   0.00000  Uiso   1.00
H169   H     0.10650   0.93772   0.58265   0.00000  Uiso   1.00
H170   H     0.07091   0.85847   0.51762   0.00000  Uiso   1.00
H171   H     0.06975   0.78855   0.63700   0.00000  Uiso   1.00
H172   H     0.20463   0.14887   0.59258   0.00000  Uiso   1.00
H173   H     0.99075   0.79775   0.44674   0.00000  Uiso   1.00
H174   H     0.98831   0.65034   0.69846   0.00000  Uiso   1.00
H175   H     0.27274   0.41017   0.60480   0.00000  Uiso   1.00
O176   O     0.82741   0.83906   0.40812   0.00000  Uiso   1.00
O177   O     0.82422   0.64568   0.73837   0.00000  Uiso   1.00
O178   O     0.19738   0.64256   0.61549   0.00000  Uiso   1.00
N179   N     0.79032   0.94582   0.46176   0.00000  Uiso   1.00
N180   N     0.78803   0.80799   0.69709   0.00000  Uiso   1.00
N181   N     0.05395   0.51836   0.60954   0.00000  Uiso   1.00
N182   N     0.93481   0.84929   0.45747   0.00000  Uiso   1.00
N183   N     0.93252   0.71146   0.69280   0.00000  Uiso   1.00
N184   N     0.19843   0.42183   0.60525   0.00000  Uiso   1.00
C185   C     0.85484   0.39491   0.39553   0.00000  Uiso   1.00
C186   C     0.83969   0.46224   0.43165   0.00000  Uiso   1.00
C187   C     0.90713   0.46413   0.46000   0.00000  Uiso   1.00
C188   C     0.87936   0.53109   0.49078   0.00000  Uiso   1.00
C189   C     0.86985   0.62614   0.54649   0.00000  Uiso   1.00
C190   C     0.84197   0.49789   0.36669   0.00000  Uiso   1.00
C191   C     0.91133   0.52973   0.34042   0.00000  Uiso   1.00
C192   C     0.88547   0.62670   0.31652   0.00000  Uiso   1.00
C193   C     0.87947   0.77703   0.27137   0.00000  Uiso   1.00
C194   C     0.76687   0.30381   0.39117   0.00000  Uiso   1.00
C195   C     0.77307   0.17247   0.38548   0.00000  Uiso   1.00
C196   C     0.68397   0.10604   0.38217   0.00000  Uiso   1.00
C197   C     0.56135   0.95503   0.37504   0.00000  Uiso   1.00
C198   C     0.68559   0.51048   0.39977   0.00000  Uiso   1.00
C199   C     0.74776   0.52502   0.43394   0.00000  Uiso   1.00
C200   C     0.71988   0.59199   0.46469   0.00000  Uiso   1.00
C201   C     0.78727   0.59397   0.49308   0.00000  Uiso   1.00
C202   C     0.75005   0.56066   0.36899   0.00000  Uiso   1.00
C203   C     0.72407   0.65760   0.34511   0.00000  Uiso   1.00
C204   C     0.79337   0.68958   0.31882   0.00000  Uiso   1.00
C205   C     0.67493   0.36658   0.39347   0.00000  Uiso   1.00
C206   C     0.58581   0.30034   0.39017   0.00000  Uiso   1.00
C207   C     0.59187   0.16892   0.38448   0.00000  Uiso   1.00
H208   H     0.92641   0.34605   0.39374   0.00000  Uiso   1.00
H209   H     0.97828   0.41555   0.45821   0.00000  Uiso   1.00
H210   H     0.98246   0.48113   0.33865   0.00000  Uiso   1.00
H211   H     0.84422   0.12393   0.38370   0.00000  Uiso   1.00
H212   H     0.99525   0.52032   0.53069   0.00000  Uiso   1.00
H213   H     0.00406   0.65858   0.27859   0.00000  Uiso   1.00
H214   H     0.71256   0.90535   0.37359   0.00000  Uiso   1.00
H215   H     0.61401   0.55935   0.40156   0.00000  Uiso   1.00
H216   H     0.64873   0.64056   0.46646   0.00000  Uiso   1.00
H217   H     0.65292   0.70615   0.34690   0.00000  Uiso   1.00
H218   H     0.51468   0.34895   0.39195   0.00000  Uiso   1.00
H219   H     0.72778   0.70296   0.53739   0.00000  Uiso   1.00
H220   H     0.73660   0.84121   0.28528   0.00000  Uiso   1.00
H221   H     0.44509   0.08798   0.38028   0.00000  Uiso   1.00
O222   O     0.89001   0.66124   0.57658   0.00000  Uiso   1.00
O223   O     0.90156   0.84262   0.24583   0.00000  Uiso   1.00
O224   O     0.51912   0.85440   0.37047   0.00000  Uiso   1.00
N225   N     0.92753   0.55214   0.52336   0.00000  Uiso   1.00
N226   N     0.93577   0.68142   0.28766   0.00000  Uiso   1.00
N227   N     0.66324   0.97722   0.37647   0.00000  Uiso   1.00
N228   N     0.78361   0.65041   0.52697   0.00000  Uiso   1.00
N229   N     0.79185   0.77969   0.29127   0.00000  Uiso   1.00
N230   N     0.51932   0.07549   0.38007   0.00000  Uiso   1.00
C231   C     0.63528   0.09925   0.08982   0.00000  Uiso   1.00
C232   C     0.62047   0.03339   0.05348   0.00000  Uiso   1.00
C233   C     0.68850   0.03178   0.02531   0.00000  Uiso   1.00
C234   C     0.66095   0.96623   0.99427   0.00000  Uiso   1.00
C235   C     0.65202   0.87330   0.93826   0.00000  Uiso   1.00
C236   C     0.62110   0.99539   0.11834   0.00000  Uiso   1.00
C237   C     0.68967   0.96183   0.14470   0.00000  Uiso   1.00
C238   C     0.66265   0.86430   0.16826   0.00000  Uiso   1.00
C239   C     0.65468   0.71243   0.21296   0.00000  Uiso   1.00
C240   C     0.54782   0.19116   0.09420   0.00000  Uiso   1.00
C241   C     0.55477   0.32222   0.10028   0.00000  Uiso   1.00
C242   C     0.46605   0.38952   0.10353   0.00000  Uiso   1.00
C243   C     0.34429   0.54162   0.11075   0.00000  Uiso   1.00
C244   C     0.46536   0.98573   0.08478   0.00000  Uiso   1.00
C245   C     0.52817   0.97173   0.05074   0.00000  Uiso   1.00
C246   C     0.50051   0.90618   0.01973   0.00000  Uiso   1.00
C247   C     0.56849   0.90447   0.99152   0.00000  Uiso   1.00
C248   C     0.52882   0.93373   0.11560   0.00000  Uiso   1.00
C249   C     0.50168   0.83623   0.13912   0.00000  Uiso   1.00
C250   C     0.57019   0.80253   0.16552   0.00000  Uiso   1.00
C251   C     0.45553   0.12951   0.09146   0.00000  Uiso   1.00
C252   C     0.36678   0.19662   0.09470   0.00000  Uiso   1.00
C253   C     0.37359   0.32775   0.10079   0.00000  Uiso   1.00
H254   H     0.70713   0.14725   0.09196   0.00000  Uiso   1.00
H255   H     0.75992   0.07949   0.02744   0.00000  Uiso   1.00
H256   H     0.76108   0.00957   0.14682   0.00000  Uiso   1.00
H257   H     0.62620   0.36990   0.10240   0.00000  Uiso   1.00
H258   H     0.77777   0.97714   0.95471   0.00000  Uiso   1.00
H259   H     0.78021   0.82974   0.20643   0.00000  Uiso   1.00
H260   H     0.49578   0.58956   0.11277   0.00000  Uiso   1.00
H261   H     0.39350   0.93772   0.08265   0.00000  Uiso   1.00
H262   H     0.42909   0.85847   0.01762   0.00000  Uiso   1.00
H263   H     0.43025   0.78855   0.13700   0.00000  Uiso   1.00
H264   H     0.29537   0.14887   0.09258   0.00000  Uiso   1.00
H265   H     0.50925   0.79775   0.94674   0.00000  Uiso   1.00
H266   H     0.51169   0.65034   0.19846   0.00000  Uiso   1.00
H267   H     0.22726   0.41017   0.10480   0.00000  Uiso   1.00
O268   O     0.67259   0.83906   0.90812   0.00000  Uiso   1.00
O269   O     0.67578   0.64568   0.23837   0.00000  Uiso   1.00
O270   O     0.30262   0.64256   0.11549   0.00000  Uiso   1.00
N271   N     0.70968   0.94582   0.96176   0.00000  Uiso   1.00
N272   N     0.71197   0.80799   0.19709   0.00000  Uiso   1.00
N273   N     0.44605   0.51836   0.10954   0.00000  Uiso   1.00
N274   N     0.56519   0.84929   0.95747   0.00000  Uiso   1.00
N275   N     0.56748   0.71146   0.19280   0.00000  Uiso   1.00
N276   N     0.30157   0.42183   0.10525   0.00000  Uiso   1.00
C277   C     0.14516   0.60509   0.89553   0.00000  Uiso   1.00
C278   C     0.16031   0.53776   0.93165   0.00000  Uiso   1.00
C279   C     0.09287   0.53587   0.96000   0.00000  Uiso   1.00
C280   C     0.12064   0.46891   0.99078   0.00000  Uiso   1.00
C281   C     0.13015   0.37386   0.04649   0.00000  Uiso   1.00
C282   C     0.15803   0.50211   0.86669   0.00000  Uiso   1.00
C283   C     0.08867   0.47027   0.84042   0.00000  Uiso   1.00
C284   C     0.11453   0.37330   0.81652   0.00000  Uiso   1.00
C285   C     0.12053   0.22297   0.77137   0.00000  Uiso   1.00
C286   C     0.23313   0.69619   0.89117   0.00000  Uiso   1.00
C287   C     0.22693   0.82753   0.88548   0.00000  Uiso   1.00
C288   C     0.31603   0.89396   0.88217   0.00000  Uiso   1.00
C289   C     0.43865   0.04497   0.87504   0.00000  Uiso   1.00
C290   C     0.31441   0.48952   0.89977   0.00000  Uiso   1.00
C291   C     0.25224   0.47498   0.93394   0.00000  Uiso   1.00
C292   C     0.28012   0.40801   0.96469   0.00000  Uiso   1.00
C293   C     0.21273   0.40603   0.99308   0.00000  Uiso   1.00
C294   C     0.24995   0.43934   0.86899   0.00000  Uiso   1.00
C295   C     0.27593   0.34240   0.84511   0.00000  Uiso   1.00
C296   C     0.20663   0.31042   0.81882   0.00000  Uiso   1.00
C297   C     0.32507   0.63342   0.89347   0.00000  Uiso   1.00
C298   C     0.41419   0.69966   0.89017   0.00000  Uiso   1.00
C299   C     0.40813   0.83108   0.88448   0.00000  Uiso   1.00
H300   H     0.07359   0.65395   0.89374   0.00000  Uiso   1.00
H301   H     0.02172   0.58445   0.95821   0.00000  Uiso   1.00
H302   H     0.01754   0.51887   0.83865   0.00000  Uiso   1.00
H303   H     0.15578   0.87607   0.88370   0.00000  Uiso   1.00
H304   H     0.00475   0.47968   0.03069   0.00000  Uiso   1.00
H305   H     0.99594   0.34142   0.77859   0.00000  Uiso   1.00
H306   H     0.28744   0.09465   0.87359   0.00000  Uiso   1.00
H307   H     0.38599   0.44065   0.90156   0.00000  Uiso   1.00
H308   H     0.35127   0.35944   0.96646   0.00000  Uiso   1.00
H309   H     0.34708   0.29385   0.84690   0.00000  Uiso   1.00
H310   H     0.48532   0.65105   0.89195   0.00000  Uiso   1.00
H311   H     0.27222   0.29704   0.03739   0.00000  Uiso   1.00
H312   H     0.26340   0.15879   0.78528   0.00000  Uiso   1.00
H313   H     0.55491   0.91202   0.88028   0.00000  Uiso   1.00
O314   O     0.10999   0.33876   0.07658   0.00000  Uiso   1.00
O315   O     0.09844   0.15738   0.74583   0.00000  Uiso   1.00
O316   O     0.48088   0.14560   0.87047   0.00000  Uiso   1.00
N317   N     0.07247   0.44786   0.02336   0.00000  Uiso   1.00
N318   N     0.06423   0.31858   0.78766   0.00000  Uiso   1.00
N319   N     0.33676   0.02278   0.87647   0.00000  Uiso   1.00
N320   N     0.21639   0.34959   0.02697   0.00000  Uiso   1.00
N321   N     0.20815   0.22031   0.79127   0.00000  Uiso   1.00
N322   N     0.48068   0.92451   0.88007   0.00000  Uiso   1.00
C323   C     0.36472   0.90075   0.58982   0.00000  Uiso   1.00
C324   C     0.37953   0.96661   0.55348   0.00000  Uiso   1.00
C325   C     0.31150   0.96822   0.52531   0.00000  Uiso   1.00
C326   C     0.33905   0.03377   0.49427   0.00000  Uiso   1.00
C327   C     0.34798   0.12670   0.43826   0.00000  Uiso   1.00
C328   C     0.37890   0.00461   0.61834   0.00000  Uiso   1.00
C329   C     0.31033   0.03817   0.64470   0.00000  Uiso   1.00
C330   C     0.33735   0.13570   0.66826   0.00000  Uiso   1.00
C331   C     0.34532   0.28757   0.71296   0.00000  Uiso   1.00
C332   C     0.45218   0.80884   0.59420   0.00000  Uiso   1.00
C333   C     0.44523   0.67778   0.60028   0.00000  Uiso   1.00
C334   C     0.53395   0.61048   0.60353   0.00000  Uiso   1.00
C335   C     0.65571   0.45838   0.61075   0.00000  Uiso   1.00
C336   C     0.53464   0.01427   0.58478   0.00000  Uiso   1.00
C337   C     0.47183   0.02827   0.55074   0.00000  Uiso   1.00
C338   C     0.49949   0.09382   0.51973   0.00000  Uiso   1.00
C339   C     0.43151   0.09553   0.49152   0.00000  Uiso   1.00
C340   C     0.47118   0.06627   0.61560   0.00000  Uiso   1.00
C341   C     0.49832   0.16377   0.63912   0.00000  Uiso   1.00
C342   C     0.42981   0.19747   0.66552   0.00000  Uiso   1.00
C343   C     0.54447   0.87049   0.59146   0.00000  Uiso   1.00
C344   C     0.63322   0.80338   0.59470   0.00000  Uiso   1.00
C345   C     0.62641   0.67225   0.60079   0.00000  Uiso   1.00
H346   H     0.29287   0.85275   0.59196   0.00000  Uiso   1.00
H347   H     0.24008   0.92051   0.52744   0.00000  Uiso   1.00
H348   H     0.23892   0.99043   0.64682   0.00000  Uiso   1.00
H349   H     0.37380   0.63010   0.60240   0.00000  Uiso   1.00
H350   H     0.22223   0.02286   0.45471   0.00000  Uiso   1.00
H351   H     0.21979   0.17026   0.70643   0.00000  Uiso   1.00
H352   H     0.50422   0.41044   0.61277   0.00000  Uiso   1.00
H353   H     0.60650   0.06228   0.58265   0.00000  Uiso   1.00
H354   H     0.57091   0.14153   0.51762   0.00000  Uiso   1.00
H355   H     0.56975   0.21145   0.63700   0.00000  Uiso   1.00
H356   H     0.70463   0.85113   0.59258   0.00000  Uiso   1.00
H357   H     0.49075   0.20225   0.44674   0.00000  Uiso   1.00
H358   H     0.48831   0.34966   0.69846   0.00000  Uiso   1.00
H359   H     0.77274   0.58983   0.60480   0.00000  Uiso   1.00
O360   O     0.32741   0.16094   0.40812   0.00000  Uiso   1.00
O361   O     0.32422   0.35432   0.73837   0.00000  Uiso   1.00
O362   O     0.69738   0.35744   0.61549   0.00000  Uiso   1.00
N363   N     0.29032   0.05418   0.46176   0.00000  Uiso   1.00
N364   N     0.28803   0.19201   0.69709   0.00000  Uiso   1.00
N365   N     0.55395   0.48164   0.60954   0.00000  Uiso   1.00
N366   N     0.43481   0.15071   0.45747   0.00000  Uiso   1.00
N367   N     0.43252   0.28854   0.69280   0.00000  Uiso   1.00
N368   N     0.69843   0.57817   0.60525   0.00000  Uiso   1.00
