data_job_03178
_audit_creation_date              2018-12-19
_audit_creation_method            'Materials Studio'
_symmetry_space_group_name_H-M    'P1'
_symmetry_Int_Tables_number       1
_symmetry_cell_setting            triclinic
loop_
_symmetry_equiv_pos_as_xyz
  x,y,z
_cell_length_a                    16.2239
_cell_length_b                    8.6978
_cell_length_c                    21.5761
_cell_angle_alpha                 90.0000
_cell_angle_beta                  83.3014
_cell_angle_gamma                 90.0000
loop_
_atom_site_label
_atom_site_type_symbol
_atom_site_fract_x
_atom_site_fract_y
_atom_site_fract_z
_atom_site_U_iso_or_equiv
_atom_site_adp_type
_atom_site_occupancy
C1     C     0.14538   0.26755   0.33530   0.00000  Uiso   1.00
C2     C     0.11453   0.41598   0.36774   0.00000  Uiso   1.00
C3     C     0.03391   0.44454   0.39428   0.00000  Uiso   1.00
C4     C     0.01819   0.58756   0.42172   0.00000  Uiso   1.00
C5     C     0.96074   0.80127   0.47193   0.00000  Uiso   1.00
C6     C     0.18350   0.31389   0.27002   0.00000  Uiso   1.00
C7     C     0.16086   0.25659   0.21440   0.00000  Uiso   1.00
C8     C     0.20320   0.31365   0.15958   0.00000  Uiso   1.00
C9     C     0.25286   0.36877   0.05808   0.00000  Uiso   1.00
C10    C     0.21724   0.21204   0.36918   0.00000  Uiso   1.00
C11    C     0.22298   0.06909   0.39692   0.00000  Uiso   1.00
C12    C     0.29374   0.04039   0.42558   0.00000  Uiso   1.00
C13    C     0.39578   0.93738   0.47805   0.00000  Uiso   1.00
C14    C     0.26084   0.47076   0.33683   0.00000  Uiso   1.00
C15    C     0.17725   0.52636   0.36857   0.00000  Uiso   1.00
C16    C     0.16164   0.66936   0.39597   0.00000  Uiso   1.00
C17    C     0.08101   0.69813   0.42255   0.00000  Uiso   1.00
C18    C     0.24621   0.42426   0.27085   0.00000  Uiso   1.00
C19    C     0.28860   0.48141   0.21609   0.00000  Uiso   1.00
C20    C     0.26603   0.42422   0.16041   0.00000  Uiso   1.00
C21    C     0.27995   0.32241   0.37001   0.00000  Uiso   1.00
C22    C     0.35071   0.29392   0.39862   0.00000  Uiso   1.00
C23    C     0.35656   0.15096   0.42641   0.00000  Uiso   1.00
H24    H     0.09657   0.18162   0.33464   0.00000  Uiso   1.00
H25    H     0.98539   0.35910   0.39362   0.00000  Uiso   1.00
H26    H     0.11234   0.17117   0.21377   0.00000  Uiso   1.00
H27    H     0.17444   0.98371   0.39627   0.00000  Uiso   1.00
H28    H     0.88979   0.60456   0.45935   0.00000  Uiso   1.00
H29    H     0.15747   0.20825   0.08013   0.00000  Uiso   1.00
H30    H     0.28843   0.81295   0.46497   0.00000  Uiso   1.00
H31    H     0.30966   0.55669   0.33748   0.00000  Uiso   1.00
H32    H     0.21018   0.75475   0.39661   0.00000  Uiso   1.00
H33    H     0.33712   0.56681   0.21676   0.00000  Uiso   1.00
H34    H     0.39922   0.37936   0.39926   0.00000  Uiso   1.00
H35    H     0.07223   0.92569   0.46178   0.00000  Uiso   1.00
H36    H     0.33992   0.52937   0.08255   0.00000  Uiso   1.00
H37    H     0.47088   0.13408   0.46739   0.00000  Uiso   1.00
O38    O     0.91172   0.88867   0.49939   0.00000  Uiso   1.00
O39    O     0.26292   0.36870   0.00187   0.00000  Uiso   1.00
O40    O     0.43473   0.85008   0.50677   0.00000  Uiso   1.00
N41    N     0.94638   0.65295   0.45182   0.00000  Uiso   1.00
N42    N     0.19664   0.28244   0.09726   0.00000  Uiso   1.00
N43    N     0.31909   0.91285   0.45704   0.00000  Uiso   1.00
N44    N     0.04456   0.82574   0.45312   0.00000  Uiso   1.00
N45    N     0.29481   0.45523   0.09857   0.00000  Uiso   1.00
N46    N     0.41726   0.08564   0.45835   0.00000  Uiso   1.00
C47    C     0.85462   0.26755   0.16470   0.00000  Uiso   1.00
C48    C     0.88547   0.41598   0.13226   0.00000  Uiso   1.00
C49    C     0.96609   0.44454   0.10572   0.00000  Uiso   1.00
C50    C     0.98181   0.58756   0.07828   0.00000  Uiso   1.00
C51    C     0.03926   0.80127   0.02807   0.00000  Uiso   1.00
C52    C     0.81650   0.31389   0.22998   0.00000  Uiso   1.00
C53    C     0.83914   0.25659   0.28560   0.00000  Uiso   1.00
C54    C     0.79680   0.31365   0.34042   0.00000  Uiso   1.00
C55    C     0.74714   0.36877   0.44192   0.00000  Uiso   1.00
C56    C     0.78276   0.21204   0.13082   0.00000  Uiso   1.00
C57    C     0.77702   0.06909   0.10308   0.00000  Uiso   1.00
C58    C     0.70626   0.04039   0.07442   0.00000  Uiso   1.00
C59    C     0.60422   0.93738   0.02195   0.00000  Uiso   1.00
C60    C     0.73916   0.47076   0.16317   0.00000  Uiso   1.00
C61    C     0.82275   0.52636   0.13143   0.00000  Uiso   1.00
C62    C     0.83836   0.66936   0.10403   0.00000  Uiso   1.00
C63    C     0.91899   0.69813   0.07745   0.00000  Uiso   1.00
C64    C     0.75379   0.42426   0.22915   0.00000  Uiso   1.00
C65    C     0.71140   0.48141   0.28391   0.00000  Uiso   1.00
C66    C     0.73397   0.42422   0.33959   0.00000  Uiso   1.00
C67    C     0.72005   0.32241   0.12999   0.00000  Uiso   1.00
C68    C     0.64929   0.29392   0.10138   0.00000  Uiso   1.00
C69    C     0.64344   0.15096   0.07359   0.00000  Uiso   1.00
H70    H     0.90343   0.18162   0.16536   0.00000  Uiso   1.00
H71    H     0.01461   0.35910   0.10638   0.00000  Uiso   1.00
H72    H     0.88766   0.17117   0.28623   0.00000  Uiso   1.00
H73    H     0.82556   0.98371   0.10373   0.00000  Uiso   1.00
H74    H     0.11021   0.60456   0.04065   0.00000  Uiso   1.00
H75    H     0.84253   0.20825   0.41987   0.00000  Uiso   1.00
H76    H     0.71157   0.81295   0.03503   0.00000  Uiso   1.00
H77    H     0.69034   0.55669   0.16252   0.00000  Uiso   1.00
H78    H     0.78982   0.75475   0.10339   0.00000  Uiso   1.00
H79    H     0.66288   0.56681   0.28324   0.00000  Uiso   1.00
H80    H     0.60078   0.37936   0.10074   0.00000  Uiso   1.00
H81    H     0.92777   0.92569   0.03822   0.00000  Uiso   1.00
H82    H     0.66008   0.52937   0.41745   0.00000  Uiso   1.00
H83    H     0.52912   0.13408   0.03261   0.00000  Uiso   1.00
O84    O     0.08828   0.88867   0.00061   0.00000  Uiso   1.00
O85    O     0.73708   0.36870   0.49813   0.00000  Uiso   1.00
O86    O     0.56527   0.85008   0.99323   0.00000  Uiso   1.00
N87    N     0.05362   0.65295   0.04818   0.00000  Uiso   1.00
N88    N     0.80336   0.28244   0.40274   0.00000  Uiso   1.00
N89    N     0.68091   0.91285   0.04296   0.00000  Uiso   1.00
N90    N     0.95544   0.82574   0.04688   0.00000  Uiso   1.00
N91    N     0.70519   0.45523   0.40143   0.00000  Uiso   1.00
N92    N     0.58274   0.08564   0.04165   0.00000  Uiso   1.00
C93    C     0.85462   0.73245   0.66470   0.00000  Uiso   1.00
C94    C     0.88547   0.58402   0.63226   0.00000  Uiso   1.00
C95    C     0.96609   0.55546   0.60572   0.00000  Uiso   1.00
C96    C     0.98181   0.41244   0.57828   0.00000  Uiso   1.00
C97    C     0.03926   0.19873   0.52807   0.00000  Uiso   1.00
C98    C     0.81650   0.68611   0.72998   0.00000  Uiso   1.00
C99    C     0.83914   0.74341   0.78560   0.00000  Uiso   1.00
C100   C     0.79680   0.68635   0.84042   0.00000  Uiso   1.00
C101   C     0.74714   0.63123   0.94192   0.00000  Uiso   1.00
C102   C     0.78276   0.78796   0.63082   0.00000  Uiso   1.00
C103   C     0.77702   0.93091   0.60308   0.00000  Uiso   1.00
C104   C     0.70626   0.95961   0.57442   0.00000  Uiso   1.00
C105   C     0.60422   0.06262   0.52195   0.00000  Uiso   1.00
C106   C     0.73916   0.52924   0.66317   0.00000  Uiso   1.00
C107   C     0.82275   0.47364   0.63143   0.00000  Uiso   1.00
C108   C     0.83836   0.33064   0.60403   0.00000  Uiso   1.00
C109   C     0.91899   0.30187   0.57745   0.00000  Uiso   1.00
C110   C     0.75379   0.57574   0.72915   0.00000  Uiso   1.00
C111   C     0.71140   0.51859   0.78391   0.00000  Uiso   1.00
C112   C     0.73397   0.57578   0.83959   0.00000  Uiso   1.00
C113   C     0.72005   0.67759   0.62999   0.00000  Uiso   1.00
C114   C     0.64929   0.70608   0.60138   0.00000  Uiso   1.00
C115   C     0.64344   0.84904   0.57359   0.00000  Uiso   1.00
H116   H     0.90343   0.81838   0.66536   0.00000  Uiso   1.00
H117   H     0.01461   0.64090   0.60638   0.00000  Uiso   1.00
H118   H     0.88766   0.82883   0.78623   0.00000  Uiso   1.00
H119   H     0.82556   0.01629   0.60373   0.00000  Uiso   1.00
H120   H     0.11021   0.39544   0.54065   0.00000  Uiso   1.00
H121   H     0.84253   0.79175   0.91987   0.00000  Uiso   1.00
H122   H     0.71157   0.18705   0.53503   0.00000  Uiso   1.00
H123   H     0.69034   0.44331   0.66252   0.00000  Uiso   1.00
H124   H     0.78982   0.24525   0.60339   0.00000  Uiso   1.00
H125   H     0.66288   0.43319   0.78324   0.00000  Uiso   1.00
H126   H     0.60078   0.62064   0.60074   0.00000  Uiso   1.00
H127   H     0.92777   0.07431   0.53822   0.00000  Uiso   1.00
H128   H     0.66008   0.47063   0.91745   0.00000  Uiso   1.00
H129   H     0.52912   0.86592   0.53261   0.00000  Uiso   1.00
O130   O     0.08828   0.11133   0.50061   0.00000  Uiso   1.00
O131   O     0.73708   0.63130   0.99813   0.00000  Uiso   1.00
O132   O     0.56527   0.14992   0.49323   0.00000  Uiso   1.00
N133   N     0.05362   0.34705   0.54818   0.00000  Uiso   1.00
N134   N     0.80336   0.71756   0.90274   0.00000  Uiso   1.00
N135   N     0.68091   0.08715   0.54296   0.00000  Uiso   1.00
N136   N     0.95544   0.17426   0.54688   0.00000  Uiso   1.00
N137   N     0.70519   0.54477   0.90143   0.00000  Uiso   1.00
N138   N     0.58274   0.91436   0.54165   0.00000  Uiso   1.00
C139   C     0.14538   0.73245   0.83530   0.00000  Uiso   1.00
C140   C     0.11453   0.58402   0.86774   0.00000  Uiso   1.00
C141   C     0.03391   0.55546   0.89428   0.00000  Uiso   1.00
C142   C     0.01819   0.41244   0.92172   0.00000  Uiso   1.00
C143   C     0.96074   0.19873   0.97193   0.00000  Uiso   1.00
C144   C     0.18350   0.68611   0.77002   0.00000  Uiso   1.00
C145   C     0.16086   0.74341   0.71440   0.00000  Uiso   1.00
C146   C     0.20320   0.68635   0.65958   0.00000  Uiso   1.00
C147   C     0.25286   0.63123   0.55808   0.00000  Uiso   1.00
C148   C     0.21724   0.78796   0.86918   0.00000  Uiso   1.00
C149   C     0.22298   0.93091   0.89692   0.00000  Uiso   1.00
C150   C     0.29374   0.95961   0.92558   0.00000  Uiso   1.00
C151   C     0.39578   0.06262   0.97805   0.00000  Uiso   1.00
C152   C     0.26084   0.52924   0.83683   0.00000  Uiso   1.00
C153   C     0.17725   0.47364   0.86857   0.00000  Uiso   1.00
C154   C     0.16164   0.33064   0.89597   0.00000  Uiso   1.00
C155   C     0.08101   0.30187   0.92255   0.00000  Uiso   1.00
C156   C     0.24621   0.57574   0.77085   0.00000  Uiso   1.00
C157   C     0.28860   0.51859   0.71609   0.00000  Uiso   1.00
C158   C     0.26603   0.57578   0.66041   0.00000  Uiso   1.00
C159   C     0.27995   0.67759   0.87001   0.00000  Uiso   1.00
C160   C     0.35071   0.70608   0.89862   0.00000  Uiso   1.00
C161   C     0.35656   0.84904   0.92641   0.00000  Uiso   1.00
H162   H     0.09657   0.81838   0.83464   0.00000  Uiso   1.00
H163   H     0.98539   0.64090   0.89362   0.00000  Uiso   1.00
H164   H     0.11234   0.82883   0.71377   0.00000  Uiso   1.00
H165   H     0.17444   0.01629   0.89627   0.00000  Uiso   1.00
H166   H     0.88979   0.39544   0.95935   0.00000  Uiso   1.00
H167   H     0.15747   0.79175   0.58013   0.00000  Uiso   1.00
H168   H     0.28843   0.18705   0.96497   0.00000  Uiso   1.00
H169   H     0.30966   0.44331   0.83748   0.00000  Uiso   1.00
H170   H     0.21018   0.24525   0.89661   0.00000  Uiso   1.00
H171   H     0.33712   0.43319   0.71676   0.00000  Uiso   1.00
H172   H     0.39922   0.62064   0.89926   0.00000  Uiso   1.00
H173   H     0.07223   0.07431   0.96178   0.00000  Uiso   1.00
H174   H     0.33992   0.47063   0.58255   0.00000  Uiso   1.00
H175   H     0.47088   0.86592   0.96739   0.00000  Uiso   1.00
O176   O     0.91172   0.11133   0.99939   0.00000  Uiso   1.00
O177   O     0.26292   0.63130   0.50187   0.00000  Uiso   1.00
O178   O     0.43473   0.14992   0.00677   0.00000  Uiso   1.00
N179   N     0.94638   0.34705   0.95182   0.00000  Uiso   1.00
N180   N     0.19664   0.71756   0.59726   0.00000  Uiso   1.00
N181   N     0.31909   0.08715   0.95704   0.00000  Uiso   1.00
N182   N     0.04456   0.17426   0.95312   0.00000  Uiso   1.00
N183   N     0.29481   0.54477   0.59857   0.00000  Uiso   1.00
N184   N     0.41726   0.91436   0.95835   0.00000  Uiso   1.00
