data_job_05393
_audit_creation_date              2018-12-19
_audit_creation_method            'Materials Studio'
_symmetry_space_group_name_H-M    'P1'
_symmetry_Int_Tables_number       1
_symmetry_cell_setting            triclinic
loop_
_symmetry_equiv_pos_as_xyz
  x,y,z
_cell_length_a                    17.5427
_cell_length_b                    17.5427
_cell_length_c                    16.5418
_cell_angle_alpha                 90.0000
_cell_angle_beta                  90.0000
_cell_angle_gamma                 90.0000
loop_
_atom_site_label
_atom_site_type_symbol
_atom_site_fract_x
_atom_site_fract_y
_atom_site_fract_z
_atom_site_U_iso_or_equiv
_atom_site_adp_type
_atom_site_occupancy
C1     C     0.30539   0.85627   0.47851   0.00000  Uiso   1.00
C2     C     0.23781   0.86453   0.53583   0.00000  Uiso   1.00
C3     C     0.16262   0.84675   0.51782   0.00000  Uiso   1.00
C4     C     0.10917   0.85836   0.57848   0.00000  Uiso   1.00
C5     C     0.00103   0.86691   0.65591   0.00000  Uiso   1.00
C6     C     0.34224   0.93486   0.47369   0.00000  Uiso   1.00
C7     C     0.35487   0.97621   0.40342   0.00000  Uiso   1.00
C8     C     0.38934   0.04702   0.41177   0.00000  Uiso   1.00
C9     C     0.44339   0.16474   0.39273   0.00000  Uiso   1.00
C10    C     0.36269   0.80521   0.52180   0.00000  Uiso   1.00
C11    C     0.39252   0.73755   0.49198   0.00000  Uiso   1.00
C12    C     0.44422   0.69921   0.54083   0.00000  Uiso   1.00
C13    C     0.53000   0.61562   0.59648   0.00000  Uiso   1.00
C14    C     0.34417   0.90850   0.61828   0.00000  Uiso   1.00
C15    C     0.25888   0.89290   0.61174   0.00000  Uiso   1.00
C16    C     0.20552   0.90454   0.67245   0.00000  Uiso   1.00
C17    C     0.13027   0.88677   0.65453   0.00000  Uiso   1.00
C18    C     0.36331   0.96323   0.54960   0.00000  Uiso   1.00
C19    C     0.39777   0.03400   0.55806   0.00000  Uiso   1.00
C20    C     0.41044   0.07544   0.48782   0.00000  Uiso   1.00
C21    C     0.38375   0.83358   0.59771   0.00000  Uiso   1.00
C22    C     0.43542   0.79534   0.64662   0.00000  Uiso   1.00
C23    C     0.46532   0.72763   0.61688   0.00000  Uiso   1.00
H24    H     0.28899   0.83419   0.41941   0.00000  Uiso   1.00
H25    H     0.14634   0.82480   0.45905   0.00000  Uiso   1.00
H26    H     0.33857   0.95424   0.34468   0.00000  Uiso   1.00
H27    H     0.37621   0.71562   0.43323   0.00000  Uiso   1.00
H28    H     0.99747   0.82694   0.53648   0.00000  Uiso   1.00
H29    H     0.40282   0.09984   0.29531   0.00000  Uiso   1.00
H30    H     0.48218   0.59666   0.48203   0.00000  Uiso   1.00
H31    H     0.36057   0.93059   0.67738   0.00000  Uiso   1.00
H32    H     0.22184   0.92649   0.73119   0.00000  Uiso   1.00
H33    H     0.41407   0.05593   0.61681   0.00000  Uiso   1.00
H34    H     0.45170   0.81731   0.70536   0.00000  Uiso   1.00
H35    H     0.05875   0.90948   0.75736   0.00000  Uiso   1.00
H36    H     0.46410   0.18238   0.51619   0.00000  Uiso   1.00
H37    H     0.54346   0.67920   0.70290   0.00000  Uiso   1.00
O38    O     0.93556   0.86380   0.67765   0.00000  Uiso   1.00
O39    O     0.46737   0.22183   0.36124   0.00000  Uiso   1.00
O40    O     0.57149   0.56167   0.60621   0.00000  Uiso   1.00
N41    N     0.03094   0.84691   0.58109   0.00000  Uiso   1.00
N42    N     0.40990   0.10207   0.35561   0.00000  Uiso   1.00
N43    N     0.48411   0.63165   0.53016   0.00000  Uiso   1.00
N44    N     0.06391   0.89132   0.69994   0.00000  Uiso   1.00
N45    N     0.44287   0.14648   0.47446   0.00000  Uiso   1.00
N46    N     0.51708   0.67606   0.64901   0.00000  Uiso   1.00
C47    C     0.69461   0.14373   0.47851   0.00000  Uiso   1.00
C48    C     0.76219   0.13547   0.53583   0.00000  Uiso   1.00
C49    C     0.83738   0.15325   0.51782   0.00000  Uiso   1.00
C50    C     0.89083   0.14164   0.57848   0.00000  Uiso   1.00
C51    C     0.99897   0.13309   0.65591   0.00000  Uiso   1.00
C52    C     0.65776   0.06514   0.47369   0.00000  Uiso   1.00
C53    C     0.64513   0.02379   0.40342   0.00000  Uiso   1.00
C54    C     0.61066   0.95298   0.41177   0.00000  Uiso   1.00
C55    C     0.55661   0.83526   0.39273   0.00000  Uiso   1.00
C56    C     0.63731   0.19479   0.52180   0.00000  Uiso   1.00
C57    C     0.60748   0.26245   0.49198   0.00000  Uiso   1.00
C58    C     0.55578   0.30079   0.54083   0.00000  Uiso   1.00
C59    C     0.47000   0.38438   0.59648   0.00000  Uiso   1.00
C60    C     0.65583   0.09150   0.61828   0.00000  Uiso   1.00
C61    C     0.74112   0.10710   0.61174   0.00000  Uiso   1.00
C62    C     0.79448   0.09546   0.67245   0.00000  Uiso   1.00
C63    C     0.86973   0.11323   0.65453   0.00000  Uiso   1.00
C64    C     0.63669   0.03677   0.54960   0.00000  Uiso   1.00
C65    C     0.60223   0.96600   0.55806   0.00000  Uiso   1.00
C66    C     0.58956   0.92456   0.48782   0.00000  Uiso   1.00
C67    C     0.61625   0.16642   0.59771   0.00000  Uiso   1.00
C68    C     0.56458   0.20466   0.64662   0.00000  Uiso   1.00
C69    C     0.53468   0.27237   0.61688   0.00000  Uiso   1.00
H70    H     0.71101   0.16581   0.41941   0.00000  Uiso   1.00
H71    H     0.85366   0.17520   0.45905   0.00000  Uiso   1.00
H72    H     0.66143   0.04576   0.34468   0.00000  Uiso   1.00
H73    H     0.62379   0.28438   0.43323   0.00000  Uiso   1.00
H74    H     0.00253   0.17306   0.53648   0.00000  Uiso   1.00
H75    H     0.59718   0.90016   0.29531   0.00000  Uiso   1.00
H76    H     0.51782   0.40334   0.48203   0.00000  Uiso   1.00
H77    H     0.63943   0.06941   0.67738   0.00000  Uiso   1.00
H78    H     0.77816   0.07351   0.73119   0.00000  Uiso   1.00
H79    H     0.58593   0.94407   0.61681   0.00000  Uiso   1.00
H80    H     0.54830   0.18269   0.70536   0.00000  Uiso   1.00
H81    H     0.94125   0.09052   0.75736   0.00000  Uiso   1.00
H82    H     0.53590   0.81762   0.51619   0.00000  Uiso   1.00
H83    H     0.45654   0.32080   0.70290   0.00000  Uiso   1.00
O84    O     0.06444   0.13620   0.67765   0.00000  Uiso   1.00
O85    O     0.53263   0.77817   0.36124   0.00000  Uiso   1.00
O86    O     0.42851   0.43833   0.60621   0.00000  Uiso   1.00
N87    N     0.96906   0.15309   0.58109   0.00000  Uiso   1.00
N88    N     0.59010   0.89793   0.35561   0.00000  Uiso   1.00
N89    N     0.51589   0.36835   0.53016   0.00000  Uiso   1.00
N90    N     0.93609   0.10868   0.69994   0.00000  Uiso   1.00
N91    N     0.55713   0.85352   0.47446   0.00000  Uiso   1.00
N92    N     0.48292   0.32394   0.64901   0.00000  Uiso   1.00
C93    C     0.64373   0.80539   0.97851   0.00000  Uiso   1.00
C94    C     0.63547   0.73781   0.03583   0.00000  Uiso   1.00
C95    C     0.65325   0.66262   0.01782   0.00000  Uiso   1.00
C96    C     0.64164   0.60917   0.07848   0.00000  Uiso   1.00
C97    C     0.63309   0.50103   0.15591   0.00000  Uiso   1.00
C98    C     0.56514   0.84224   0.97369   0.00000  Uiso   1.00
C99    C     0.52379   0.85487   0.90342   0.00000  Uiso   1.00
C100   C     0.45298   0.88934   0.91177   0.00000  Uiso   1.00
C101   C     0.33526   0.94339   0.89273   0.00000  Uiso   1.00
C102   C     0.69479   0.86269   0.02180   0.00000  Uiso   1.00
C103   C     0.76245   0.89252   0.99198   0.00000  Uiso   1.00
C104   C     0.80079   0.94422   0.04083   0.00000  Uiso   1.00
C105   C     0.88438   0.03000   0.09648   0.00000  Uiso   1.00
C106   C     0.59150   0.84417   0.11828   0.00000  Uiso   1.00
C107   C     0.60710   0.75888   0.11174   0.00000  Uiso   1.00
C108   C     0.59546   0.70552   0.17245   0.00000  Uiso   1.00
C109   C     0.61323   0.63027   0.15453   0.00000  Uiso   1.00
C110   C     0.53677   0.86331   0.04960   0.00000  Uiso   1.00
C111   C     0.46600   0.89777   0.05806   0.00000  Uiso   1.00
C112   C     0.42456   0.91044   0.98782   0.00000  Uiso   1.00
C113   C     0.66642   0.88375   0.09771   0.00000  Uiso   1.00
C114   C     0.70466   0.93542   0.14662   0.00000  Uiso   1.00
C115   C     0.77237   0.96532   0.11688   0.00000  Uiso   1.00
H116   H     0.66581   0.78899   0.91941   0.00000  Uiso   1.00
H117   H     0.67520   0.64634   0.95905   0.00000  Uiso   1.00
H118   H     0.54576   0.83857   0.84468   0.00000  Uiso   1.00
H119   H     0.78438   0.87621   0.93323   0.00000  Uiso   1.00
H120   H     0.67306   0.49747   0.03648   0.00000  Uiso   1.00
H121   H     0.40016   0.90282   0.79531   0.00000  Uiso   1.00
H122   H     0.90334   0.98218   0.98203   0.00000  Uiso   1.00
H123   H     0.56941   0.86057   0.17738   0.00000  Uiso   1.00
H124   H     0.57351   0.72184   0.23119   0.00000  Uiso   1.00
H125   H     0.44407   0.91407   0.11681   0.00000  Uiso   1.00
H126   H     0.68269   0.95170   0.20536   0.00000  Uiso   1.00
H127   H     0.59052   0.55875   0.25736   0.00000  Uiso   1.00
H128   H     0.31762   0.96410   0.01619   0.00000  Uiso   1.00
H129   H     0.82080   0.04346   0.20290   0.00000  Uiso   1.00
O130   O     0.63620   0.43556   0.17765   0.00000  Uiso   1.00
O131   O     0.27817   0.96737   0.86124   0.00000  Uiso   1.00
O132   O     0.93833   0.07149   0.10621   0.00000  Uiso   1.00
N133   N     0.65309   0.53094   0.08109   0.00000  Uiso   1.00
N134   N     0.39793   0.90990   0.85561   0.00000  Uiso   1.00
N135   N     0.86835   0.98411   0.03016   0.00000  Uiso   1.00
N136   N     0.60868   0.56391   0.19994   0.00000  Uiso   1.00
N137   N     0.35352   0.94287   0.97446   0.00000  Uiso   1.00
N138   N     0.82394   0.01708   0.14901   0.00000  Uiso   1.00
C139   C     0.35627   0.19461   0.97851   0.00000  Uiso   1.00
C140   C     0.36453   0.26219   0.03583   0.00000  Uiso   1.00
C141   C     0.34675   0.33738   0.01782   0.00000  Uiso   1.00
C142   C     0.35836   0.39083   0.07848   0.00000  Uiso   1.00
C143   C     0.36691   0.49897   0.15591   0.00000  Uiso   1.00
C144   C     0.43486   0.15776   0.97369   0.00000  Uiso   1.00
C145   C     0.47621   0.14513   0.90342   0.00000  Uiso   1.00
C146   C     0.54702   0.11066   0.91177   0.00000  Uiso   1.00
C147   C     0.66474   0.05661   0.89273   0.00000  Uiso   1.00
C148   C     0.30521   0.13731   0.02180   0.00000  Uiso   1.00
C149   C     0.23755   0.10748   0.99198   0.00000  Uiso   1.00
C150   C     0.19921   0.05578   0.04083   0.00000  Uiso   1.00
C151   C     0.11562   0.97000   0.09648   0.00000  Uiso   1.00
C152   C     0.40850   0.15583   0.11828   0.00000  Uiso   1.00
C153   C     0.39290   0.24112   0.11174   0.00000  Uiso   1.00
C154   C     0.40454   0.29448   0.17245   0.00000  Uiso   1.00
C155   C     0.38677   0.36973   0.15453   0.00000  Uiso   1.00
C156   C     0.46323   0.13669   0.04960   0.00000  Uiso   1.00
C157   C     0.53400   0.10223   0.05806   0.00000  Uiso   1.00
C158   C     0.57544   0.08956   0.98782   0.00000  Uiso   1.00
C159   C     0.33358   0.11625   0.09771   0.00000  Uiso   1.00
C160   C     0.29534   0.06458   0.14662   0.00000  Uiso   1.00
C161   C     0.22763   0.03468   0.11688   0.00000  Uiso   1.00
H162   H     0.33419   0.21101   0.91941   0.00000  Uiso   1.00
H163   H     0.32480   0.35366   0.95905   0.00000  Uiso   1.00
H164   H     0.45424   0.16143   0.84468   0.00000  Uiso   1.00
H165   H     0.21562   0.12379   0.93323   0.00000  Uiso   1.00
H166   H     0.32694   0.50253   0.03648   0.00000  Uiso   1.00
H167   H     0.59984   0.09718   0.79531   0.00000  Uiso   1.00
H168   H     0.09666   0.01782   0.98203   0.00000  Uiso   1.00
H169   H     0.43059   0.13943   0.17738   0.00000  Uiso   1.00
H170   H     0.42649   0.27816   0.23119   0.00000  Uiso   1.00
H171   H     0.55593   0.08593   0.11681   0.00000  Uiso   1.00
H172   H     0.31731   0.04830   0.20536   0.00000  Uiso   1.00
H173   H     0.40948   0.44125   0.25736   0.00000  Uiso   1.00
H174   H     0.68238   0.03590   0.01619   0.00000  Uiso   1.00
H175   H     0.17920   0.95654   0.20290   0.00000  Uiso   1.00
O176   O     0.36380   0.56444   0.17765   0.00000  Uiso   1.00
O177   O     0.72183   0.03263   0.86124   0.00000  Uiso   1.00
O178   O     0.06167   0.92851   0.10621   0.00000  Uiso   1.00
N179   N     0.34691   0.46906   0.08109   0.00000  Uiso   1.00
N180   N     0.60207   0.09010   0.85561   0.00000  Uiso   1.00
N181   N     0.13165   0.01589   0.03016   0.00000  Uiso   1.00
N182   N     0.39132   0.43609   0.19994   0.00000  Uiso   1.00
N183   N     0.64648   0.05713   0.97446   0.00000  Uiso   1.00
N184   N     0.17606   0.98292   0.14901   0.00000  Uiso   1.00
C185   C     0.19461   0.64373   0.02149   0.00000  Uiso   1.00
C186   C     0.26219   0.63547   0.96417   0.00000  Uiso   1.00
C187   C     0.33738   0.65325   0.98218   0.00000  Uiso   1.00
C188   C     0.39083   0.64164   0.92152   0.00000  Uiso   1.00
C189   C     0.49897   0.63309   0.84409   0.00000  Uiso   1.00
C190   C     0.15776   0.56514   0.02631   0.00000  Uiso   1.00
C191   C     0.14513   0.52379   0.09658   0.00000  Uiso   1.00
C192   C     0.11066   0.45298   0.08823   0.00000  Uiso   1.00
C193   C     0.05661   0.33526   0.10727   0.00000  Uiso   1.00
C194   C     0.13731   0.69479   0.97820   0.00000  Uiso   1.00
C195   C     0.10748   0.76245   0.00802   0.00000  Uiso   1.00
C196   C     0.05578   0.80079   0.95917   0.00000  Uiso   1.00
C197   C     0.97000   0.88438   0.90352   0.00000  Uiso   1.00
C198   C     0.15583   0.59150   0.88172   0.00000  Uiso   1.00
C199   C     0.24112   0.60710   0.88826   0.00000  Uiso   1.00
C200   C     0.29448   0.59546   0.82755   0.00000  Uiso   1.00
C201   C     0.36973   0.61323   0.84547   0.00000  Uiso   1.00
C202   C     0.13669   0.53677   0.95040   0.00000  Uiso   1.00
C203   C     0.10223   0.46600   0.94194   0.00000  Uiso   1.00
C204   C     0.08956   0.42456   0.01218   0.00000  Uiso   1.00
C205   C     0.11625   0.66642   0.90229   0.00000  Uiso   1.00
C206   C     0.06458   0.70466   0.85338   0.00000  Uiso   1.00
C207   C     0.03468   0.77237   0.88312   0.00000  Uiso   1.00
H208   H     0.21101   0.66581   0.08059   0.00000  Uiso   1.00
H209   H     0.35366   0.67520   0.04095   0.00000  Uiso   1.00
H210   H     0.16143   0.54576   0.15532   0.00000  Uiso   1.00
H211   H     0.12379   0.78438   0.06677   0.00000  Uiso   1.00
H212   H     0.50253   0.67306   0.96352   0.00000  Uiso   1.00
H213   H     0.09718   0.40016   0.20469   0.00000  Uiso   1.00
H214   H     0.01782   0.90334   0.01797   0.00000  Uiso   1.00
H215   H     0.13943   0.56941   0.82262   0.00000  Uiso   1.00
H216   H     0.27816   0.57351   0.76881   0.00000  Uiso   1.00
H217   H     0.08593   0.44407   0.88319   0.00000  Uiso   1.00
H218   H     0.04830   0.68269   0.79464   0.00000  Uiso   1.00
H219   H     0.44125   0.59052   0.74264   0.00000  Uiso   1.00
H220   H     0.03590   0.31762   0.98381   0.00000  Uiso   1.00
H221   H     0.95654   0.82080   0.79710   0.00000  Uiso   1.00
O222   O     0.56444   0.63620   0.82235   0.00000  Uiso   1.00
O223   O     0.03263   0.27817   0.13876   0.00000  Uiso   1.00
O224   O     0.92851   0.93833   0.89379   0.00000  Uiso   1.00
N225   N     0.46906   0.65309   0.91891   0.00000  Uiso   1.00
N226   N     0.09010   0.39793   0.14439   0.00000  Uiso   1.00
N227   N     0.01589   0.86835   0.96984   0.00000  Uiso   1.00
N228   N     0.43609   0.60868   0.80006   0.00000  Uiso   1.00
N229   N     0.05713   0.35352   0.02554   0.00000  Uiso   1.00
N230   N     0.98292   0.82394   0.85099   0.00000  Uiso   1.00
C231   C     0.80539   0.35627   0.02149   0.00000  Uiso   1.00
C232   C     0.73781   0.36453   0.96417   0.00000  Uiso   1.00
C233   C     0.66262   0.34675   0.98218   0.00000  Uiso   1.00
C234   C     0.60917   0.35836   0.92152   0.00000  Uiso   1.00
C235   C     0.50103   0.36691   0.84409   0.00000  Uiso   1.00
C236   C     0.84224   0.43486   0.02631   0.00000  Uiso   1.00
C237   C     0.85487   0.47621   0.09658   0.00000  Uiso   1.00
C238   C     0.88934   0.54702   0.08823   0.00000  Uiso   1.00
C239   C     0.94339   0.66474   0.10727   0.00000  Uiso   1.00
C240   C     0.86269   0.30521   0.97820   0.00000  Uiso   1.00
C241   C     0.89252   0.23755   0.00802   0.00000  Uiso   1.00
C242   C     0.94422   0.19921   0.95917   0.00000  Uiso   1.00
C243   C     0.03000   0.11562   0.90352   0.00000  Uiso   1.00
C244   C     0.84417   0.40850   0.88172   0.00000  Uiso   1.00
C245   C     0.75888   0.39290   0.88826   0.00000  Uiso   1.00
C246   C     0.70552   0.40454   0.82755   0.00000  Uiso   1.00
C247   C     0.63027   0.38677   0.84547   0.00000  Uiso   1.00
C248   C     0.86331   0.46323   0.95040   0.00000  Uiso   1.00
C249   C     0.89777   0.53400   0.94194   0.00000  Uiso   1.00
C250   C     0.91044   0.57544   0.01218   0.00000  Uiso   1.00
C251   C     0.88375   0.33358   0.90229   0.00000  Uiso   1.00
C252   C     0.93542   0.29534   0.85338   0.00000  Uiso   1.00
C253   C     0.96532   0.22763   0.88312   0.00000  Uiso   1.00
H254   H     0.78899   0.33419   0.08059   0.00000  Uiso   1.00
H255   H     0.64634   0.32480   0.04095   0.00000  Uiso   1.00
H256   H     0.83857   0.45424   0.15532   0.00000  Uiso   1.00
H257   H     0.87621   0.21562   0.06677   0.00000  Uiso   1.00
H258   H     0.49747   0.32694   0.96352   0.00000  Uiso   1.00
H259   H     0.90282   0.59984   0.20469   0.00000  Uiso   1.00
H260   H     0.98218   0.09666   0.01797   0.00000  Uiso   1.00
H261   H     0.86057   0.43059   0.82262   0.00000  Uiso   1.00
H262   H     0.72184   0.42649   0.76881   0.00000  Uiso   1.00
H263   H     0.91407   0.55593   0.88319   0.00000  Uiso   1.00
H264   H     0.95170   0.31731   0.79464   0.00000  Uiso   1.00
H265   H     0.55875   0.40948   0.74264   0.00000  Uiso   1.00
H266   H     0.96410   0.68238   0.98381   0.00000  Uiso   1.00
H267   H     0.04346   0.17920   0.79710   0.00000  Uiso   1.00
O268   O     0.43556   0.36380   0.82235   0.00000  Uiso   1.00
O269   O     0.96737   0.72183   0.13876   0.00000  Uiso   1.00
O270   O     0.07149   0.06167   0.89379   0.00000  Uiso   1.00
N271   N     0.53094   0.34691   0.91891   0.00000  Uiso   1.00
N272   N     0.90990   0.60207   0.14439   0.00000  Uiso   1.00
N273   N     0.98411   0.13165   0.96984   0.00000  Uiso   1.00
N274   N     0.56391   0.39132   0.80006   0.00000  Uiso   1.00
N275   N     0.94287   0.64648   0.02554   0.00000  Uiso   1.00
N276   N     0.01708   0.17606   0.85099   0.00000  Uiso   1.00
C277   C     0.85627   0.69461   0.52149   0.00000  Uiso   1.00
C278   C     0.86453   0.76219   0.46417   0.00000  Uiso   1.00
C279   C     0.84675   0.83738   0.48218   0.00000  Uiso   1.00
C280   C     0.85836   0.89083   0.42152   0.00000  Uiso   1.00
C281   C     0.86691   0.99897   0.34409   0.00000  Uiso   1.00
C282   C     0.93486   0.65776   0.52631   0.00000  Uiso   1.00
C283   C     0.97621   0.64513   0.59658   0.00000  Uiso   1.00
C284   C     0.04702   0.61066   0.58823   0.00000  Uiso   1.00
C285   C     0.16474   0.55661   0.60727   0.00000  Uiso   1.00
C286   C     0.80521   0.63731   0.47820   0.00000  Uiso   1.00
C287   C     0.73755   0.60748   0.50802   0.00000  Uiso   1.00
C288   C     0.69921   0.55578   0.45917   0.00000  Uiso   1.00
C289   C     0.61562   0.47000   0.40352   0.00000  Uiso   1.00
C290   C     0.90850   0.65583   0.38172   0.00000  Uiso   1.00
C291   C     0.89290   0.74112   0.38826   0.00000  Uiso   1.00
C292   C     0.90454   0.79448   0.32755   0.00000  Uiso   1.00
C293   C     0.88677   0.86973   0.34547   0.00000  Uiso   1.00
C294   C     0.96323   0.63669   0.45040   0.00000  Uiso   1.00
C295   C     0.03400   0.60223   0.44194   0.00000  Uiso   1.00
C296   C     0.07544   0.58956   0.51218   0.00000  Uiso   1.00
C297   C     0.83358   0.61625   0.40229   0.00000  Uiso   1.00
C298   C     0.79534   0.56458   0.35338   0.00000  Uiso   1.00
C299   C     0.72763   0.53468   0.38312   0.00000  Uiso   1.00
H300   H     0.83419   0.71101   0.58059   0.00000  Uiso   1.00
H301   H     0.82480   0.85366   0.54095   0.00000  Uiso   1.00
H302   H     0.95424   0.66143   0.65532   0.00000  Uiso   1.00
H303   H     0.71562   0.62379   0.56677   0.00000  Uiso   1.00
H304   H     0.82694   0.00253   0.46352   0.00000  Uiso   1.00
H305   H     0.09984   0.59718   0.70469   0.00000  Uiso   1.00
H306   H     0.59666   0.51782   0.51797   0.00000  Uiso   1.00
H307   H     0.93059   0.63943   0.32262   0.00000  Uiso   1.00
H308   H     0.92649   0.77816   0.26881   0.00000  Uiso   1.00
H309   H     0.05593   0.58593   0.38319   0.00000  Uiso   1.00
H310   H     0.81731   0.54830   0.29464   0.00000  Uiso   1.00
H311   H     0.90948   0.94125   0.24264   0.00000  Uiso   1.00
H312   H     0.18238   0.53590   0.48381   0.00000  Uiso   1.00
H313   H     0.67920   0.45654   0.29710   0.00000  Uiso   1.00
O314   O     0.86380   0.06444   0.32235   0.00000  Uiso   1.00
O315   O     0.22183   0.53263   0.63876   0.00000  Uiso   1.00
O316   O     0.56167   0.42851   0.39379   0.00000  Uiso   1.00
N317   N     0.84691   0.96906   0.41891   0.00000  Uiso   1.00
N318   N     0.10207   0.59010   0.64439   0.00000  Uiso   1.00
N319   N     0.63165   0.51589   0.46984   0.00000  Uiso   1.00
N320   N     0.89132   0.93609   0.30006   0.00000  Uiso   1.00
N321   N     0.14648   0.55713   0.52554   0.00000  Uiso   1.00
N322   N     0.67606   0.48292   0.35099   0.00000  Uiso   1.00
C323   C     0.14373   0.30539   0.52149   0.00000  Uiso   1.00
C324   C     0.13547   0.23781   0.46417   0.00000  Uiso   1.00
C325   C     0.15325   0.16262   0.48218   0.00000  Uiso   1.00
C326   C     0.14164   0.10917   0.42152   0.00000  Uiso   1.00
C327   C     0.13309   0.00103   0.34409   0.00000  Uiso   1.00
C328   C     0.06514   0.34224   0.52631   0.00000  Uiso   1.00
C329   C     0.02379   0.35487   0.59658   0.00000  Uiso   1.00
C330   C     0.95298   0.38934   0.58823   0.00000  Uiso   1.00
C331   C     0.83526   0.44339   0.60727   0.00000  Uiso   1.00
C332   C     0.19479   0.36269   0.47820   0.00000  Uiso   1.00
C333   C     0.26245   0.39252   0.50802   0.00000  Uiso   1.00
C334   C     0.30079   0.44422   0.45917   0.00000  Uiso   1.00
C335   C     0.38438   0.53000   0.40352   0.00000  Uiso   1.00
C336   C     0.09150   0.34417   0.38172   0.00000  Uiso   1.00
C337   C     0.10710   0.25888   0.38826   0.00000  Uiso   1.00
C338   C     0.09546   0.20552   0.32755   0.00000  Uiso   1.00
C339   C     0.11323   0.13027   0.34547   0.00000  Uiso   1.00
C340   C     0.03677   0.36331   0.45040   0.00000  Uiso   1.00
C341   C     0.96600   0.39777   0.44194   0.00000  Uiso   1.00
C342   C     0.92456   0.41044   0.51218   0.00000  Uiso   1.00
C343   C     0.16642   0.38375   0.40229   0.00000  Uiso   1.00
C344   C     0.20466   0.43542   0.35338   0.00000  Uiso   1.00
C345   C     0.27237   0.46532   0.38312   0.00000  Uiso   1.00
H346   H     0.16581   0.28899   0.58059   0.00000  Uiso   1.00
H347   H     0.17520   0.14634   0.54095   0.00000  Uiso   1.00
H348   H     0.04576   0.33857   0.65532   0.00000  Uiso   1.00
H349   H     0.28438   0.37621   0.56677   0.00000  Uiso   1.00
H350   H     0.17306   0.99747   0.46352   0.00000  Uiso   1.00
H351   H     0.90016   0.40282   0.70469   0.00000  Uiso   1.00
H352   H     0.40334   0.48218   0.51797   0.00000  Uiso   1.00
H353   H     0.06941   0.36057   0.32262   0.00000  Uiso   1.00
H354   H     0.07351   0.22184   0.26881   0.00000  Uiso   1.00
H355   H     0.94407   0.41407   0.38319   0.00000  Uiso   1.00
H356   H     0.18269   0.45170   0.29464   0.00000  Uiso   1.00
H357   H     0.09052   0.05875   0.24264   0.00000  Uiso   1.00
H358   H     0.81762   0.46410   0.48381   0.00000  Uiso   1.00
H359   H     0.32080   0.54346   0.29710   0.00000  Uiso   1.00
O360   O     0.13620   0.93556   0.32235   0.00000  Uiso   1.00
O361   O     0.77817   0.46737   0.63876   0.00000  Uiso   1.00
O362   O     0.43833   0.57149   0.39379   0.00000  Uiso   1.00
N363   N     0.15309   0.03094   0.41891   0.00000  Uiso   1.00
N364   N     0.89793   0.40990   0.64439   0.00000  Uiso   1.00
N365   N     0.36835   0.48411   0.46984   0.00000  Uiso   1.00
N366   N     0.10868   0.06391   0.30006   0.00000  Uiso   1.00
N367   N     0.85352   0.44287   0.52554   0.00000  Uiso   1.00
N368   N     0.32394   0.51708   0.35099   0.00000  Uiso   1.00
