data_job_03488
_audit_creation_date              2018-12-19
_audit_creation_method            'Materials Studio'
_symmetry_space_group_name_H-M    'P1'
_symmetry_Int_Tables_number       1
_symmetry_cell_setting            triclinic
loop_
_symmetry_equiv_pos_as_xyz
  x,y,z
_cell_length_a                    12.0588
_cell_length_b                    12.4988
_cell_length_c                    16.6740
_cell_angle_alpha                 70.0576
_cell_angle_beta                  96.8899
_cell_angle_gamma                 105.7179
loop_
_atom_site_label
_atom_site_type_symbol
_atom_site_fract_x
_atom_site_fract_y
_atom_site_fract_z
_atom_site_U_iso_or_equiv
_atom_site_adp_type
_atom_site_occupancy
C1     C     0.92111   0.71835   0.68107   0.00000  Uiso   1.00
C2     C     0.89781   0.80177   0.72210   0.00000  Uiso   1.00
C3     C     0.80264   0.84928   0.70490   0.00000  Uiso   1.00
C4     C     0.79720   0.92377   0.74912   0.00000  Uiso   1.00
C5     C     0.74787   0.04940   0.80377   0.00000  Uiso   1.00
C6     C     0.03903   0.77664   0.64143   0.00000  Uiso   1.00
C7     C     0.06259   0.80300   0.55641   0.00000  Uiso   1.00
C8     C     0.17604   0.85633   0.53272   0.00000  Uiso   1.00
C9     C     0.34596   0.94286   0.46214   0.00000  Uiso   1.00
C10    C     0.93585   0.60940   0.75445   0.00000  Uiso   1.00
C11    C     0.87269   0.49514   0.76446   0.00000  Uiso   1.00
C12    C     0.89930   0.40766   0.83592   0.00000  Uiso   1.00
C13    C     0.90903   0.23454   0.94084   0.00000  Uiso   1.00
C14    C     0.08068   0.76616   0.79017   0.00000  Uiso   1.00
C15    C     0.98449   0.82774   0.78135   0.00000  Uiso   1.00
C16    C     0.97919   0.90218   0.82561   0.00000  Uiso   1.00
C17    C     0.88403   0.94978   0.80848   0.00000  Uiso   1.00
C18    C     0.12570   0.80261   0.70068   0.00000  Uiso   1.00
C19    C     0.23914   0.85590   0.67711   0.00000  Uiso   1.00
C20    C     0.26287   0.88234   0.59208   0.00000  Uiso   1.00
C21    C     0.02253   0.63537   0.81371   0.00000  Uiso   1.00
C22    C     0.04924   0.54805   0.88517   0.00000  Uiso   1.00
C23    C     0.98613   0.43368   0.89529   0.00000  Uiso   1.00
H24    H     0.85364   0.69813   0.63493   0.00000  Uiso   1.00
H25    H     0.73559   0.82917   0.65903   0.00000  Uiso   1.00
H26    H     0.99550   0.78288   0.51057   0.00000  Uiso   1.00
H27    H     0.80563   0.47508   0.71859   0.00000  Uiso   1.00
H28    H     0.64296   0.98593   0.71186   0.00000  Uiso   1.00
H29    H     0.19100   0.88831   0.39882   0.00000  Uiso   1.00
H30    H     0.79062   0.23924   0.83747   0.00000  Uiso   1.00
H31    H     0.14817   0.78638   0.83630   0.00000  Uiso   1.00
H32    H     0.04627   0.92226   0.87146   0.00000  Uiso   1.00
H33    H     0.30619   0.87598   0.72299   0.00000  Uiso   1.00
H34    H     0.11632   0.56817   0.93101   0.00000  Uiso   1.00
H35    H     0.89512   0.06149   0.88427   0.00000  Uiso   1.00
H36    H     0.44317   0.96387   0.57123   0.00000  Uiso   1.00
H37    H     0.04279   0.31480   0.00988   0.00000  Uiso   1.00
O38    O     0.69672   0.11154   0.81754   0.00000  Uiso   1.00
O39    O     0.41574   0.98344   0.40684   0.00000  Uiso   1.00
O40    O     0.89044   0.13188   0.98234   0.00000  Uiso   1.00
N41    N     0.71628   0.98505   0.74763   0.00000  Uiso   1.00
N42    N     0.22866   0.89379   0.45495   0.00000  Uiso   1.00
N43    N     0.85436   0.28696   0.86504   0.00000  Uiso   1.00
N44    N     0.85196   0.02571   0.84040   0.00000  Uiso   1.00
N45    N     0.36435   0.93445   0.54772   0.00000  Uiso   1.00
N46    N     0.99005   0.32762   0.95781   0.00000  Uiso   1.00
C47    C     0.07889   0.28165   0.31893   0.00000  Uiso   1.00
C48    C     0.10219   0.19823   0.27790   0.00000  Uiso   1.00
C49    C     0.19736   0.15072   0.29510   0.00000  Uiso   1.00
C50    C     0.20280   0.07623   0.25088   0.00000  Uiso   1.00
C51    C     0.25213   0.95060   0.19623   0.00000  Uiso   1.00
C52    C     0.96097   0.22336   0.35857   0.00000  Uiso   1.00
C53    C     0.93741   0.19700   0.44359   0.00000  Uiso   1.00
C54    C     0.82396   0.14367   0.46728   0.00000  Uiso   1.00
C55    C     0.65404   0.05714   0.53786   0.00000  Uiso   1.00
C56    C     0.06415   0.39060   0.24555   0.00000  Uiso   1.00
C57    C     0.12731   0.50486   0.23554   0.00000  Uiso   1.00
C58    C     0.10070   0.59234   0.16408   0.00000  Uiso   1.00
C59    C     0.09097   0.76546   0.05916   0.00000  Uiso   1.00
C60    C     0.91932   0.23384   0.20983   0.00000  Uiso   1.00
C61    C     0.01551   0.17226   0.21865   0.00000  Uiso   1.00
C62    C     0.02081   0.09782   0.17439   0.00000  Uiso   1.00
C63    C     0.11597   0.05022   0.19152   0.00000  Uiso   1.00
C64    C     0.87430   0.19739   0.29932   0.00000  Uiso   1.00
C65    C     0.76086   0.14410   0.32289   0.00000  Uiso   1.00
C66    C     0.73713   0.11766   0.40792   0.00000  Uiso   1.00
C67    C     0.97747   0.36463   0.18629   0.00000  Uiso   1.00
C68    C     0.95076   0.45195   0.11483   0.00000  Uiso   1.00
C69    C     0.01387   0.56632   0.10471   0.00000  Uiso   1.00
H70    H     0.14636   0.30187   0.36507   0.00000  Uiso   1.00
H71    H     0.26441   0.17083   0.34097   0.00000  Uiso   1.00
H72    H     0.00450   0.21712   0.48943   0.00000  Uiso   1.00
H73    H     0.19437   0.52492   0.28141   0.00000  Uiso   1.00
H74    H     0.35704   0.01407   0.28814   0.00000  Uiso   1.00
H75    H     0.80900   0.11169   0.60118   0.00000  Uiso   1.00
H76    H     0.20938   0.76076   0.16253   0.00000  Uiso   1.00
H77    H     0.85183   0.21362   0.16370   0.00000  Uiso   1.00
H78    H     0.95373   0.07774   0.12854   0.00000  Uiso   1.00
H79    H     0.69381   0.12402   0.27701   0.00000  Uiso   1.00
H80    H     0.88368   0.43183   0.06899   0.00000  Uiso   1.00
H81    H     0.10488   0.93851   0.11573   0.00000  Uiso   1.00
H82    H     0.55683   0.03613   0.42877   0.00000  Uiso   1.00
H83    H     0.95721   0.68520   0.99012   0.00000  Uiso   1.00
O84    O     0.30328   0.88846   0.18246   0.00000  Uiso   1.00
O85    O     0.58426   0.01656   0.59316   0.00000  Uiso   1.00
O86    O     0.10956   0.86812   0.01766   0.00000  Uiso   1.00
N87    N     0.28372   0.01495   0.25237   0.00000  Uiso   1.00
N88    N     0.77134   0.10621   0.54505   0.00000  Uiso   1.00
N89    N     0.14564   0.71304   0.13496   0.00000  Uiso   1.00
N90    N     0.14804   0.97429   0.15960   0.00000  Uiso   1.00
N91    N     0.63565   0.06555   0.45228   0.00000  Uiso   1.00
N92    N     0.00995   0.67238   0.04219   0.00000  Uiso   1.00
