data_job_06800
_audit_creation_date              2018-12-19
_audit_creation_method            'Materials Studio'
_symmetry_space_group_name_H-M    'P1'
_symmetry_Int_Tables_number       1
_symmetry_cell_setting            triclinic
loop_
_symmetry_equiv_pos_as_xyz
  x,y,z
_cell_length_a                    19.4526
_cell_length_b                    20.9586
_cell_length_c                    21.2043
_cell_angle_alpha                 89.1321
_cell_angle_beta                  75.2753
_cell_angle_gamma                 89.5649
loop_
_atom_site_label
_atom_site_type_symbol
_atom_site_fract_x
_atom_site_fract_y
_atom_site_fract_z
_atom_site_U_iso_or_equiv
_atom_site_adp_type
_atom_site_occupancy
C1     C     0.01234   0.43624   0.90203   0.00000  Uiso   1.00
C2     C     0.94114   0.43691   0.95299   0.00000  Uiso   1.00
C3     C     0.91450   0.48691   0.99440   0.00000  Uiso   1.00
C4     C     0.84834   0.47819   0.03758   0.00000  Uiso   1.00
C5     C     0.74359   0.48784   0.11648   0.00000  Uiso   1.00
C6     C     0.05238   0.37787   0.91801   0.00000  Uiso   1.00
C7     C     0.11928   0.37823   0.92998   0.00000  Uiso   1.00
C8     C     0.14677   0.31981   0.94370   0.00000  Uiso   1.00
C9     C     0.21476   0.23780   0.96823   0.00000  Uiso   1.00
C10    C     0.99544   0.42241   0.83720   0.00000  Uiso   1.00
C11    C     0.01447   0.46021   0.78123   0.00000  Uiso   1.00
C12    C     0.99402   0.43929   0.72691   0.00000  Uiso   1.00
C13    C     0.97359   0.42643   0.62598   0.00000  Uiso   1.00
C14    C     0.94221   0.33185   0.90509   0.00000  Uiso   1.00
C15    C     0.90305   0.38021   0.95466   0.00000  Uiso   1.00
C16    C     0.83691   0.37142   0.99778   0.00000  Uiso   1.00
C17    C     0.81018   0.42140   0.03925   0.00000  Uiso   1.00
C18    C     0.01430   0.32117   0.91967   0.00000  Uiso   1.00
C19    C     0.04169   0.26274   0.93337   0.00000  Uiso   1.00
C20    C     0.10861   0.26301   0.94537   0.00000  Uiso   1.00
C21    C     0.95734   0.36571   0.83886   0.00000  Uiso   1.00
C22    C     0.93687   0.34472   0.78462   0.00000  Uiso   1.00
C23    C     0.95586   0.38249   0.72858   0.00000  Uiso   1.00
H24    H     0.04200   0.48038   0.90074   0.00000  Uiso   1.00
H25    H     0.94400   0.53078   0.99310   0.00000  Uiso   1.00
H26    H     0.14875   0.42211   0.92869   0.00000  Uiso   1.00
H27    H     0.04394   0.50409   0.77996   0.00000  Uiso   1.00
H28    H     0.81856   0.56164   0.09625   0.00000  Uiso   1.00
H29    H     0.25030   0.33251   0.96041   0.00000  Uiso   1.00
H30    H     0.02930   0.50537   0.64679   0.00000  Uiso   1.00
H31    H     0.91256   0.28771   0.90639   0.00000  Uiso   1.00
H32    H     0.80745   0.32753   0.99906   0.00000  Uiso   1.00
H33    H     0.01220   0.21887   0.93465   0.00000  Uiso   1.00
H34    H     0.90740   0.30084   0.78592   0.00000  Uiso   1.00
H35    H     0.70773   0.39667   0.10109   0.00000  Uiso   1.00
H36    H     0.13948   0.16755   0.96524   0.00000  Uiso   1.00
H37    H     0.91847   0.34041   0.65163   0.00000  Uiso   1.00
O38    O     0.69635   0.50882   0.15955   0.00000  Uiso   1.00
O39    O     0.26278   0.20822   0.98131   0.00000  Uiso   1.00
O40    O     0.97283   0.43501   0.56986   0.00000  Uiso   1.00
N41    N     0.80689   0.51735   0.08466   0.00000  Uiso   1.00
N42    N     0.21054   0.30314   0.95767   0.00000  Uiso   1.00
N43    N     0.00394   0.46474   0.66446   0.00000  Uiso   1.00
N44    N     0.74726   0.42859   0.08727   0.00000  Uiso   1.00
N45    N     0.15090   0.21437   0.96027   0.00000  Uiso   1.00
N46    N     0.94431   0.37597   0.66706   0.00000  Uiso   1.00
C47    C     0.90470   0.07372   0.20151   0.00000  Uiso   1.00
C48    C     0.92886   0.03841   0.25556   0.00000  Uiso   1.00
C49    C     0.88716   0.02590   0.31799   0.00000  Uiso   1.00
C50    C     0.91914   0.99297   0.36032   0.00000  Uiso   1.00
C51    C     0.94586   0.94117   0.44723   0.00000  Uiso   1.00
C52    C     0.95592   0.12933   0.18055   0.00000  Uiso   1.00
C53    C     0.93695   0.19326   0.17991   0.00000  Uiso   1.00
C54    C     0.99171   0.23685   0.15908   0.00000  Uiso   1.00
C55    C     0.06042   0.32620   0.12949   0.00000  Uiso   1.00
C56    C     0.91905   0.02858   0.14385   0.00000  Uiso   1.00
C57    C     0.86909   0.00781   0.11232   0.00000  Uiso   1.00
C58    C     0.89281   0.96660   0.06059   0.00000  Uiso   1.00
C59    C     0.90428   0.89952   0.97400   0.00000  Uiso   1.00
C60    C     0.03565   0.03747   0.16567   0.00000  Uiso   1.00
C61    C    -0.00001   0.01872   0.23610   0.00000  Uiso   1.00
C62    C     0.03204   0.98580   0.27834   0.00000  Uiso   1.00
C63    C     0.99040   0.97324   0.34082   0.00000  Uiso   1.00
C64    C     0.02704   0.10964   0.16109   0.00000  Uiso   1.00
C65    C     0.08183   0.15315   0.14026   0.00000  Uiso   1.00
C66    C     0.06296   0.21713   0.13958   0.00000  Uiso   1.00
C67    C     0.99018   0.00889   0.12438   0.00000  Uiso   1.00
C68    C     0.01397   0.96770   0.07268   0.00000  Uiso   1.00
C69    C     0.96406   0.94688   0.04108   0.00000  Uiso   1.00
H70    H     0.84932   0.08905   0.21666   0.00000  Uiso   1.00
H71    H     0.83212   0.04115   0.33304   0.00000  Uiso   1.00
H72    H     0.88191   0.20848   0.19497   0.00000  Uiso   1.00
H73    H     0.81406   0.02306   0.12740   0.00000  Uiso   1.00
H74    H     0.84443   0.97939   0.45349   0.00000  Uiso   1.00
H75    H     0.94940   0.33220   0.16233   0.00000  Uiso   1.00
H76    H     0.80632   0.94121   0.01986   0.00000  Uiso   1.00
H77    H     0.09103   0.02214   0.15051   0.00000  Uiso   1.00
H78    H     0.08709   0.97057   0.26327   0.00000  Uiso   1.00
H79    H     0.13687   0.13790   0.12519   0.00000  Uiso   1.00
H80    H     0.06902   0.95248   0.05763   0.00000  Uiso   1.00
H81    H     0.05137   0.92211   0.39686   0.00000  Uiso   1.00
H82    H     0.15634   0.27492   0.10570   0.00000  Uiso   1.00
H83    H     0.01326   0.88393   0.96323   0.00000  Uiso   1.00
O84    O     0.94095   0.91805   0.50055   0.00000  Uiso   1.00
O85    O     0.07866   0.38092   0.11855   0.00000  Uiso   1.00
O86    O     0.89095   0.86795   0.93163   0.00000  Uiso   1.00
N87    N     0.89367   0.97297   0.42468   0.00000  Uiso   1.00
N88    N     0.99181   0.30283   0.15248   0.00000  Uiso   1.00
N89    N     0.85805   0.93730   0.01926   0.00000  Uiso   1.00
N90    N     0.00502   0.94215   0.39421   0.00000  Uiso   1.00
N91    N     0.10316   0.27201   0.12201   0.00000  Uiso   1.00
N92    N     0.96940   0.90648   0.98879   0.00000  Uiso   1.00
C93    C     0.53301   0.11660   0.79800   0.00000  Uiso   1.00
C94    C     0.51813   0.16675   0.75025   0.00000  Uiso   1.00
C95    C     0.54900   0.22669   0.73875   0.00000  Uiso   1.00
C96    C     0.52834   0.26558   0.69320   0.00000  Uiso   1.00
C97    C     0.51278   0.34656   0.62408   0.00000  Uiso   1.00
C98    C     0.46118   0.10056   0.84417   0.00000  Uiso   1.00
C99    C     0.44418   0.10483   0.91162   0.00000  Uiso   1.00
C100   C     0.37557   0.08800   0.94512   0.00000  Uiso   1.00
C101   C     0.27162   0.06617   0.02181   0.00000  Uiso   1.00
C102   C     0.55694   0.05678   0.75816   0.00000  Uiso   1.00
C103   C     0.62043   0.02424   0.75330   0.00000  Uiso   1.00
C104   C     0.63244   0.97054   0.71440   0.00000  Uiso   1.00
C105   C     0.67715   0.88075   0.65755   0.00000  Uiso   1.00
C106   C     0.44141   0.07908   0.73756   0.00000  Uiso   1.00
C107   C     0.46838   0.14637   0.71743   0.00000  Uiso   1.00
C108   C     0.44766   0.18518   0.67188   0.00000  Uiso   1.00
C109   C     0.47850   0.24517   0.66031   0.00000  Uiso   1.00
C110   C     0.41143   0.08018   0.81134   0.00000  Uiso   1.00
C111   C     0.34284   0.06333   0.84475   0.00000  Uiso   1.00
C112   C     0.32573   0.06758   0.91224   0.00000  Uiso   1.00
C113   C     0.50719   0.03641   0.72533   0.00000  Uiso   1.00
C114   C     0.51909   0.98274   0.68643   0.00000  Uiso   1.00
C115   C     0.58260   0.95013   0.68152   0.00000  Uiso   1.00
H116   H     0.57174   0.13246   0.82356   0.00000  Uiso   1.00
H117   H     0.58750   0.24244   0.76417   0.00000  Uiso   1.00
H118   H     0.48269   0.12060   0.93701   0.00000  Uiso   1.00
H119   H     0.65892   0.04002   0.77871   0.00000  Uiso   1.00
H120   H     0.58301   0.35540   0.68386   0.00000  Uiso   1.00
H121   H     0.36203   0.09846   0.04831   0.00000  Uiso   1.00
H122   H     0.73364   0.92855   0.71452   0.00000  Uiso   1.00
H123   H     0.40268   0.06322   0.71200   0.00000  Uiso   1.00
H124   H     0.40916   0.16940   0.64649   0.00000  Uiso   1.00
H125   H     0.30436   0.04756   0.81933   0.00000  Uiso   1.00
H126   H     0.48058   0.96699   0.66104   0.00000  Uiso   1.00
H127   H     0.43826   0.29612   0.58835   0.00000  Uiso   1.00
H128   H     0.21728   0.03918   0.95281   0.00000  Uiso   1.00
H129   H     0.58889   0.86928   0.61901   0.00000  Uiso   1.00
O130   O     0.51793   0.39686   0.59504   0.00000  Uiso   1.00
O131   O     0.22802   0.05977   0.07318   0.00000  Uiso   1.00
O132   O     0.71556   0.83686   0.63525   0.00000  Uiso   1.00
N133   N     0.54806   0.32687   0.67037   0.00000  Uiso   1.00
N134   N     0.34146   0.08666   0.01111   0.00000  Uiso   1.00
N135   N     0.68887   0.92780   0.69905   0.00000  Uiso   1.00
N136   N     0.47018   0.29497   0.61897   0.00000  Uiso   1.00
N137   N     0.26357   0.05477   0.95971   0.00000  Uiso   1.00
N138   N     0.61098   0.89590   0.64765   0.00000  Uiso   1.00
C139   C     0.58656   0.56983   0.76704   0.00000  Uiso   1.00
C140   C     0.53886   0.61535   0.81451   0.00000  Uiso   1.00
C141   C     0.48901   0.59776   0.87133   0.00000  Uiso   1.00
C142   C     0.45069   0.64656   0.90814   0.00000  Uiso   1.00
C143   C     0.37495   0.70750   0.98483   0.00000  Uiso   1.00
C144   C     0.66261   0.59134   0.76148   0.00000  Uiso   1.00
C145   C     0.71681   0.55354   0.77370   0.00000  Uiso   1.00
C146   C     0.78266   0.58212   0.76585   0.00000  Uiso   1.00
C147   C     0.89906   0.60576   0.76015   0.00000  Uiso   1.00
C148   C     0.57232   0.58364   0.70067   0.00000  Uiso   1.00
C149   C     0.55062   0.53937   0.66176   0.00000  Uiso   1.00
C150   C     0.54047   0.56146   0.60271   0.00000  Uiso   1.00
C151   C     0.51668   0.57314   0.50260   0.00000  Uiso   1.00
C152   C     0.60714   0.68778   0.73136   0.00000  Uiso   1.00
C153   C     0.55004   0.67942   0.79513   0.00000  Uiso   1.00
C154   C     0.51178   0.72825   0.83186   0.00000  Uiso   1.00
C155   C     0.46189   0.71074   0.88873   0.00000  Uiso   1.00
C156   C     0.67379   0.65540   0.74210   0.00000  Uiso   1.00
C157   C     0.73958   0.68404   0.73423   0.00000  Uiso   1.00
C158   C     0.79386   0.64630   0.74644   0.00000  Uiso   1.00
C159   C     0.58349   0.64770   0.68129   0.00000  Uiso   1.00
C160   C     0.57339   0.66986   0.62229   0.00000  Uiso   1.00
C161   C     0.55167   0.62564   0.58330   0.00000  Uiso   1.00
H162   H     0.57786   0.51996   0.78212   0.00000  Uiso   1.00
H163   H     0.48038   0.54818   0.88632   0.00000  Uiso   1.00
H164   H     0.70814   0.50397   0.78869   0.00000  Uiso   1.00
H165   H     0.54197   0.48980   0.67677   0.00000  Uiso   1.00
H166   H     0.37726   0.60772   0.99330   0.00000  Uiso   1.00
H167   H     0.85751   0.51449   0.78743   0.00000  Uiso   1.00
H168   H     0.50711   0.48461   0.55142   0.00000  Uiso   1.00
H169   H     0.61584   0.73766   0.71627   0.00000  Uiso   1.00
H170   H     0.52045   0.77783   0.81686   0.00000  Uiso   1.00
H171   H     0.74821   0.73361   0.71923   0.00000  Uiso   1.00
H172   H     0.58204   0.71944   0.60731   0.00000  Uiso   1.00
H173   H     0.40978   0.79411   0.93693   0.00000  Uiso   1.00
H174   H     0.89003   0.70088   0.73105   0.00000  Uiso   1.00
H175   H     0.53963   0.67100   0.49505   0.00000  Uiso   1.00
O176   O     0.33009   0.72341   0.03248   0.00000  Uiso   1.00
O177   O     0.96017   0.60110   0.76237   0.00000  Uiso   1.00
O178   O     0.50045   0.56189   0.45274   0.00000  Uiso   1.00
N179   N     0.39799   0.64607   0.96622   0.00000  Uiso   1.00
N180   N     0.84700   0.55891   0.77376   0.00000  Uiso   1.00
N181   N     0.51942   0.53097   0.55310   0.00000  Uiso   1.00
N182   N     0.41549   0.74637   0.93589   0.00000  Uiso   1.00
N183   N     0.86450   0.65921   0.74342   0.00000  Uiso   1.00
N184   N     0.53692   0.63127   0.52276   0.00000  Uiso   1.00
C185   C     0.35261   0.97972   0.30019   0.00000  Uiso   1.00
C186   C     0.43261   0.97533   0.29246   0.00000  Uiso   1.00
C187   C     0.47823   0.02663   0.28869   0.00000  Uiso   1.00
C188   C     0.54963   0.01261   0.28168   0.00000  Uiso   1.00
C189   C     0.67006   0.01538   0.27018   0.00000  Uiso   1.00
C190   C     0.31839   0.94062   0.36117   0.00000  Uiso   1.00
C191   C     0.26797   0.96274   0.41517   0.00000  Uiso   1.00
C192   C     0.24321   0.91951   0.46600   0.00000  Uiso   1.00
C193   C     0.18628   0.86839   0.56116   0.00000  Uiso   1.00
C194   C     0.33814   0.94365   0.24302   0.00000  Uiso   1.00
C195   C     0.30431   0.96831   0.19767   0.00000  Uiso   1.00
C196   C     0.29617   0.92762   0.14903   0.00000  Uiso   1.00
C197   C     0.26990   0.88120   0.06073   0.00000  Uiso   1.00
C198   C     0.39828   0.86361   0.29445   0.00000  Uiso   1.00
C199   C     0.45741   0.91226   0.28934   0.00000  Uiso   1.00
C200   C     0.52876   0.89816   0.28233   0.00000  Uiso   1.00
C201   C     0.57448   0.94943   0.27855   0.00000  Uiso   1.00
C202   C     0.34319   0.87755   0.35806   0.00000  Uiso   1.00
C203   C     0.31850   0.83428   0.40882   0.00000  Uiso   1.00
C204   C     0.26806   0.85633   0.46288   0.00000  Uiso   1.00
C205   C     0.36295   0.88058   0.23989   0.00000  Uiso   1.00
C206   C     0.35485   0.83985   0.19132   0.00000  Uiso   1.00
C207   C     0.32102   0.86444   0.14591   0.00000  Uiso   1.00
H208   H     0.33329   0.02882   0.30262   0.00000  Uiso   1.00
H209   H     0.45901   0.07543   0.29111   0.00000  Uiso   1.00
H210   H     0.24878   0.01155   0.41757   0.00000  Uiso   1.00
H211   H     0.28512   0.01712   0.20010   0.00000  Uiso   1.00
H212   H     0.60932   0.09928   0.27699   0.00000  Uiso   1.00
H213   H     0.16602   0.96459   0.54363   0.00000  Uiso   1.00
H214   H     0.24265   0.97633   0.08506   0.00000  Uiso   1.00
H215   H     0.41760   0.81451   0.29202   0.00000  Uiso   1.00
H216   H     0.54794   0.84935   0.27992   0.00000  Uiso   1.00
H217   H     0.33771   0.78548   0.40638   0.00000  Uiso   1.00
H218   H     0.37405   0.79104   0.18892   0.00000  Uiso   1.00
H219   H     0.68151   0.91579   0.26791   0.00000  Uiso   1.00
H220   H     0.23820   0.78110   0.53455   0.00000  Uiso   1.00
H221   H     0.31483   0.79284   0.07598   0.00000  Uiso   1.00
O222   O     0.72964   0.03433   0.26470   0.00000  Uiso   1.00
O223   O     0.14803   0.85761   0.61451   0.00000  Uiso   1.00
O224   O     0.24857   0.87302   0.01288   0.00000  Uiso   1.00
N225   N     0.60843   0.05132   0.27650   0.00000  Uiso   1.00
N226   N     0.19397   0.92539   0.52579   0.00000  Uiso   1.00
N227   N     0.26560   0.93636   0.09708   0.00000  Uiso   1.00
N228   N     0.64727   0.95258   0.27161   0.00000  Uiso   1.00
N229   N     0.23281   0.82666   0.52091   0.00000  Uiso   1.00
N230   N     0.30444   0.83763   0.09220   0.00000  Uiso   1.00
C231   C     0.84035   0.60732   0.33446   0.00000  Uiso   1.00
C232   C     0.89368   0.56990   0.36232   0.00000  Uiso   1.00
C233   C     0.96249   0.55404   0.32869   0.00000  Uiso   1.00
C234   C     0.00290   0.51962   0.36284   0.00000  Uiso   1.00
C235   C     0.08990   0.46426   0.39615   0.00000  Uiso   1.00
C236   C     0.81787   0.66441   0.37884   0.00000  Uiso   1.00
C237   C     0.82293   0.72801   0.35909   0.00000  Uiso   1.00
C238   C     0.79951   0.77316   0.40714   0.00000  Uiso   1.00
C239   C     0.76877   0.86453   0.46609   0.00000  Uiso   1.00
C240   C     0.77483   0.56509   0.34478   0.00000  Uiso   1.00
C241   C     0.74368   0.54520   0.29640   0.00000  Uiso   1.00
C242   C     0.68401   0.50673   0.31579   0.00000  Uiso   1.00
C243   C     0.58643   0.44390   0.32185   0.00000  Uiso   1.00
C244   C     0.78975   0.57440   0.45492   0.00000  Uiso   1.00
C245   C     0.86620   0.55202   0.42775   0.00000  Uiso   1.00
C246   C     0.90651   0.51761   0.46196   0.00000  Uiso   1.00
C247   C     0.97537   0.50170   0.42838   0.00000  Uiso   1.00
C248   C     0.79039   0.64653   0.44426   0.00000  Uiso   1.00
C249   C     0.76695   0.69159   0.49236   0.00000  Uiso   1.00
C250   C     0.77198   0.75525   0.47269   0.00000  Uiso   1.00
C251   C     0.74734   0.54721   0.41021   0.00000  Uiso   1.00
C252   C     0.68770   0.50877   0.42967   0.00000  Uiso   1.00
C253   C     0.65648   0.48882   0.38133   0.00000  Uiso   1.00
H254   H     0.86174   0.62124   0.28353   0.00000  Uiso   1.00
H255   H     0.98374   0.56789   0.27806   0.00000  Uiso   1.00
H256   H     0.84419   0.74184   0.30845   0.00000  Uiso   1.00
H257   H     0.76496   0.55904   0.24577   0.00000  Uiso   1.00
H258   H     0.10689   0.50087   0.30086   0.00000  Uiso   1.00
H259   H     0.81263   0.86765   0.36494   0.00000  Uiso   1.00
H260   H     0.64554   0.48220   0.23277   0.00000  Uiso   1.00
H261   H     0.76835   0.56048   0.50586   0.00000  Uiso   1.00
H262   H     0.88523   0.50378   0.51259   0.00000  Uiso   1.00
H263   H     0.74568   0.67774   0.54298   0.00000  Uiso   1.00
H264   H     0.66645   0.49494   0.48031   0.00000  Uiso   1.00
H265   H     0.02693   0.44884   0.49121   0.00000  Uiso   1.00
H266   H     0.73267   0.81563   0.55530   0.00000  Uiso   1.00
H267   H     0.56559   0.43017   0.42313   0.00000  Uiso   1.00
O268   O     0.14549   0.43868   0.39646   0.00000  Uiso   1.00
O269   O     0.75941   0.91988   0.48053   0.00000  Uiso   1.00
O270   O     0.54021   0.41417   0.30713   0.00000  Uiso   1.00
N271   N     0.07202   0.49639   0.34473   0.00000  Uiso   1.00
N272   N     0.79692   0.83931   0.40464   0.00000  Uiso   1.00
N273   N     0.64070   0.47896   0.28108   0.00000  Uiso   1.00
N274   N     0.02900   0.46840   0.44716   0.00000  Uiso   1.00
N275   N     0.75390   0.81132   0.50707   0.00000  Uiso   1.00
N276   N     0.59767   0.45097   0.38351   0.00000  Uiso   1.00
C277   C     0.00734   0.64702   0.15309   0.00000  Uiso   1.00
C278   C     0.06691   0.61191   0.10524   0.00000  Uiso   1.00
C279   C     0.08510   0.54818   0.10992   0.00000  Uiso   1.00
C280   C     0.14122   0.52503   0.06121   0.00000  Uiso   1.00
C281   C     0.22813   0.46455   0.99474   0.00000  Uiso   1.00
C282   C     0.95920   0.67459   0.11277   0.00000  Uiso   1.00
C283   C     0.88683   0.66356   0.12378   0.00000  Uiso   1.00
C284   C     0.85228   0.69318   0.08141   0.00000  Uiso   1.00
C285   C     0.77197   0.73004   0.02665   0.00000  Uiso   1.00
C286   C     0.04204   0.70405   0.17628   0.00000  Uiso   1.00
C287   C     0.03930   0.71781   0.24069   0.00000  Uiso   1.00
C288   C     0.07448   0.77225   0.25180   0.00000  Uiso   1.00
C289   C     0.12278   0.85485   0.29565   0.00000  Uiso   1.00
C290   C     0.07466   0.71925   0.05829   0.00000  Uiso   1.00
C291   C     0.10347   0.65115   0.05375   0.00000  Uiso   1.00
C292   C     0.15959   0.62810   0.00503   0.00000  Uiso   1.00
C293   C     0.17786   0.56434   0.00963   0.00000  Uiso   1.00
C294   C     0.99577   0.71382   0.06128   0.00000  Uiso   1.00
C295   C     0.96132   0.74348   0.01889   0.00000  Uiso   1.00
C296   C     0.88892   0.73249   0.02983   0.00000  Uiso   1.00
C297   C     0.07861   0.74329   0.12479   0.00000  Uiso   1.00
C298   C     0.11380   0.79772   0.13580   0.00000  Uiso   1.00
C299   C     0.11112   0.81156   0.20022   0.00000  Uiso   1.00
H300   H     0.97886   0.61647   0.19318   0.00000  Uiso   1.00
H301   H     0.05678   0.51783   0.14977   0.00000  Uiso   1.00
H302   H     0.85854   0.63320   0.16363   0.00000  Uiso   1.00
H303   H     0.01100   0.68744   0.28053   0.00000  Uiso   1.00
H304   H     0.15927   0.42576   0.07892   0.00000  Uiso   1.00
H305   H     0.74128   0.66904   0.10817   0.00000  Uiso   1.00
H306   H     0.06275   0.78341   0.35467   0.00000  Uiso   1.00
H307   H     0.10313   0.74980   0.01820   0.00000  Uiso   1.00
H308   H     0.18788   0.65847   0.96519   0.00000  Uiso   1.00
H309   H     0.98964   0.77384   0.97905   0.00000  Uiso   1.00
H310   H     0.14209   0.82807   0.09595   0.00000  Uiso   1.00
H311   H     0.26567   0.53991   0.92911   0.00000  Uiso   1.00
H312   H     0.84767   0.78319   0.95835   0.00000  Uiso   1.00
H313   H     0.16915   0.89756   0.20485   0.00000  Uiso   1.00
O314   O     0.26596   0.42034   0.97229   0.00000  Uiso   1.00
O315   O     0.71756   0.73952   0.01067   0.00000  Uiso   1.00
O316   O     0.13933   0.88957   0.33407   0.00000  Uiso   1.00
N317   N     0.17269   0.46516   0.05095   0.00000  Uiso   1.00
N318   N     0.78189   0.69260   0.07828   0.00000  Uiso   1.00
N319   N     0.08243   0.79954   0.30874   0.00000  Uiso   1.00
N320   N     0.22995   0.52658   0.97033   0.00000  Uiso   1.00
N321   N     0.83915   0.75403   0.99767   0.00000  Uiso   1.00
N322   N     0.13968   0.86096   0.22813   0.00000  Uiso   1.00
C323   C     0.08143   0.14536   0.46568   0.00000  Uiso   1.00
C324   C     0.04359   0.20056   0.44077   0.00000  Uiso   1.00
C325   C     0.03299   0.20635   0.37864   0.00000  Uiso   1.00
C326   C     0.99715   0.26043   0.36539   0.00000  Uiso   1.00
C327   C     0.94207   0.33904   0.31953   0.00000  Uiso   1.00
C328   C     0.02867   0.11908   0.52630   0.00000  Uiso   1.00
C329   C     0.00553   0.05638   0.53608   0.00000  Uiso   1.00
C330   C     0.95712   0.04187   0.59484   0.00000  Uiso   1.00
C331   C     0.87891   0.99398   0.68179   0.00000  Uiso   1.00
C332   C     0.14132   0.17518   0.48957   0.00000  Uiso   1.00
C333   C     0.21291   0.15963   0.46848   0.00000  Uiso   1.00
C334   C     0.25935   0.19234   0.49633   0.00000  Uiso   1.00
C335   C     0.35605   0.23155   0.52625   0.00000  Uiso   1.00
C336   C     0.03663   0.23109   0.55264   0.00000  Uiso   1.00
C337   C     0.01926   0.24712   0.48800   0.00000  Uiso   1.00
C338   C     0.98342   0.30121   0.47484   0.00000  Uiso   1.00
C339   C     0.97277   0.30708   0.41270   0.00000  Uiso   1.00
C340   C     0.00433   0.16564   0.57353   0.00000  Uiso   1.00
C341   C     0.95596   0.15123   0.63229   0.00000  Uiso   1.00
C342   C     0.93275   0.08852   0.64216   0.00000  Uiso   1.00
C343   C     0.11699   0.22175   0.53680   0.00000  Uiso   1.00
C344   C     0.16333   0.25448   0.56469   0.00000  Uiso   1.00
C345   C     0.23497   0.23899   0.54364   0.00000  Uiso   1.00
H346   H     0.10037   0.10910   0.42891   0.00000  Uiso   1.00
H347   H     0.05183   0.17030   0.34210   0.00000  Uiso   1.00
H348   H     0.02437   0.02035   0.49952   0.00000  Uiso   1.00
H349   H     0.23172   0.12359   0.43193   0.00000  Uiso   1.00
H350   H     0.98725   0.25868   0.26669   0.00000  Uiso   1.00
H351   H     0.92938   0.94249   0.59864   0.00000  Uiso   1.00
H352   H     0.36660   0.16019   0.45610   0.00000  Uiso   1.00
H353   H     0.01768   0.26734   0.58941   0.00000  Uiso   1.00
H354   H     0.96460   0.33723   0.51141   0.00000  Uiso   1.00
H355   H     0.93714   0.18727   0.66883   0.00000  Uiso   1.00
H356   H     0.14449   0.29052   0.60124   0.00000  Uiso   1.00
H357   H     0.91645   0.39417   0.40410   0.00000  Uiso   1.00
H358   H     0.85858   0.07797   0.73605   0.00000  Uiso   1.00
H359   H     0.29580   0.29568   0.59352   0.00000  Uiso   1.00
O360   O     0.91840   0.36954   0.28119   0.00000  Uiso   1.00
O361   O     0.84248   0.95470   0.71670   0.00000  Uiso   1.00
O362   O     0.41611   0.24032   0.52969   0.00000  Uiso   1.00
N363   N     0.97788   0.28099   0.30973   0.00000  Uiso   1.00
N364   N     0.92377   0.98536   0.62008   0.00000  Uiso   1.00
N365   N     0.33254   0.18889   0.48683   0.00000  Uiso   1.00
N366   N     0.93979   0.35389   0.38367   0.00000  Uiso   1.00
N367   N     0.88567   0.05827   0.69402   0.00000  Uiso   1.00
N368   N     0.29444   0.26179   0.56078   0.00000  Uiso   1.00
C369   C     0.75389   0.13117   0.97547   0.00000  Uiso   1.00
C370   C     0.70868   0.07095   0.98554   0.00000  Uiso   1.00
C371   C     0.65610   0.05524   0.04117   0.00000  Uiso   1.00
C372   C     0.62076   0.99800   0.04080   0.00000  Uiso   1.00
C373   C     0.54800   0.91059   0.06465   0.00000  Uiso   1.00
C374   C     0.74303   0.16347   0.91378   0.00000  Uiso   1.00
C375   C     0.71934   0.22556   0.90908   0.00000  Uiso   1.00
C376   C     0.71293   0.24620   0.84830   0.00000  Uiso   1.00
C377   C     0.69355   0.30245   0.76072   0.00000  Uiso   1.00
C378   C     0.83102   0.10857   0.95886   0.00000  Uiso   1.00
C379   C     0.88132   0.12451   0.99204   0.00000  Uiso   1.00
C380   C     0.94899   0.09894   0.96919   0.00000  Uiso   1.00
C381   C     0.06622   0.06996   0.95160   0.00000  Uiso   1.00
C382   C     0.78464   0.05743   0.87590   0.00000  Uiso   1.00
C383   C     0.72538   0.03089   0.93145   0.00000  Uiso   1.00
C384   C     0.69012   0.97366   0.93100   0.00000  Uiso   1.00
C385   C     0.63749   0.95787   0.98662   0.00000  Uiso   1.00
C386   C     0.75973   0.12342   0.85970   0.00000  Uiso   1.00
C387   C     0.75336   0.14397   0.79891   0.00000  Uiso   1.00
C388   C     0.72966   0.20607   0.79411   0.00000  Uiso   1.00
C389   C     0.84772   0.06851   0.90477   0.00000  Uiso   1.00
C390   C     0.91533   0.04292   0.88187   0.00000  Uiso   1.00
C391   C     0.96572   0.05882   0.91501   0.00000  Uiso   1.00
H392   H     0.74088   0.16236   0.01758   0.00000  Uiso   1.00
H393   H     0.64318   0.08626   0.08302   0.00000  Uiso   1.00
H394   H     0.70643   0.25655   0.95094   0.00000  Uiso   1.00
H395   H     0.86837   0.15551   0.03389   0.00000  Uiso   1.00
H396   H     0.54221   0.98423   0.13170   0.00000  Uiso   1.00
H397   H     0.67559   0.34330   0.85321   0.00000  Uiso   1.00
H398   H     0.01708   0.13025   0.02812   0.00000  Uiso   1.00
H399   H     0.79764   0.02625   0.83378   0.00000  Uiso   1.00
H400   H     0.70305   0.94267   0.88914   0.00000  Uiso   1.00
H401   H     0.76629   0.11296   0.75706   0.00000  Uiso   1.00
H402   H     0.92824   0.01193   0.84001   0.00000  Uiso   1.00
H403   H     0.59080   0.86769   0.97434   0.00000  Uiso   1.00
H404   H     0.72418   0.22677   0.69585   0.00000  Uiso   1.00
H405   H     0.06567   0.01372   0.87076   0.00000  Uiso   1.00
O406   O     0.50324   0.87345   0.09274   0.00000  Uiso   1.00
O407   O     0.67824   0.34454   0.72737   0.00000  Uiso   1.00
O408   O     0.12627   0.06503   0.95685   0.00000  Uiso   1.00
N409   N     0.56664   0.96827   0.08707   0.00000  Uiso   1.00
N410   N     0.69132   0.30397   0.82670   0.00000  Uiso   1.00
N411   N     0.01060   0.10481   0.99022   0.00000  Uiso   1.00
N412   N     0.59278   0.90556   0.00240   0.00000  Uiso   1.00
N413   N     0.71747   0.24127   0.74203   0.00000  Uiso   1.00
N414   N     0.03675   0.04210   0.90555   0.00000  Uiso   1.00
C415   C     0.48777   0.64958   0.12788   0.00000  Uiso   1.00
C416   C     0.51783   0.58504   0.10172   0.00000  Uiso   1.00
C417   C     0.53671   0.56788   0.03660   0.00000  Uiso   1.00
C418   C     0.56320   0.50658   0.02266   0.00000  Uiso   1.00
C419   C     0.60873   0.41283   0.97452   0.00000  Uiso   1.00
C420   C     0.41731   0.63559   0.17717   0.00000  Uiso   1.00
C421   C     0.35168   0.66096   0.17550   0.00000  Uiso   1.00
C422   C     0.29356   0.64222   0.22508   0.00000  Uiso   1.00
C423   C     0.18304   0.62699   0.29411   0.00000  Uiso   1.00
C424   C     0.53740   0.67441   0.16714   0.00000  Uiso   1.00
C425   C     0.57273   0.73242   0.15704   0.00000  Uiso   1.00
C426   C     0.61570   0.74637   0.19819   0.00000  Uiso   1.00
C427   C     0.69164   0.79140   0.25164   0.00000  Uiso   1.00
C428   C     0.50126   0.57122   0.21892   0.00000  Uiso   1.00
C429   C     0.52515   0.54247   0.15117   0.00000  Uiso   1.00
C430   C     0.55163   0.48118   0.13732   0.00000  Uiso   1.00
C431   C     0.57054   0.46394   0.07220   0.00000  Uiso   1.00
C432   C     0.42464   0.59303   0.22662   0.00000  Uiso   1.00
C433   C     0.36660   0.57426   0.27622   0.00000  Uiso   1.00
C434   C     0.30090   0.59958   0.27462   0.00000  Uiso   1.00
C435   C     0.54473   0.63184   0.21659   0.00000  Uiso   1.00
C436   C     0.58765   0.64571   0.25776   0.00000  Uiso   1.00
C437   C     0.62304   0.70373   0.24773   0.00000  Uiso   1.00
H438   H     0.48206   0.68272   0.08939   0.00000  Uiso   1.00
H439   H     0.53102   0.60084   0.99835   0.00000  Uiso   1.00
H440   H     0.34603   0.69390   0.13723   0.00000  Uiso   1.00
H441   H     0.56704   0.76534   0.11877   0.00000  Uiso   1.00
H442   H     0.58851   0.49127   0.91923   0.00000  Uiso   1.00
H443   H     0.19844   0.68752   0.21207   0.00000  Uiso   1.00
H444   H     0.66450   0.83817   0.17316   0.00000  Uiso   1.00
H445   H     0.50696   0.53808   0.25742   0.00000  Uiso   1.00
H446   H     0.55729   0.44826   0.17560   0.00000  Uiso   1.00
H447   H     0.37229   0.54132   0.31448   0.00000  Uiso   1.00
H448   H     0.59331   0.61276   0.29603   0.00000  Uiso   1.00
H449   H     0.60983   0.36743   0.06309   0.00000  Uiso   1.00
H450   H     0.21976   0.56368   0.35594   0.00000  Uiso   1.00
H451   H     0.68582   0.71433   0.31702   0.00000  Uiso   1.00
O452   O     0.63181   0.37287   0.93431   0.00000  Uiso   1.00
O453   O     0.12005   0.63035   0.31852   0.00000  Uiso   1.00
O454   O     0.73151   0.82800   0.26746   0.00000  Uiso   1.00
N455   N     0.58663   0.47446   0.96431   0.00000  Uiso   1.00
N456   N     0.22194   0.65793   0.23810   0.00000  Uiso   1.00
N457   N     0.65765   0.79879   0.20173   0.00000  Uiso   1.00
N458   N     0.59811   0.40782   0.04172   0.00000  Uiso   1.00
N459   N     0.23341   0.59129   0.31551   0.00000  Uiso   1.00
N460   N     0.66912   0.73215   0.27914   0.00000  Uiso   1.00
C461   C     0.70815   0.13133   0.39597   0.00000  Uiso   1.00
C462   C     0.64395   0.09053   0.42839   0.00000  Uiso   1.00
C463   C     0.64105   0.02443   0.42727   0.00000  Uiso   1.00
C464   C     0.57743   0.99604   0.45987   0.00000  Uiso   1.00
C465   C     0.48664   0.92713   0.50524   0.00000  Uiso   1.00
C466   C     0.68274   0.17787   0.35064   0.00000  Uiso   1.00
C467   C     0.71246   0.18520   0.28415   0.00000  Uiso   1.00
C468   C     0.68149   0.23034   0.25130   0.00000  Uiso   1.00
C469   C     0.65095   0.29707   0.17596   0.00000  Uiso   1.00
C470   C     0.72386   0.17159   0.44992   0.00000  Uiso   1.00
C471   C     0.78816   0.17368   0.46690   0.00000  Uiso   1.00
C472   C     0.79181   0.21355   0.51764   0.00000  Uiso   1.00
C473   C     0.82512   0.27054   0.59645   0.00000  Uiso   1.00
C474   C     0.60032   0.19845   0.45587   0.00000  Uiso   1.00
C475   C     0.58538   0.12699   0.46092   0.00000  Uiso   1.00
C476   C     0.52174   0.09869   0.49354   0.00000  Uiso   1.00
C477   C     0.51875   0.03256   0.49247   0.00000  Uiso   1.00
C478   C     0.62417   0.21433   0.38317   0.00000  Uiso   1.00
C479   C     0.59315   0.25947   0.35042   0.00000  Uiso   1.00
C480   C     0.62281   0.26687   0.28389   0.00000  Uiso   1.00
C481   C     0.66529   0.20805   0.48246   0.00000  Uiso   1.00
C482   C     0.66884   0.24794   0.53317   0.00000  Uiso   1.00
C483   C     0.73313   0.25008   0.55023   0.00000  Uiso   1.00
H484   H     0.75375   0.10295   0.37064   0.00000  Uiso   1.00
H485   H     0.68639   0.99623   0.40208   0.00000  Uiso   1.00
H486   H     0.75779   0.15699   0.25898   0.00000  Uiso   1.00
H487   H     0.83347   0.14545   0.44171   0.00000  Uiso   1.00
H488   H     0.58587   0.89399   0.45127   0.00000  Uiso   1.00
H489   H     0.73643   0.23297   0.14954   0.00000  Uiso   1.00
H490   H     0.89602   0.20866   0.53486   0.00000  Uiso   1.00
H491   H     0.55471   0.22684   0.48120   0.00000  Uiso   1.00
H492   H     0.47643   0.12692   0.51871   0.00000  Uiso   1.00
H493   H     0.54783   0.28768   0.37561   0.00000  Uiso   1.00
H494   H     0.62351   0.27615   0.55834   0.00000  Uiso   1.00
H495   H     0.41545   0.00006   0.54593   0.00000  Uiso   1.00
H496   H     0.56602   0.33905   0.24420   0.00000  Uiso   1.00
H497   H     0.72561   0.31473   0.62952   0.00000  Uiso   1.00
O498   O     0.45274   0.87906   0.52126   0.00000  Uiso   1.00
O499   O     0.65029   0.32380   0.12542   0.00000  Uiso   1.00
O500   O     0.85967   0.29190   0.63094   0.00000  Uiso   1.00
N501   N     0.55651   0.93267   0.46841   0.00000  Uiso   1.00
N502   N     0.69727   0.24959   0.18631   0.00000  Uiso   1.00
N503   N     0.84648   0.22687   0.54654   0.00000  Uiso   1.00
N504   N     0.46481   0.98974   0.51935   0.00000  Uiso   1.00
N505   N     0.60557   0.30667   0.23725   0.00000  Uiso   1.00
N506   N     0.75478   0.28395   0.59748   0.00000  Uiso   1.00
C507   C     0.19640   0.49459   0.55842   0.00000  Uiso   1.00
C508   C     0.17835   0.55614   0.52674   0.00000  Uiso   1.00
C509   C     0.11098   0.57496   0.52286   0.00000  Uiso   1.00
C510   C     0.10556   0.63294   0.49191   0.00000  Uiso   1.00
C511   C     0.06843   0.72276   0.44666   0.00000  Uiso   1.00
C512   C     0.25217   0.46051   0.50590   0.00000  Uiso   1.00
C513   C     0.24687   0.39892   0.48451   0.00000  Uiso   1.00
C514   C     0.30361   0.37640   0.43603   0.00000  Uiso   1.00
C515   C     0.38112   0.31772   0.35847   0.00000  Uiso   1.00
C516   C     0.23420   0.51476   0.60967   0.00000  Uiso   1.00
C517   C     0.21381   0.49877   0.67553   0.00000  Uiso   1.00
C518   C     0.25542   0.52192   0.71441   0.00000  Uiso   1.00
C519   C     0.30502   0.54747   0.79796   0.00000  Uiso   1.00
C520   C     0.30659   0.56411   0.51035   0.00000  Uiso   1.00
C521   C     0.23820   0.59390   0.50063   0.00000  Uiso   1.00
C522   C     0.23289   0.65187   0.46968   0.00000  Uiso   1.00
C523   C     0.16552   0.67077   0.46576   0.00000  Uiso   1.00
C524   C     0.31202   0.49826   0.47980   0.00000  Uiso   1.00
C525   C     0.36879   0.47583   0.43134   0.00000  Uiso   1.00
C526   C     0.36357   0.41422   0.40988   0.00000  Uiso   1.00
C527   C     0.29405   0.55252   0.58356   0.00000  Uiso   1.00
C528   C     0.33572   0.57569   0.62235   0.00000  Uiso   1.00
C529   C     0.31538   0.55974   0.68826   0.00000  Uiso   1.00
H530   H     0.14981   0.46520   0.57874   0.00000  Uiso   1.00
H531   H     0.06467   0.54572   0.54306   0.00000  Uiso   1.00
H532   H     0.20055   0.36971   0.50473   0.00000  Uiso   1.00
H533   H     0.16749   0.46955   0.69571   0.00000  Uiso   1.00
H534   H     0.99668   0.65165   0.49197   0.00000  Uiso   1.00
H535   H     0.28320   0.28050   0.41116   0.00000  Uiso   1.00
H536   H     0.21348   0.49104   0.81389   0.00000  Uiso   1.00
H537   H     0.35319   0.59350   0.49003   0.00000  Uiso   1.00
H538   H     0.27921   0.68108   0.44949   0.00000  Uiso   1.00
H539   H     0.41510   0.50506   0.41115   0.00000  Uiso   1.00
H540   H     0.38203   0.60490   0.60213   0.00000  Uiso   1.00
H541   H     0.17081   0.76150   0.41602   0.00000  Uiso   1.00
H542   H     0.45734   0.39035   0.33521   0.00000  Uiso   1.00
H543   H     0.38761   0.60089   0.73794   0.00000  Uiso   1.00
O544   O     0.03141   0.76186   0.42890   0.00000  Uiso   1.00
O545   O     0.40733   0.27493   0.32290   0.00000  Uiso   1.00
O546   O     0.31584   0.55115   0.85126   0.00000  Uiso   1.00
N547   N     0.04781   0.66549   0.47967   0.00000  Uiso   1.00
N548   N     0.31569   0.31849   0.40411   0.00000  Uiso   1.00
N549   N     0.25051   0.51531   0.78062   0.00000  Uiso   1.00
N550   N     0.14151   0.72460   0.43880   0.00000  Uiso   1.00
N551   N     0.40939   0.37761   0.36324   0.00000  Uiso   1.00
N552   N     0.34421   0.57443   0.73976   0.00000  Uiso   1.00
