data_job_05013
_audit_creation_date              2018-12-19
_audit_creation_method            'Materials Studio'
_symmetry_space_group_name_H-M    'P1'
_symmetry_Int_Tables_number       1
_symmetry_cell_setting            triclinic
loop_
_symmetry_equiv_pos_as_xyz
  x,y,z
_cell_length_a                    27.9232
_cell_length_b                    15.3459
_cell_length_c                    10.2464
_cell_angle_alpha                 90.0000
_cell_angle_beta                  90.0000
_cell_angle_gamma                 90.0000
loop_
_atom_site_label
_atom_site_type_symbol
_atom_site_fract_x
_atom_site_fract_y
_atom_site_fract_z
_atom_site_U_iso_or_equiv
_atom_site_adp_type
_atom_site_occupancy
C1     C     0.63445   0.92048   0.93017   0.00000  Uiso   1.00
C2     C     0.65841   0.83533   0.97047   0.00000  Uiso   1.00
C3     C     0.69880   0.79919   0.91300   0.00000  Uiso   1.00
C4     C     0.71517   0.72086   0.96403   0.00000  Uiso   1.00
C5     C     0.75589   0.59481   0.01064   0.00000  Uiso   1.00
C6     C     0.58248   0.89767   0.89979   0.00000  Uiso   1.00
C7     C     0.55902   0.91396   0.78290   0.00000  Uiso   1.00
C8     C     0.51147   0.88811   0.77446   0.00000  Uiso   1.00
C9     C     0.43429   0.85891   0.71137   0.00000  Uiso   1.00
C10    C     0.63318   0.97712   0.05238   0.00000  Uiso   1.00
C11    C     0.65233   0.06023   0.06379   0.00000  Uiso   1.00
C12    C     0.64745   0.10128   0.18381   0.00000  Uiso   1.00
C13    C     0.64899   0.19544   0.35764   0.00000  Uiso   1.00
C14    C     0.59172   0.84563   0.12301   0.00000  Uiso   1.00
C15    C     0.63520   0.79468   0.07521   0.00000  Uiso   1.00
C16    C     0.65152   0.71638   0.12636   0.00000  Uiso   1.00
C17    C     0.69192   0.68013   0.06897   0.00000  Uiso   1.00
C18    C     0.55927   0.85702   0.00453   0.00000  Uiso   1.00
C19    C     0.51174   0.83115   0.99626   0.00000  Uiso   1.00
C20    C     0.48821   0.84739   0.87939   0.00000  Uiso   1.00
C21    C     0.60997   0.93647   0.15713   0.00000  Uiso   1.00
C22    C     0.60505   0.97741   0.27715   0.00000  Uiso   1.00
C23    C     0.62420   0.06055   0.28874   0.00000  Uiso   1.00
H24    H     0.65252   0.95213   0.84862   0.00000  Uiso   1.00
H25    H     0.71675   0.83067   0.83193   0.00000  Uiso   1.00
H26    H     0.57699   0.94543   0.70187   0.00000  Uiso   1.00
H27    H     0.67029   0.09167   0.98271   0.00000  Uiso   1.00
H28    H     0.77771   0.67807   0.85959   0.00000  Uiso   1.00
H29    H     0.48301   0.92007   0.58536   0.00000  Uiso   1.00
H30    H     0.67975   0.22845   0.17758   0.00000  Uiso   1.00
H31    H     0.57365   0.81397   0.20456   0.00000  Uiso   1.00
H32    H     0.63355   0.68493   0.20742   0.00000  Uiso   1.00
H33    H     0.49379   0.79969   0.07735   0.00000  Uiso   1.00
H34    H     0.58709   0.94593   0.35819   0.00000  Uiso   1.00
H35    H     0.71018   0.55978   0.16434   0.00000  Uiso   1.00
H36    H     0.41549   0.80179   0.89011   0.00000  Uiso   1.00
H37    H     0.61223   0.11016   0.48233   0.00000  Uiso   1.00
O38    O     0.78476   0.53651   0.00739   0.00000  Uiso   1.00
O39    O     0.39814   0.85403   0.64762   0.00000  Uiso   1.00
O40    O     0.65625   0.25860   0.42460   0.00000  Uiso   1.00
N41    N     0.75360   0.66795   0.93094   0.00000  Uiso   1.00
N42    N     0.47808   0.89419   0.67455   0.00000  Uiso   1.00
N43    N     0.66200   0.18251   0.22821   0.00000  Uiso   1.00
N44    N     0.71726   0.60430   0.09493   0.00000  Uiso   1.00
N45    N     0.44175   0.83054   0.83853   0.00000  Uiso   1.00
N46    N     0.62567   0.11886   0.39219   0.00000  Uiso   1.00
C47    C     0.12290   0.89945   0.68203   0.00000  Uiso   1.00
C48    C     0.14451   0.81054   0.71283   0.00000  Uiso   1.00
C49    C     0.18194   0.77129   0.64587   0.00000  Uiso   1.00
C50    C     0.19651   0.68977   0.68919   0.00000  Uiso   1.00
C51    C     0.23341   0.55789   0.72077   0.00000  Uiso   1.00
C52    C     0.06956   0.88384   0.66021   0.00000  Uiso   1.00
C53    C     0.04398   0.90625   0.54903   0.00000  Uiso   1.00
C54    C     0.99547   0.88644   0.54807   0.00000  Uiso   1.00
C55    C     0.91601   0.86843   0.49801   0.00000  Uiso   1.00
C56    C     0.12674   0.95258   0.80735   0.00000  Uiso   1.00
C57    C     0.14923   0.03280   0.81989   0.00000  Uiso   1.00
C58    C     0.14885   0.07088   0.94280   0.00000  Uiso   1.00
C59    C     0.15817   0.15959   0.12120   0.00000  Uiso   1.00
C60    C     0.08221   0.82446   0.87802   0.00000  Uiso   1.00
C61    C     0.12241   0.76981   0.81928   0.00000  Uiso   1.00
C62    C     0.13693   0.68832   0.86271   0.00000  Uiso   1.00
C63    C     0.17438   0.64897   0.79583   0.00000  Uiso   1.00
C64    C     0.04746   0.84311   0.76666   0.00000  Uiso   1.00
C65    C     0.99897   0.82328   0.76587   0.00000  Uiso   1.00
C66    C     0.97333   0.84564   0.65471   0.00000  Uiso   1.00
C67    C     0.10465   0.91185   0.91381   0.00000  Uiso   1.00
C68    C     0.10422   0.94982   0.03672   0.00000  Uiso   1.00
C69    C     0.12671   0.03007   0.04944   0.00000  Uiso   1.00
H70    H     0.14010   0.93116   0.59915   0.00000  Uiso   1.00
H71    H     0.19903   0.80283   0.56349   0.00000  Uiso   1.00
H72    H     0.06109   0.93777   0.46667   0.00000  Uiso   1.00
H73    H     0.16633   0.06430   0.73749   0.00000  Uiso   1.00
H74    H     0.25461   0.64258   0.57086   0.00000  Uiso   1.00
H75    H     0.96376   0.92713   0.36674   0.00000  Uiso   1.00
H76    H     0.18566   0.19394   0.93780   0.00000  Uiso   1.00
H77    H     0.06501   0.79275   0.96090   0.00000  Uiso   1.00
H78    H     0.11982   0.65682   0.94509   0.00000  Uiso   1.00
H79    H     0.98188   0.79176   0.84827   0.00000  Uiso   1.00
H80    H     0.08712   0.91828   0.11908   0.00000  Uiso   1.00
H81    H     0.19032   0.52406   0.88058   0.00000  Uiso   1.00
H82    H     0.89947   0.80863   0.67646   0.00000  Uiso   1.00
H83    H     0.12137   0.07543   0.24752   0.00000  Uiso   1.00
O84    O     0.25986   0.49639   0.70877   0.00000  Uiso   1.00
O85    O     0.87828   0.86973   0.44097   0.00000  Uiso   1.00
O86    O     0.16942   0.21977   0.19019   0.00000  Uiso   1.00
N87    N     0.23196   0.63335   0.64594   0.00000  Uiso   1.00
N88    N     0.96004   0.89938   0.45509   0.00000  Uiso   1.00
N89    N     0.16749   0.14883   0.98898   0.00000  Uiso   1.00
N90    N     0.19737   0.56958   0.81260   0.00000  Uiso   1.00
N91    N     0.92544   0.83561   0.62175   0.00000  Uiso   1.00
N92    N     0.13289   0.08506   0.15563   0.00000  Uiso   1.00
C93    C     0.36555   0.07952   0.93017   0.00000  Uiso   1.00
C94    C     0.34159   0.16467   0.97047   0.00000  Uiso   1.00
C95    C     0.30120   0.20081   0.91300   0.00000  Uiso   1.00
C96    C     0.28483   0.27914   0.96403   0.00000  Uiso   1.00
C97    C     0.24411   0.40519   0.01064   0.00000  Uiso   1.00
C98    C     0.41752   0.10233   0.89979   0.00000  Uiso   1.00
C99    C     0.44098   0.08604   0.78290   0.00000  Uiso   1.00
C100   C     0.48853   0.11189   0.77446   0.00000  Uiso   1.00
C101   C     0.56571   0.14109   0.71137   0.00000  Uiso   1.00
C102   C     0.36682   0.02288   0.05238   0.00000  Uiso   1.00
C103   C     0.34767   0.93977   0.06379   0.00000  Uiso   1.00
C104   C     0.35255   0.89872   0.18381   0.00000  Uiso   1.00
C105   C     0.35101   0.80456   0.35764   0.00000  Uiso   1.00
C106   C     0.40828   0.15437   0.12301   0.00000  Uiso   1.00
C107   C     0.36480   0.20532   0.07521   0.00000  Uiso   1.00
C108   C     0.34848   0.28362   0.12636   0.00000  Uiso   1.00
C109   C     0.30808   0.31987   0.06897   0.00000  Uiso   1.00
C110   C     0.44073   0.14298   0.00453   0.00000  Uiso   1.00
C111   C     0.48826   0.16885   0.99626   0.00000  Uiso   1.00
C112   C     0.51179   0.15261   0.87939   0.00000  Uiso   1.00
C113   C     0.39003   0.06353   0.15713   0.00000  Uiso   1.00
C114   C     0.39495   0.02259   0.27715   0.00000  Uiso   1.00
C115   C     0.37580   0.93945   0.28874   0.00000  Uiso   1.00
H116   H     0.34748   0.04787   0.84862   0.00000  Uiso   1.00
H117   H     0.28325   0.16933   0.83193   0.00000  Uiso   1.00
H118   H     0.42301   0.05457   0.70187   0.00000  Uiso   1.00
H119   H     0.32971   0.90833   0.98271   0.00000  Uiso   1.00
H120   H     0.22229   0.32193   0.85959   0.00000  Uiso   1.00
H121   H     0.51699   0.07993   0.58536   0.00000  Uiso   1.00
H122   H     0.32025   0.77155   0.17758   0.00000  Uiso   1.00
H123   H     0.42635   0.18603   0.20456   0.00000  Uiso   1.00
H124   H     0.36645   0.31507   0.20742   0.00000  Uiso   1.00
H125   H     0.50621   0.20031   0.07735   0.00000  Uiso   1.00
H126   H     0.41291   0.05407   0.35819   0.00000  Uiso   1.00
H127   H     0.28982   0.44022   0.16434   0.00000  Uiso   1.00
H128   H     0.58451   0.19821   0.89011   0.00000  Uiso   1.00
H129   H     0.38777   0.88984   0.48233   0.00000  Uiso   1.00
O130   O     0.21524   0.46349   0.00739   0.00000  Uiso   1.00
O131   O     0.60186   0.14597   0.64762   0.00000  Uiso   1.00
O132   O     0.34375   0.74140   0.42460   0.00000  Uiso   1.00
N133   N     0.24640   0.33205   0.93094   0.00000  Uiso   1.00
N134   N     0.52192   0.10581   0.67455   0.00000  Uiso   1.00
N135   N     0.33800   0.81749   0.22821   0.00000  Uiso   1.00
N136   N     0.28274   0.39570   0.09493   0.00000  Uiso   1.00
N137   N     0.55825   0.16946   0.83853   0.00000  Uiso   1.00
N138   N     0.37433   0.88114   0.39219   0.00000  Uiso   1.00
C139   C     0.87710   0.10055   0.68203   0.00000  Uiso   1.00
C140   C     0.85549   0.18946   0.71283   0.00000  Uiso   1.00
C141   C     0.81806   0.22871   0.64587   0.00000  Uiso   1.00
C142   C     0.80349   0.31023   0.68919   0.00000  Uiso   1.00
C143   C     0.76659   0.44211   0.72077   0.00000  Uiso   1.00
C144   C     0.93044   0.11616   0.66021   0.00000  Uiso   1.00
C145   C     0.95602   0.09375   0.54903   0.00000  Uiso   1.00
C146   C     0.00453   0.11356   0.54807   0.00000  Uiso   1.00
C147   C     0.08399   0.13157   0.49801   0.00000  Uiso   1.00
C148   C     0.87326   0.04742   0.80735   0.00000  Uiso   1.00
C149   C     0.85077   0.96720   0.81989   0.00000  Uiso   1.00
C150   C     0.85115   0.92912   0.94280   0.00000  Uiso   1.00
C151   C     0.84183   0.84041   0.12120   0.00000  Uiso   1.00
C152   C     0.91779   0.17554   0.87802   0.00000  Uiso   1.00
C153   C     0.87759   0.23019   0.81928   0.00000  Uiso   1.00
C154   C     0.86307   0.31168   0.86271   0.00000  Uiso   1.00
C155   C     0.82562   0.35103   0.79583   0.00000  Uiso   1.00
C156   C     0.95254   0.15689   0.76666   0.00000  Uiso   1.00
C157   C     0.00103   0.17672   0.76587   0.00000  Uiso   1.00
C158   C     0.02667   0.15436   0.65471   0.00000  Uiso   1.00
C159   C     0.89535   0.08815   0.91381   0.00000  Uiso   1.00
C160   C     0.89578   0.05018   0.03672   0.00000  Uiso   1.00
C161   C     0.87329   0.96993   0.04944   0.00000  Uiso   1.00
H162   H     0.85990   0.06884   0.59915   0.00000  Uiso   1.00
H163   H     0.80097   0.19717   0.56349   0.00000  Uiso   1.00
H164   H     0.93891   0.06223   0.46667   0.00000  Uiso   1.00
H165   H     0.83367   0.93570   0.73749   0.00000  Uiso   1.00
H166   H     0.74539   0.35742   0.57086   0.00000  Uiso   1.00
H167   H     0.03624   0.07287   0.36674   0.00000  Uiso   1.00
H168   H     0.81434   0.80606   0.93780   0.00000  Uiso   1.00
H169   H     0.93499   0.20725   0.96090   0.00000  Uiso   1.00
H170   H     0.88018   0.34318   0.94509   0.00000  Uiso   1.00
H171   H     0.01812   0.20824   0.84827   0.00000  Uiso   1.00
H172   H     0.91288   0.08172   0.11908   0.00000  Uiso   1.00
H173   H     0.80968   0.47594   0.88058   0.00000  Uiso   1.00
H174   H     0.10053   0.19137   0.67646   0.00000  Uiso   1.00
H175   H     0.87863   0.92457   0.24752   0.00000  Uiso   1.00
O176   O     0.74014   0.50361   0.70877   0.00000  Uiso   1.00
O177   O     0.12172   0.13027   0.44097   0.00000  Uiso   1.00
O178   O     0.83058   0.78023   0.19019   0.00000  Uiso   1.00
N179   N     0.76804   0.36665   0.64594   0.00000  Uiso   1.00
N180   N     0.03996   0.10062   0.45509   0.00000  Uiso   1.00
N181   N     0.83251   0.85117   0.98898   0.00000  Uiso   1.00
N182   N     0.80263   0.43042   0.81260   0.00000  Uiso   1.00
N183   N     0.07456   0.16439   0.62175   0.00000  Uiso   1.00
N184   N     0.86711   0.91494   0.15563   0.00000  Uiso   1.00
C185   C     0.63445   0.57952   0.43017   0.00000  Uiso   1.00
C186   C     0.65841   0.66467   0.47047   0.00000  Uiso   1.00
C187   C     0.69880   0.70081   0.41300   0.00000  Uiso   1.00
C188   C     0.71517   0.77914   0.46403   0.00000  Uiso   1.00
C189   C     0.75589   0.90519   0.51064   0.00000  Uiso   1.00
C190   C     0.58248   0.60233   0.39979   0.00000  Uiso   1.00
C191   C     0.55902   0.58604   0.28290   0.00000  Uiso   1.00
C192   C     0.51147   0.61189   0.27446   0.00000  Uiso   1.00
C193   C     0.43429   0.64109   0.21137   0.00000  Uiso   1.00
C194   C     0.63318   0.52288   0.55238   0.00000  Uiso   1.00
C195   C     0.65233   0.43977   0.56379   0.00000  Uiso   1.00
C196   C     0.64745   0.39872   0.68381   0.00000  Uiso   1.00
C197   C     0.64899   0.30456   0.85764   0.00000  Uiso   1.00
C198   C     0.59172   0.65437   0.62301   0.00000  Uiso   1.00
C199   C     0.63520   0.70532   0.57521   0.00000  Uiso   1.00
C200   C     0.65152   0.78362   0.62636   0.00000  Uiso   1.00
C201   C     0.69192   0.81987   0.56897   0.00000  Uiso   1.00
C202   C     0.55927   0.64298   0.50453   0.00000  Uiso   1.00
C203   C     0.51174   0.66885   0.49626   0.00000  Uiso   1.00
C204   C     0.48821   0.65261   0.37939   0.00000  Uiso   1.00
C205   C     0.60997   0.56353   0.65713   0.00000  Uiso   1.00
C206   C     0.60505   0.52259   0.77715   0.00000  Uiso   1.00
C207   C     0.62420   0.43945   0.78874   0.00000  Uiso   1.00
H208   H     0.65252   0.54787   0.34862   0.00000  Uiso   1.00
H209   H     0.71675   0.66933   0.33193   0.00000  Uiso   1.00
H210   H     0.57699   0.55457   0.20187   0.00000  Uiso   1.00
H211   H     0.67029   0.40833   0.48271   0.00000  Uiso   1.00
H212   H     0.77771   0.82193   0.35959   0.00000  Uiso   1.00
H213   H     0.48301   0.57993   0.08536   0.00000  Uiso   1.00
H214   H     0.67975   0.27155   0.67758   0.00000  Uiso   1.00
H215   H     0.57365   0.68603   0.70456   0.00000  Uiso   1.00
H216   H     0.63355   0.81507   0.70742   0.00000  Uiso   1.00
H217   H     0.49379   0.70031   0.57735   0.00000  Uiso   1.00
H218   H     0.58709   0.55407   0.85819   0.00000  Uiso   1.00
H219   H     0.71018   0.94022   0.66434   0.00000  Uiso   1.00
H220   H     0.41549   0.69821   0.39011   0.00000  Uiso   1.00
H221   H     0.61223   0.38984   0.98233   0.00000  Uiso   1.00
O222   O     0.78476   0.96349   0.50739   0.00000  Uiso   1.00
O223   O     0.39814   0.64597   0.14762   0.00000  Uiso   1.00
O224   O     0.65625   0.24140   0.92460   0.00000  Uiso   1.00
N225   N     0.75360   0.83205   0.43094   0.00000  Uiso   1.00
N226   N     0.47808   0.60581   0.17455   0.00000  Uiso   1.00
N227   N     0.66200   0.31749   0.72821   0.00000  Uiso   1.00
N228   N     0.71726   0.89570   0.59493   0.00000  Uiso   1.00
N229   N     0.44175   0.66946   0.33853   0.00000  Uiso   1.00
N230   N     0.62567   0.38114   0.89219   0.00000  Uiso   1.00
C231   C     0.12290   0.60055   0.18203   0.00000  Uiso   1.00
C232   C     0.14451   0.68946   0.21283   0.00000  Uiso   1.00
C233   C     0.18194   0.72871   0.14587   0.00000  Uiso   1.00
C234   C     0.19651   0.81023   0.18919   0.00000  Uiso   1.00
C235   C     0.23341   0.94211   0.22077   0.00000  Uiso   1.00
C236   C     0.06956   0.61616   0.16021   0.00000  Uiso   1.00
C237   C     0.04398   0.59375   0.04903   0.00000  Uiso   1.00
C238   C     0.99547   0.61356   0.04807   0.00000  Uiso   1.00
C239   C     0.91601   0.63157   0.99801   0.00000  Uiso   1.00
C240   C     0.12674   0.54742   0.30735   0.00000  Uiso   1.00
C241   C     0.14923   0.46720   0.31989   0.00000  Uiso   1.00
C242   C     0.14885   0.42912   0.44280   0.00000  Uiso   1.00
C243   C     0.15817   0.34041   0.62120   0.00000  Uiso   1.00
C244   C     0.08221   0.67554   0.37802   0.00000  Uiso   1.00
C245   C     0.12241   0.73019   0.31928   0.00000  Uiso   1.00
C246   C     0.13693   0.81168   0.36271   0.00000  Uiso   1.00
C247   C     0.17438   0.85103   0.29583   0.00000  Uiso   1.00
C248   C     0.04746   0.65689   0.26666   0.00000  Uiso   1.00
C249   C     0.99897   0.67672   0.26587   0.00000  Uiso   1.00
C250   C     0.97333   0.65436   0.15471   0.00000  Uiso   1.00
C251   C     0.10465   0.58815   0.41381   0.00000  Uiso   1.00
C252   C     0.10422   0.55018   0.53672   0.00000  Uiso   1.00
C253   C     0.12671   0.46993   0.54944   0.00000  Uiso   1.00
H254   H     0.14010   0.56884   0.09915   0.00000  Uiso   1.00
H255   H     0.19903   0.69717   0.06349   0.00000  Uiso   1.00
H256   H     0.06109   0.56223   0.96667   0.00000  Uiso   1.00
H257   H     0.16633   0.43570   0.23749   0.00000  Uiso   1.00
H258   H     0.25461   0.85742   0.07086   0.00000  Uiso   1.00
H259   H     0.96376   0.57287   0.86674   0.00000  Uiso   1.00
H260   H     0.18566   0.30606   0.43780   0.00000  Uiso   1.00
H261   H     0.06501   0.70725   0.46090   0.00000  Uiso   1.00
H262   H     0.11982   0.84318   0.44509   0.00000  Uiso   1.00
H263   H     0.98188   0.70824   0.34827   0.00000  Uiso   1.00
H264   H     0.08712   0.58172   0.61908   0.00000  Uiso   1.00
H265   H     0.19032   0.97594   0.38058   0.00000  Uiso   1.00
H266   H     0.89947   0.69137   0.17646   0.00000  Uiso   1.00
H267   H     0.12137   0.42457   0.74752   0.00000  Uiso   1.00
O268   O     0.25986   0.00361   0.20877   0.00000  Uiso   1.00
O269   O     0.87828   0.63027   0.94097   0.00000  Uiso   1.00
O270   O     0.16942   0.28023   0.69019   0.00000  Uiso   1.00
N271   N     0.23196   0.86665   0.14594   0.00000  Uiso   1.00
N272   N     0.96004   0.60062   0.95509   0.00000  Uiso   1.00
N273   N     0.16749   0.35117   0.48898   0.00000  Uiso   1.00
N274   N     0.19737   0.93042   0.31260   0.00000  Uiso   1.00
N275   N     0.92544   0.66439   0.12175   0.00000  Uiso   1.00
N276   N     0.13289   0.41494   0.65563   0.00000  Uiso   1.00
C277   C     0.36555   0.42048   0.43017   0.00000  Uiso   1.00
C278   C     0.34159   0.33533   0.47047   0.00000  Uiso   1.00
C279   C     0.30120   0.29919   0.41300   0.00000  Uiso   1.00
C280   C     0.28483   0.22086   0.46403   0.00000  Uiso   1.00
C281   C     0.24411   0.09481   0.51064   0.00000  Uiso   1.00
C282   C     0.41752   0.39767   0.39979   0.00000  Uiso   1.00
C283   C     0.44098   0.41396   0.28290   0.00000  Uiso   1.00
C284   C     0.48853   0.38811   0.27446   0.00000  Uiso   1.00
C285   C     0.56571   0.35891   0.21137   0.00000  Uiso   1.00
C286   C     0.36682   0.47712   0.55238   0.00000  Uiso   1.00
C287   C     0.34767   0.56023   0.56379   0.00000  Uiso   1.00
C288   C     0.35255   0.60128   0.68381   0.00000  Uiso   1.00
C289   C     0.35101   0.69544   0.85764   0.00000  Uiso   1.00
C290   C     0.40828   0.34563   0.62301   0.00000  Uiso   1.00
C291   C     0.36480   0.29468   0.57521   0.00000  Uiso   1.00
C292   C     0.34848   0.21638   0.62636   0.00000  Uiso   1.00
C293   C     0.30808   0.18013   0.56897   0.00000  Uiso   1.00
C294   C     0.44073   0.35702   0.50453   0.00000  Uiso   1.00
C295   C     0.48826   0.33115   0.49626   0.00000  Uiso   1.00
C296   C     0.51179   0.34739   0.37939   0.00000  Uiso   1.00
C297   C     0.39003   0.43647   0.65713   0.00000  Uiso   1.00
C298   C     0.39495   0.47741   0.77715   0.00000  Uiso   1.00
C299   C     0.37580   0.56055   0.78874   0.00000  Uiso   1.00
H300   H     0.34748   0.45213   0.34862   0.00000  Uiso   1.00
H301   H     0.28325   0.33067   0.33193   0.00000  Uiso   1.00
H302   H     0.42301   0.44543   0.20187   0.00000  Uiso   1.00
H303   H     0.32971   0.59167   0.48271   0.00000  Uiso   1.00
H304   H     0.22229   0.17807   0.35959   0.00000  Uiso   1.00
H305   H     0.51699   0.42007   0.08536   0.00000  Uiso   1.00
H306   H     0.32025   0.72845   0.67758   0.00000  Uiso   1.00
H307   H     0.42635   0.31397   0.70456   0.00000  Uiso   1.00
H308   H     0.36645   0.18493   0.70742   0.00000  Uiso   1.00
H309   H     0.50621   0.29969   0.57735   0.00000  Uiso   1.00
H310   H     0.41291   0.44593   0.85819   0.00000  Uiso   1.00
H311   H     0.28982   0.05978   0.66434   0.00000  Uiso   1.00
H312   H     0.58451   0.30179   0.39011   0.00000  Uiso   1.00
H313   H     0.38777   0.61016   0.98233   0.00000  Uiso   1.00
O314   O     0.21524   0.03651   0.50739   0.00000  Uiso   1.00
O315   O     0.60186   0.35403   0.14762   0.00000  Uiso   1.00
O316   O     0.34375   0.75860   0.92460   0.00000  Uiso   1.00
N317   N     0.24640   0.16795   0.43094   0.00000  Uiso   1.00
N318   N     0.52192   0.39419   0.17455   0.00000  Uiso   1.00
N319   N     0.33800   0.68251   0.72821   0.00000  Uiso   1.00
N320   N     0.28274   0.10430   0.59493   0.00000  Uiso   1.00
N321   N     0.55825   0.33054   0.33853   0.00000  Uiso   1.00
N322   N     0.37433   0.61886   0.89219   0.00000  Uiso   1.00
C323   C     0.87710   0.39945   0.18203   0.00000  Uiso   1.00
C324   C     0.85549   0.31054   0.21283   0.00000  Uiso   1.00
C325   C     0.81806   0.27129   0.14587   0.00000  Uiso   1.00
C326   C     0.80349   0.18977   0.18919   0.00000  Uiso   1.00
C327   C     0.76659   0.05789   0.22077   0.00000  Uiso   1.00
C328   C     0.93044   0.38384   0.16021   0.00000  Uiso   1.00
C329   C     0.95602   0.40625   0.04903   0.00000  Uiso   1.00
C330   C     0.00453   0.38644   0.04807   0.00000  Uiso   1.00
C331   C     0.08399   0.36843   0.99801   0.00000  Uiso   1.00
C332   C     0.87326   0.45258   0.30735   0.00000  Uiso   1.00
C333   C     0.85077   0.53280   0.31989   0.00000  Uiso   1.00
C334   C     0.85115   0.57088   0.44280   0.00000  Uiso   1.00
C335   C     0.84183   0.65959   0.62120   0.00000  Uiso   1.00
C336   C     0.91779   0.32446   0.37802   0.00000  Uiso   1.00
C337   C     0.87759   0.26981   0.31928   0.00000  Uiso   1.00
C338   C     0.86307   0.18832   0.36271   0.00000  Uiso   1.00
C339   C     0.82562   0.14897   0.29583   0.00000  Uiso   1.00
C340   C     0.95254   0.34311   0.26666   0.00000  Uiso   1.00
C341   C     0.00103   0.32328   0.26587   0.00000  Uiso   1.00
C342   C     0.02667   0.34564   0.15471   0.00000  Uiso   1.00
C343   C     0.89535   0.41185   0.41381   0.00000  Uiso   1.00
C344   C     0.89578   0.44982   0.53672   0.00000  Uiso   1.00
C345   C     0.87329   0.53007   0.54944   0.00000  Uiso   1.00
H346   H     0.85990   0.43116   0.09915   0.00000  Uiso   1.00
H347   H     0.80097   0.30283   0.06349   0.00000  Uiso   1.00
H348   H     0.93891   0.43777   0.96667   0.00000  Uiso   1.00
H349   H     0.83367   0.56430   0.23749   0.00000  Uiso   1.00
H350   H     0.74539   0.14258   0.07086   0.00000  Uiso   1.00
H351   H     0.03624   0.42713   0.86674   0.00000  Uiso   1.00
H352   H     0.81434   0.69394   0.43780   0.00000  Uiso   1.00
H353   H     0.93499   0.29275   0.46090   0.00000  Uiso   1.00
H354   H     0.88018   0.15682   0.44509   0.00000  Uiso   1.00
H355   H     0.01812   0.29176   0.34827   0.00000  Uiso   1.00
H356   H     0.91288   0.41828   0.61908   0.00000  Uiso   1.00
H357   H     0.80968   0.02406   0.38058   0.00000  Uiso   1.00
H358   H     0.10053   0.30863   0.17646   0.00000  Uiso   1.00
H359   H     0.87863   0.57543   0.74752   0.00000  Uiso   1.00
O360   O     0.74014   0.99639   0.20877   0.00000  Uiso   1.00
O361   O     0.12172   0.36973   0.94097   0.00000  Uiso   1.00
O362   O     0.83058   0.71977   0.69019   0.00000  Uiso   1.00
N363   N     0.76804   0.13335   0.14594   0.00000  Uiso   1.00
N364   N     0.03996   0.39938   0.95509   0.00000  Uiso   1.00
N365   N     0.83251   0.64883   0.48898   0.00000  Uiso   1.00
N366   N     0.80263   0.06958   0.31260   0.00000  Uiso   1.00
N367   N     0.07456   0.33561   0.12175   0.00000  Uiso   1.00
N368   N     0.86711   0.58506   0.65563   0.00000  Uiso   1.00
