data_job_06110
_audit_creation_date              2018-12-19
_audit_creation_method            'Materials Studio'
_symmetry_space_group_name_H-M    'P1'
_symmetry_Int_Tables_number       1
_symmetry_cell_setting            triclinic
loop_
_symmetry_equiv_pos_as_xyz
  x,y,z
_cell_length_a                    7.5556
_cell_length_b                    31.5952
_cell_length_c                    32.0914
_cell_angle_alpha                 119.2620
_cell_angle_beta                  83.3025
_cell_angle_gamma                 90.0223
loop_
_atom_site_label
_atom_site_type_symbol
_atom_site_fract_x
_atom_site_fract_y
_atom_site_fract_z
_atom_site_U_iso_or_equiv
_atom_site_adp_type
_atom_site_occupancy
C1     C     0.13545   0.51052   0.68915   0.00000  Uiso   1.00
C2     C     0.04178   0.53046   0.74049   0.00000  Uiso   1.00
C3     C     0.12543   0.54368   0.78102   0.00000  Uiso   1.00
C4     C     0.01613   0.56112   0.82473   0.00000  Uiso   1.00
C5     C     0.89902   0.59145   0.90398   0.00000  Uiso   1.00
C6     C     0.05722   0.46189   0.65901   0.00000  Uiso   1.00
C7     C     0.15385   0.41744   0.63103   0.00000  Uiso   1.00
C8     C     0.05754   0.37717   0.60615   0.00000  Uiso   1.00
C9     C     0.96440   0.30103   0.55888   0.00000  Uiso   1.00
C10    C     0.07239   0.54433   0.67176   0.00000  Uiso   1.00
C11    C     0.18177   0.56921   0.65449   0.00000  Uiso   1.00
C12    C     0.09823   0.59834   0.64033   0.00000  Uiso   1.00
C13    C     0.02865   0.65021   0.61285   0.00000  Uiso   1.00
C14    C     0.79260   0.51801   0.69470   0.00000  Uiso   1.00
C15    C     0.85556   0.53453   0.74350   0.00000  Uiso   1.00
C16    C     0.74611   0.55196   0.78716   0.00000  Uiso   1.00
C17    C     0.82958   0.56520   0.82775   0.00000  Uiso   1.00
C18    C     0.87100   0.46595   0.66203   0.00000  Uiso   1.00
C19    C     0.77453   0.42573   0.63718   0.00000  Uiso   1.00
C20    C     0.87098   0.38124   0.60917   0.00000  Uiso   1.00
C21    C     0.88617   0.54840   0.67478   0.00000  Uiso   1.00
C22    C     0.80245   0.57750   0.66064   0.00000  Uiso   1.00
C23    C     0.91168   0.60241   0.64335   0.00000  Uiso   1.00
H24    H     0.28042   0.50735   0.68680   0.00000  Uiso   1.00
H25    H     0.26954   0.54052   0.77866   0.00000  Uiso   1.00
H26    H     0.29795   0.41431   0.62870   0.00000  Uiso   1.00
H27    H     0.32587   0.56605   0.65216   0.00000  Uiso   1.00
H28    H     0.17535   0.57907   0.88185   0.00000  Uiso   1.00
H29    H     0.23527   0.31295   0.56562   0.00000  Uiso   1.00
H30    H     0.29413   0.63293   0.61508   0.00000  Uiso   1.00
H31    H     0.64762   0.52117   0.69705   0.00000  Uiso   1.00
H32    H     0.60201   0.55511   0.78949   0.00000  Uiso   1.00
H33    H     0.63043   0.42889   0.63952   0.00000  Uiso   1.00
H34    H     0.65834   0.58063   0.66298   0.00000  Uiso   1.00
H35    H     0.63355   0.59091   0.89063   0.00000  Uiso   1.00
H36    H     0.69348   0.32479   0.57440   0.00000  Uiso   1.00
H37    H     0.75234   0.64476   0.62387   0.00000  Uiso   1.00
O38    O     0.88586   0.60705   0.94685   0.00000  Uiso   1.00
O39    O     0.96448   0.25791   0.53198   0.00000  Uiso   1.00
O40    O     0.04171   0.67771   0.59687   0.00000  Uiso   1.00
N41    N     0.05410   0.57721   0.87123   0.00000  Uiso   1.00
N42    N     0.11012   0.32840   0.57559   0.00000  Uiso   1.00
N43    N     0.16515   0.62754   0.62182   0.00000  Uiso   1.00
N44    N     0.76256   0.58358   0.87595   0.00000  Uiso   1.00
N45    N     0.81858   0.33477   0.58031   0.00000  Uiso   1.00
N46    N     0.87362   0.63391   0.62654   0.00000  Uiso   1.00
C47    C     0.82268   0.31172   0.82031   0.00000  Uiso   1.00
C48    C     0.77633   0.25918   0.78997   0.00000  Uiso   1.00
C49    C     0.89808   0.21968   0.76171   0.00000  Uiso   1.00
C50    C     0.82893   0.17457   0.73668   0.00000  Uiso   1.00
C51    C     0.78500   0.09380   0.68907   0.00000  Uiso   1.00
C52    C     0.72293   0.34117   0.80329   0.00000  Uiso   1.00
C53    C     0.79978   0.37062   0.78623   0.00000  Uiso   1.00
C54    C     0.68566   0.39454   0.77242   0.00000  Uiso   1.00
C55    C     0.55880   0.44110   0.74553   0.00000  Uiso   1.00
C56    C     0.73625   0.32805   0.87165   0.00000  Uiso   1.00
C57    C     0.82429   0.34647   0.91206   0.00000  Uiso   1.00
C58    C     0.72138   0.35934   0.95580   0.00000  Uiso   1.00
C59    C     0.61521   0.38552   0.03504   0.00000  Uiso   1.00
C60    C     0.48337   0.30184   0.82613   0.00000  Uiso   1.00
C61    C     0.59203   0.25381   0.79313   0.00000  Uiso   1.00
C62    C     0.52267   0.20875   0.76815   0.00000  Uiso   1.00
C63    C     0.64430   0.16919   0.73985   0.00000  Uiso   1.00
C64    C     0.53863   0.33581   0.80645   0.00000  Uiso   1.00
C65    C     0.42437   0.35969   0.79267   0.00000  Uiso   1.00
C66    C     0.50103   0.38917   0.77558   0.00000  Uiso   1.00
C67    C     0.55195   0.32268   0.87481   0.00000  Uiso   1.00
C68    C     0.44888   0.33553   0.91850   0.00000  Uiso   1.00
C69    C     0.53675   0.35397   0.95897   0.00000  Uiso   1.00
H70    H     0.96616   0.31590   0.81785   0.00000  Uiso   1.00
H71    H     0.04070   0.22385   0.75926   0.00000  Uiso   1.00
H72    H     0.94240   0.37477   0.78379   0.00000  Uiso   1.00
H73    H     0.96691   0.35062   0.90960   0.00000  Uiso   1.00
H74    H     0.04206   0.11943   0.69570   0.00000  Uiso   1.00
H75    H     0.83479   0.43767   0.74742   0.00000  Uiso   1.00
H76    H     0.88647   0.38673   0.01272   0.00000  Uiso   1.00
H77    H     0.33988   0.29767   0.82859   0.00000  Uiso   1.00
H78    H     0.38005   0.20461   0.77060   0.00000  Uiso   1.00
H79    H     0.28176   0.35553   0.79512   0.00000  Uiso   1.00
H80    H     0.30627   0.33138   0.92093   0.00000  Uiso   1.00
H81    H     0.50585   0.10381   0.70489   0.00000  Uiso   1.00
H82    H     0.29859   0.42206   0.75662   0.00000  Uiso   1.00
H83    H     0.35027   0.37112   0.02192   0.00000  Uiso   1.00
O84    O     0.81168   0.05073   0.66194   0.00000  Uiso   1.00
O85    O     0.53975   0.46827   0.72981   0.00000  Uiso   1.00
O86    O     0.60756   0.40143   0.07787   0.00000  Uiso   1.00
N87    N     0.91035   0.12852   0.70583   0.00000  Uiso   1.00
N88    N     0.71657   0.42605   0.75418   0.00000  Uiso   1.00
N89    N     0.76489   0.37844   0.00221   0.00000  Uiso   1.00
N90    N     0.62182   0.12012   0.71078   0.00000  Uiso   1.00
N91    N     0.42805   0.41765   0.75913   0.00000  Uiso   1.00
N92    N     0.47636   0.37004   0.00716   0.00000  Uiso   1.00
C93    C     0.64352   0.18076   0.49060   0.00000  Uiso   1.00
C94    C     0.57621   0.21084   0.46955   0.00000  Uiso   1.00
C95    C     0.67707   0.24085   0.45735   0.00000  Uiso   1.00
C96    C     0.59087   0.26529   0.43862   0.00000  Uiso   1.00
C97    C     0.51380   0.31283   0.40692   0.00000  Uiso   1.00
C98    C     0.52147   0.19629   0.53769   0.00000  Uiso   1.00
C99    C     0.57631   0.21406   0.58278   0.00000  Uiso   1.00
C100   C     0.44403   0.22625   0.62140   0.00000  Uiso   1.00
C101   C     0.28199   0.25116   0.69548   0.00000  Uiso   1.00
C102   C     0.60506   0.12834   0.45661   0.00000  Uiso   1.00
C103   C     0.73018   0.08897   0.43354   0.00000  Uiso   1.00
C104   C     0.66827   0.04394   0.40390   0.00000  Uiso   1.00
C105   C     0.63602   0.96335   0.35209   0.00000  Uiso   1.00
C106   C     0.31108   0.17079   0.47901   0.00000  Uiso   1.00
C107   C     0.39563   0.20542   0.46326   0.00000  Uiso   1.00
C108   C     0.30926   0.22982   0.44453   0.00000  Uiso   1.00
C109   C     0.40998   0.25986   0.43231   0.00000  Uiso   1.00
C110   C     0.34090   0.19087   0.53139   0.00000  Uiso   1.00
C111   C     0.20851   0.20303   0.56996   0.00000  Uiso   1.00
C112   C     0.26314   0.22082   0.61509   0.00000  Uiso   1.00
C113   C     0.42449   0.12292   0.45031   0.00000  Uiso   1.00
C114   C     0.36238   0.07794   0.42071   0.00000  Uiso   1.00
C115   C     0.48738   0.03851   0.39759   0.00000  Uiso   1.00
H116   H     0.78409   0.18498   0.49550   0.00000  Uiso   1.00
H117   H     0.81680   0.24504   0.46224   0.00000  Uiso   1.00
H118   H     0.71606   0.21825   0.58764   0.00000  Uiso   1.00
H119   H     0.86990   0.09318   0.43842   0.00000  Uiso   1.00
H120   H     0.77341   0.30925   0.42260   0.00000  Uiso   1.00
H121   H     0.56101   0.25274   0.68701   0.00000  Uiso   1.00
H122   H     0.88541   0.98900   0.37235   0.00000  Uiso   1.00
H123   H     0.17049   0.16657   0.47410   0.00000  Uiso   1.00
H124   H     0.16953   0.22562   0.43966   0.00000  Uiso   1.00
H125   H     0.06879   0.19883   0.56507   0.00000  Uiso   1.00
H126   H     0.22263   0.07376   0.41584   0.00000  Uiso   1.00
H127   H     0.24806   0.29349   0.40428   0.00000  Uiso   1.00
H128   H     0.03566   0.23698   0.66870   0.00000  Uiso   1.00
H129   H     0.36006   0.97324   0.35403   0.00000  Uiso   1.00
O130   O     0.52116   0.34055   0.39118   0.00000  Uiso   1.00
O131   O     0.24250   0.26641   0.73809   0.00000  Uiso   1.00
O132   O     0.66811   0.92040   0.32525   0.00000  Uiso   1.00
N133   N     0.64991   0.29743   0.42300   0.00000  Uiso   1.00
N134   N     0.45132   0.24460   0.67022   0.00000  Uiso   1.00
N135   N     0.75461   0.99803   0.37604   0.00000  Uiso   1.00
N136   N     0.36723   0.28894   0.41314   0.00000  Uiso   1.00
N137   N     0.16864   0.23612   0.66036   0.00000  Uiso   1.00
N138   N     0.47192   0.98955   0.36619   0.00000  Uiso   1.00
C139   C     0.86455   0.48948   0.31085   0.00000  Uiso   1.00
C140   C     0.95822   0.46954   0.25951   0.00000  Uiso   1.00
C141   C     0.87457   0.45632   0.21898   0.00000  Uiso   1.00
C142   C     0.98387   0.43888   0.17527   0.00000  Uiso   1.00
C143   C     0.10098   0.40855   0.09602   0.00000  Uiso   1.00
C144   C     0.94278   0.53811   0.34099   0.00000  Uiso   1.00
C145   C     0.84615   0.58256   0.36897   0.00000  Uiso   1.00
C146   C     0.94246   0.62283   0.39385   0.00000  Uiso   1.00
C147   C     0.03560   0.69897   0.44112   0.00000  Uiso   1.00
C148   C     0.92761   0.45567   0.32824   0.00000  Uiso   1.00
C149   C     0.81823   0.43079   0.34551   0.00000  Uiso   1.00
C150   C     0.90177   0.40166   0.35967   0.00000  Uiso   1.00
C151   C     0.97135   0.34979   0.38715   0.00000  Uiso   1.00
C152   C     0.20740   0.48199   0.30530   0.00000  Uiso   1.00
C153   C     0.14444   0.46547   0.25650   0.00000  Uiso   1.00
C154   C     0.25389   0.44804   0.21284   0.00000  Uiso   1.00
C155   C     0.17042   0.43480   0.17225   0.00000  Uiso   1.00
C156   C     0.12900   0.53405   0.33797   0.00000  Uiso   1.00
C157   C     0.22547   0.57427   0.36282   0.00000  Uiso   1.00
C158   C     0.12902   0.61876   0.39083   0.00000  Uiso   1.00
C159   C     0.11383   0.45160   0.32522   0.00000  Uiso   1.00
C160   C     0.19755   0.42250   0.33936   0.00000  Uiso   1.00
C161   C     0.08832   0.39759   0.35665   0.00000  Uiso   1.00
H162   H     0.71958   0.49265   0.31320   0.00000  Uiso   1.00
H163   H     0.73046   0.45948   0.22134   0.00000  Uiso   1.00
H164   H     0.70205   0.58569   0.37130   0.00000  Uiso   1.00
H165   H     0.67413   0.43395   0.34784   0.00000  Uiso   1.00
H166   H     0.82465   0.42093   0.11815   0.00000  Uiso   1.00
H167   H     0.76473   0.68705   0.43438   0.00000  Uiso   1.00
H168   H     0.70587   0.36707   0.38492   0.00000  Uiso   1.00
H169   H     0.35238   0.47883   0.30295   0.00000  Uiso   1.00
H170   H     0.39799   0.44489   0.21051   0.00000  Uiso   1.00
H171   H     0.36957   0.57111   0.36048   0.00000  Uiso   1.00
H172   H     0.34166   0.41937   0.33702   0.00000  Uiso   1.00
H173   H     0.36645   0.40909   0.10937   0.00000  Uiso   1.00
H174   H     0.30652   0.67521   0.42560   0.00000  Uiso   1.00
H175   H     0.24766   0.35523   0.37613   0.00000  Uiso   1.00
O176   O     0.11414   0.39295   0.05315   0.00000  Uiso   1.00
O177   O     0.03552   0.74209   0.46802   0.00000  Uiso   1.00
O178   O     0.95829   0.32229   0.40313   0.00000  Uiso   1.00
N179   N     0.94590   0.42279   0.12877   0.00000  Uiso   1.00
N180   N     0.88988   0.67160   0.42441   0.00000  Uiso   1.00
N181   N     0.83485   0.37246   0.37818   0.00000  Uiso   1.00
N182   N     0.23744   0.41642   0.12405   0.00000  Uiso   1.00
N183   N     0.18142   0.66523   0.41969   0.00000  Uiso   1.00
N184   N     0.12638   0.36609   0.37346   0.00000  Uiso   1.00
C185   C     0.17732   0.68828   0.17969   0.00000  Uiso   1.00
C186   C     0.22367   0.74082   0.21003   0.00000  Uiso   1.00
C187   C     0.10192   0.78032   0.23829   0.00000  Uiso   1.00
C188   C     0.17107   0.82543   0.26332   0.00000  Uiso   1.00
C189   C     0.21500   0.90620   0.31093   0.00000  Uiso   1.00
C190   C     0.27707   0.65883   0.19671   0.00000  Uiso   1.00
C191   C     0.20022   0.62938   0.21377   0.00000  Uiso   1.00
C192   C     0.31434   0.60546   0.22758   0.00000  Uiso   1.00
C193   C     0.44120   0.55890   0.25447   0.00000  Uiso   1.00
C194   C     0.26375   0.67195   0.12836   0.00000  Uiso   1.00
C195   C     0.17571   0.65353   0.08794   0.00000  Uiso   1.00
C196   C     0.27862   0.64066   0.04420   0.00000  Uiso   1.00
C197   C     0.38479   0.61448   0.96496   0.00000  Uiso   1.00
C198   C     0.51663   0.69816   0.17387   0.00000  Uiso   1.00
C199   C     0.40797   0.74619   0.20687   0.00000  Uiso   1.00
C200   C     0.47732   0.79125   0.23185   0.00000  Uiso   1.00
C201   C     0.35570   0.83081   0.26015   0.00000  Uiso   1.00
C202   C     0.46137   0.66419   0.19355   0.00000  Uiso   1.00
C203   C     0.57563   0.64031   0.20733   0.00000  Uiso   1.00
C204   C     0.49897   0.61083   0.22442   0.00000  Uiso   1.00
C205   C     0.44805   0.67732   0.12519   0.00000  Uiso   1.00
C206   C     0.55112   0.66447   0.08150   0.00000  Uiso   1.00
C207   C     0.46325   0.64603   0.04103   0.00000  Uiso   1.00
H208   H     0.03384   0.68410   0.18215   0.00000  Uiso   1.00
H209   H     0.95930   0.77615   0.24074   0.00000  Uiso   1.00
H210   H     0.05760   0.62523   0.21621   0.00000  Uiso   1.00
H211   H     0.03309   0.64938   0.09040   0.00000  Uiso   1.00
H212   H     0.95794   0.88057   0.30430   0.00000  Uiso   1.00
H213   H     0.16521   0.56233   0.25258   0.00000  Uiso   1.00
H214   H     0.11353   0.61327   0.98728   0.00000  Uiso   1.00
H215   H     0.66012   0.70233   0.17141   0.00000  Uiso   1.00
H216   H     0.61995   0.79539   0.22940   0.00000  Uiso   1.00
H217   H     0.71824   0.64447   0.20488   0.00000  Uiso   1.00
H218   H     0.69373   0.66862   0.07907   0.00000  Uiso   1.00
H219   H     0.49415   0.89619   0.29511   0.00000  Uiso   1.00
H220   H     0.70141   0.57794   0.24338   0.00000  Uiso   1.00
H221   H     0.64973   0.62888   0.97808   0.00000  Uiso   1.00
O222   O     0.18832   0.94927   0.33806   0.00000  Uiso   1.00
O223   O     0.46025   0.53173   0.27019   0.00000  Uiso   1.00
O224   O     0.39244   0.59857   0.92213   0.00000  Uiso   1.00
N225   N     0.08965   0.87148   0.29417   0.00000  Uiso   1.00
N226   N     0.28343   0.57395   0.24582   0.00000  Uiso   1.00
N227   N     0.23511   0.62156   0.99779   0.00000  Uiso   1.00
N228   N     0.37818   0.87988   0.28922   0.00000  Uiso   1.00
N229   N     0.57195   0.58235   0.24087   0.00000  Uiso   1.00
N230   N     0.52364   0.62996   0.99284   0.00000  Uiso   1.00
C231   C     0.35648   0.81924   0.50940   0.00000  Uiso   1.00
C232   C     0.42379   0.78916   0.53045   0.00000  Uiso   1.00
C233   C     0.32293   0.75915   0.54265   0.00000  Uiso   1.00
C234   C     0.40913   0.73471   0.56138   0.00000  Uiso   1.00
C235   C     0.48620   0.68717   0.59308   0.00000  Uiso   1.00
C236   C     0.47853   0.80371   0.46231   0.00000  Uiso   1.00
C237   C     0.42369   0.78594   0.41722   0.00000  Uiso   1.00
C238   C     0.55597   0.77375   0.37860   0.00000  Uiso   1.00
C239   C     0.71801   0.74884   0.30452   0.00000  Uiso   1.00
C240   C     0.39494   0.87167   0.54339   0.00000  Uiso   1.00
C241   C     0.26982   0.91103   0.56646   0.00000  Uiso   1.00
C242   C     0.33173   0.95606   0.59610   0.00000  Uiso   1.00
C243   C     0.36398   0.03665   0.64791   0.00000  Uiso   1.00
C244   C     0.68892   0.82921   0.52100   0.00000  Uiso   1.00
C245   C     0.60436   0.79458   0.53674   0.00000  Uiso   1.00
C246   C     0.69074   0.77018   0.55547   0.00000  Uiso   1.00
C247   C     0.59002   0.74014   0.56769   0.00000  Uiso   1.00
C248   C     0.65910   0.80913   0.46861   0.00000  Uiso   1.00
C249   C     0.79149   0.79697   0.43004   0.00000  Uiso   1.00
C250   C     0.73686   0.77918   0.38491   0.00000  Uiso   1.00
C251   C     0.57551   0.87708   0.54969   0.00000  Uiso   1.00
C252   C     0.63762   0.92206   0.57929   0.00000  Uiso   1.00
C253   C     0.51262   0.96149   0.60241   0.00000  Uiso   1.00
H254   H     0.21591   0.81502   0.50450   0.00000  Uiso   1.00
H255   H     0.18320   0.75496   0.53776   0.00000  Uiso   1.00
H256   H     0.28394   0.78175   0.41236   0.00000  Uiso   1.00
H257   H     0.13010   0.90682   0.56158   0.00000  Uiso   1.00
H258   H     0.22659   0.69075   0.57740   0.00000  Uiso   1.00
H259   H     0.43899   0.74726   0.31299   0.00000  Uiso   1.00
H260   H     0.11459   0.01100   0.62765   0.00000  Uiso   1.00
H261   H     0.82951   0.83343   0.52590   0.00000  Uiso   1.00
H262   H     0.83047   0.77438   0.56034   0.00000  Uiso   1.00
H263   H     0.93121   0.80117   0.43493   0.00000  Uiso   1.00
H264   H     0.77737   0.92624   0.58416   0.00000  Uiso   1.00
H265   H     0.75194   0.70651   0.59572   0.00000  Uiso   1.00
H266   H     0.96434   0.76302   0.33130   0.00000  Uiso   1.00
H267   H     0.63994   0.02676   0.64597   0.00000  Uiso   1.00
O268   O     0.47884   0.65944   0.60882   0.00000  Uiso   1.00
O269   O     0.75750   0.73359   0.26191   0.00000  Uiso   1.00
O270   O     0.33189   0.07960   0.67475   0.00000  Uiso   1.00
N271   N     0.35009   0.70257   0.57700   0.00000  Uiso   1.00
N272   N     0.54868   0.75540   0.32978   0.00000  Uiso   1.00
N273   N     0.24539   0.00197   0.62396   0.00000  Uiso   1.00
N274   N     0.63277   0.71106   0.58686   0.00000  Uiso   1.00
N275   N     0.83136   0.76388   0.33964   0.00000  Uiso   1.00
N276   N     0.52808   0.01045   0.63381   0.00000  Uiso   1.00
