data_job_04518
_audit_creation_date              2018-12-19
_audit_creation_method            'Materials Studio'
_symmetry_space_group_name_H-M    'P1'
_symmetry_Int_Tables_number       1
_symmetry_cell_setting            triclinic
loop_
_symmetry_equiv_pos_as_xyz
  x,y,z
_cell_length_a                    11.5045
_cell_length_b                    23.4724
_cell_length_c                    11.8099
_cell_angle_alpha                 90.0000
_cell_angle_beta                  65.3284
_cell_angle_gamma                 90.0000
loop_
_atom_site_label
_atom_site_type_symbol
_atom_site_fract_x
_atom_site_fract_y
_atom_site_fract_z
_atom_site_U_iso_or_equiv
_atom_site_adp_type
_atom_site_occupancy
C1     C     0.78319   0.92949   0.22917   0.00000  Uiso   1.00
C2     C     0.91201   0.90236   0.14920   0.00000  Uiso   1.00
C3     C     0.03013   0.92093   0.14009   0.00000  Uiso   1.00
C4     C     0.13675   0.89034   0.06185   0.00000  Uiso   1.00
C5     C     0.33850   0.85545   0.94777   0.00000  Uiso   1.00
C6     C     0.72192   0.94399   0.14050   0.00000  Uiso   1.00
C7     C     0.68020   0.99755   0.12408   0.00000  Uiso   1.00
C8     C     0.62679   0.00200   0.03852   0.00000  Uiso   1.00
C9     C     0.53334   0.03172   0.91100   0.00000  Uiso   1.00
C10    C     0.70145   0.88228   0.31369   0.00000  Uiso   1.00
C11    C     0.64247   0.88396   0.44290   0.00000  Uiso   1.00
C12    C     0.57179   0.83646   0.50317   0.00000  Uiso   1.00
C13    C     0.44654   0.77037   0.64456   0.00000  Uiso   1.00
C14    C     0.76249   0.84216   0.10644   0.00000  Uiso   1.00
C15    C     0.90077   0.85493   0.08254   0.00000  Uiso   1.00
C16    C     0.00723   0.82430   0.00430   0.00000  Uiso   1.00
C17    C     0.12549   0.84282   0.99507   0.00000  Uiso   1.00
C18    C     0.71068   0.89656   0.07384   0.00000  Uiso   1.00
C19    C     0.65731   0.90093   0.98829   0.00000  Uiso   1.00
C20    C     0.61553   0.95448   0.97174   0.00000  Uiso   1.00
C21    C     0.69020   0.83485   0.24704   0.00000  Uiso   1.00
C22    C     0.61958   0.78733   0.30712   0.00000  Uiso   1.00
C23    C     0.56052   0.78894   0.43639   0.00000  Uiso   1.00
H24    H     0.79194   0.96643   0.28106   0.00000  Uiso   1.00
H25    H     0.03879   0.95764   0.19168   0.00000  Uiso   1.00
H26    H     0.68891   0.03425   0.17568   0.00000  Uiso   1.00
H27    H     0.65119   0.92068   0.49445   0.00000  Uiso   1.00
H28    H     0.30753   0.92700   0.06315   0.00000  Uiso   1.00
H29    H     0.56974   0.08852   0.02945   0.00000  Uiso   1.00
H30    H     0.49020   0.84903   0.70165   0.00000  Uiso   1.00
H31    H     0.75373   0.80523   0.05454   0.00000  Uiso   1.00
H32    H     0.99850   0.78760   0.95273   0.00000  Uiso   1.00
H33    H     0.64862   0.86421   0.93673   0.00000  Uiso   1.00
H34    H     0.61090   0.75063   0.25550   0.00000  Uiso   1.00
H35    H     0.27483   0.78898   0.86920   0.00000  Uiso   1.00
H36    H     0.53703   0.95051   0.83551   0.00000  Uiso   1.00
H37    H     0.45750   0.71102   0.50770   0.00000  Uiso   1.00
O38    O     0.45288   0.84931   0.90325   0.00000  Uiso   1.00
O39    O     0.48491   0.06123   0.85906   0.00000  Uiso   1.00
O40    O     0.38057   0.74702   0.74097   0.00000  Uiso   1.00
N41    N     0.26624   0.89693   0.03150   0.00000  Uiso   1.00
N42    N     0.57646   0.04795   0.99997   0.00000  Uiso   1.00
N43    N     0.50208   0.82405   0.62842   0.00000  Uiso   1.00
N44    N     0.24864   0.82266   0.92714   0.00000  Uiso   1.00
N45    N     0.55887   0.97369   0.89562   0.00000  Uiso   1.00
N46    N     0.48448   0.74979   0.52406   0.00000  Uiso   1.00
C47    C     0.15373   0.06943   0.36289   0.00000  Uiso   1.00
C48    C     0.02505   0.09663   0.44301   0.00000  Uiso   1.00
C49    C     0.90678   0.07812   0.45245   0.00000  Uiso   1.00
C50    C     0.80033   0.10878   0.53078   0.00000  Uiso   1.00
C51    C     0.59876   0.14379   0.64512   0.00000  Uiso   1.00
C52    C     0.21524   0.05494   0.45137   0.00000  Uiso   1.00
C53    C     0.25691   0.00138   0.46781   0.00000  Uiso   1.00
C54    C     0.31058   0.99694   0.55317   0.00000  Uiso   1.00
C55    C     0.40437   0.96723   0.68042   0.00000  Uiso   1.00
C56    C     0.23547   0.11657   0.27813   0.00000  Uiso   1.00
C57    C     0.29418   0.11482   0.14892   0.00000  Uiso   1.00
C58    C     0.36491   0.16228   0.08842   0.00000  Uiso   1.00
C59    C     0.49011   0.22826   0.94669   0.00000  Uiso   1.00
C60    C     0.17499   0.15680   0.48521   0.00000  Uiso   1.00
C61    C     0.03660   0.14409   0.50945   0.00000  Uiso   1.00
C62    C     0.93030   0.17479   0.58778   0.00000  Uiso   1.00
C63    C     0.81190   0.15632   0.59733   0.00000  Uiso   1.00
C64    C     0.22679   0.10240   0.51780   0.00000  Uiso   1.00
C65    C     0.28042   0.09805   0.60314   0.00000  Uiso   1.00
C66    C     0.32215   0.04449   0.61972   0.00000  Uiso   1.00
C67    C     0.24702   0.16403   0.34457   0.00000  Uiso   1.00
C68    C     0.31769   0.21150   0.28425   0.00000  Uiso   1.00
C69    C     0.37648   0.20982   0.15498   0.00000  Uiso   1.00
H70    H     0.14475   0.03248   0.31117   0.00000  Uiso   1.00
H71    H     0.89789   0.04139   0.40103   0.00000  Uiso   1.00
H72    H     0.24797   0.96466   0.41638   0.00000  Uiso   1.00
H73    H     0.28522   0.07809   0.09754   0.00000  Uiso   1.00
H74    H     0.62929   0.07218   0.52998   0.00000  Uiso   1.00
H75    H     0.36748   0.91040   0.56233   0.00000  Uiso   1.00
H76    H     0.44605   0.14959   0.88998   0.00000  Uiso   1.00
H77    H     0.18398   0.19375   0.53694   0.00000  Uiso   1.00
H78    H     0.93927   0.21151   0.63918   0.00000  Uiso   1.00
H79    H     0.28935   0.13478   0.65454   0.00000  Uiso   1.00
H80    H     0.32660   0.24821   0.33570   0.00000  Uiso   1.00
H81    H     0.66287   0.21026   0.72328   0.00000  Uiso   1.00
H82    H     0.40108   0.04848   0.75562   0.00000  Uiso   1.00
H83    H     0.47963   0.28767   0.08328   0.00000  Uiso   1.00
O84    O     0.48439   0.14998   0.68985   0.00000  Uiso   1.00
O85    O     0.45290   0.93773   0.73226   0.00000  Uiso   1.00
O86    O     0.55596   0.25155   0.85017   0.00000  Uiso   1.00
N87    N     0.67077   0.10225   0.56142   0.00000  Uiso   1.00
N88    N     0.36093   0.95099   0.59168   0.00000  Uiso   1.00
N89    N     0.43441   0.17461   0.96310   0.00000  Uiso   1.00
N90    N     0.68885   0.17655   0.66544   0.00000  Uiso   1.00
N91    N     0.37900   0.02529   0.69569   0.00000  Uiso   1.00
N92    N     0.45248   0.24891   0.06711   0.00000  Uiso   1.00
C93    C     0.21681   0.42949   0.77083   0.00000  Uiso   1.00
C94    C     0.08799   0.40236   0.85080   0.00000  Uiso   1.00
C95    C     0.96987   0.42093   0.85991   0.00000  Uiso   1.00
C96    C     0.86325   0.39034   0.93815   0.00000  Uiso   1.00
C97    C     0.66150   0.35545   0.05223   0.00000  Uiso   1.00
C98    C     0.27808   0.44399   0.85950   0.00000  Uiso   1.00
C99    C     0.31980   0.49755   0.87592   0.00000  Uiso   1.00
C100   C     0.37321   0.50200   0.96148   0.00000  Uiso   1.00
C101   C     0.46666   0.53172   0.08900   0.00000  Uiso   1.00
C102   C     0.29855   0.38228   0.68631   0.00000  Uiso   1.00
C103   C     0.35753   0.38396   0.55710   0.00000  Uiso   1.00
C104   C     0.42821   0.33646   0.49683   0.00000  Uiso   1.00
C105   C     0.55346   0.27037   0.35544   0.00000  Uiso   1.00
C106   C     0.23751   0.34216   0.89356   0.00000  Uiso   1.00
C107   C     0.09923   0.35493   0.91746   0.00000  Uiso   1.00
C108   C     0.99277   0.32430   0.99570   0.00000  Uiso   1.00
C109   C     0.87451   0.34282   0.00493   0.00000  Uiso   1.00
C110   C     0.28932   0.39656   0.92616   0.00000  Uiso   1.00
C111   C     0.34269   0.40093   0.01171   0.00000  Uiso   1.00
C112   C     0.38447   0.45448   0.02826   0.00000  Uiso   1.00
C113   C     0.30980   0.33485   0.75296   0.00000  Uiso   1.00
C114   C     0.38042   0.28733   0.69288   0.00000  Uiso   1.00
C115   C     0.43948   0.28894   0.56361   0.00000  Uiso   1.00
H116   H     0.20806   0.46643   0.71894   0.00000  Uiso   1.00
H117   H     0.96121   0.45764   0.80832   0.00000  Uiso   1.00
H118   H     0.31109   0.53425   0.82432   0.00000  Uiso   1.00
H119   H     0.34881   0.42068   0.50555   0.00000  Uiso   1.00
H120   H     0.69247   0.42700   0.93685   0.00000  Uiso   1.00
H121   H     0.43026   0.58852   0.97055   0.00000  Uiso   1.00
H122   H     0.50980   0.34903   0.29835   0.00000  Uiso   1.00
H123   H     0.24627   0.30523   0.94546   0.00000  Uiso   1.00
H124   H     0.00150   0.28760   0.04727   0.00000  Uiso   1.00
H125   H     0.35138   0.36421   0.06327   0.00000  Uiso   1.00
H126   H     0.38910   0.25063   0.74450   0.00000  Uiso   1.00
H127   H     0.72517   0.28898   0.13080   0.00000  Uiso   1.00
H128   H     0.46297   0.45051   0.16449   0.00000  Uiso   1.00
H129   H     0.54250   0.21102   0.49230   0.00000  Uiso   1.00
O130   O     0.54712   0.34931   0.09675   0.00000  Uiso   1.00
O131   O     0.51509   0.56123   0.14094   0.00000  Uiso   1.00
O132   O     0.61943   0.24702   0.25903   0.00000  Uiso   1.00
N133   N     0.73376   0.39693   0.96850   0.00000  Uiso   1.00
N134   N     0.42354   0.54795   0.00003   0.00000  Uiso   1.00
N135   N     0.49792   0.32405   0.37158   0.00000  Uiso   1.00
N136   N     0.75136   0.32266   0.07286   0.00000  Uiso   1.00
N137   N     0.44113   0.47369   0.10438   0.00000  Uiso   1.00
N138   N     0.51552   0.24979   0.47594   0.00000  Uiso   1.00
C139   C     0.84627   0.56943   0.63711   0.00000  Uiso   1.00
C140   C     0.97495   0.59663   0.55699   0.00000  Uiso   1.00
C141   C     0.09322   0.57812   0.54755   0.00000  Uiso   1.00
C142   C     0.19967   0.60878   0.46922   0.00000  Uiso   1.00
C143   C     0.40124   0.64379   0.35488   0.00000  Uiso   1.00
C144   C     0.78476   0.55494   0.54863   0.00000  Uiso   1.00
C145   C     0.74309   0.50138   0.53219   0.00000  Uiso   1.00
C146   C     0.68942   0.49694   0.44683   0.00000  Uiso   1.00
C147   C     0.59563   0.46723   0.31958   0.00000  Uiso   1.00
C148   C     0.76453   0.61657   0.72187   0.00000  Uiso   1.00
C149   C     0.70582   0.61482   0.85108   0.00000  Uiso   1.00
C150   C     0.63509   0.66228   0.91158   0.00000  Uiso   1.00
C151   C     0.50989   0.72826   0.05331   0.00000  Uiso   1.00
C152   C     0.82501   0.65680   0.51479   0.00000  Uiso   1.00
C153   C     0.96340   0.64409   0.49055   0.00000  Uiso   1.00
C154   C     0.06970   0.67479   0.41222   0.00000  Uiso   1.00
C155   C     0.18810   0.65632   0.40267   0.00000  Uiso   1.00
C156   C     0.77321   0.60240   0.48220   0.00000  Uiso   1.00
C157   C     0.71958   0.59805   0.39686   0.00000  Uiso   1.00
C158   C     0.67785   0.54449   0.38028   0.00000  Uiso   1.00
C159   C     0.75298   0.66403   0.65543   0.00000  Uiso   1.00
C160   C     0.68231   0.71150   0.71575   0.00000  Uiso   1.00
C161   C     0.62352   0.70982   0.84502   0.00000  Uiso   1.00
H162   H     0.85525   0.53248   0.68883   0.00000  Uiso   1.00
H163   H     0.10211   0.54139   0.59897   0.00000  Uiso   1.00
H164   H     0.75203   0.46466   0.58362   0.00000  Uiso   1.00
H165   H     0.71478   0.57809   0.90246   0.00000  Uiso   1.00
H166   H     0.37071   0.57218   0.47002   0.00000  Uiso   1.00
H167   H     0.63252   0.41040   0.43767   0.00000  Uiso   1.00
H168   H     0.55395   0.64959   0.11002   0.00000  Uiso   1.00
H169   H     0.81602   0.69375   0.46306   0.00000  Uiso   1.00
H170   H     0.06073   0.71151   0.36082   0.00000  Uiso   1.00
H171   H     0.71065   0.63478   0.34546   0.00000  Uiso   1.00
H172   H     0.67340   0.74821   0.66430   0.00000  Uiso   1.00
H173   H     0.33713   0.71026   0.27672   0.00000  Uiso   1.00
H174   H     0.59892   0.54848   0.24438   0.00000  Uiso   1.00
H175   H     0.52037   0.78767   0.91672   0.00000  Uiso   1.00
O176   O     0.51561   0.64998   0.31015   0.00000  Uiso   1.00
O177   O     0.54710   0.43773   0.26774   0.00000  Uiso   1.00
O178   O     0.44404   0.75155   0.14983   0.00000  Uiso   1.00
N179   N     0.32923   0.60225   0.43858   0.00000  Uiso   1.00
N180   N     0.63907   0.45099   0.40832   0.00000  Uiso   1.00
N181   N     0.56559   0.67461   0.03690   0.00000  Uiso   1.00
N182   N     0.31115   0.67655   0.33456   0.00000  Uiso   1.00
N183   N     0.62100   0.52529   0.30431   0.00000  Uiso   1.00
N184   N     0.54752   0.74891   0.93289   0.00000  Uiso   1.00
