data_job_06737
_audit_creation_date              2018-12-19
_audit_creation_method            'Materials Studio'
_symmetry_space_group_name_H-M    'P1'
_symmetry_Int_Tables_number       1
_symmetry_cell_setting            triclinic
loop_
_symmetry_equiv_pos_as_xyz
  x,y,z
_cell_length_a                    16.7364
_cell_length_b                    17.0407
_cell_length_c                    29.7607
_cell_angle_alpha                 101.7243
_cell_angle_beta                  90.4169
_cell_angle_gamma                 69.7442
loop_
_atom_site_label
_atom_site_type_symbol
_atom_site_fract_x
_atom_site_fract_y
_atom_site_fract_z
_atom_site_U_iso_or_equiv
_atom_site_adp_type
_atom_site_occupancy
C1     C     0.59155   0.98734   0.97177   0.00000  Uiso   1.00
C2     C     0.53891   0.93034   0.95705   0.00000  Uiso   1.00
C3     C     0.50521   0.89319   0.98581   0.00000  Uiso   1.00
C4     C     0.45893   0.84317   0.96571   0.00000  Uiso   1.00
C5     C     0.37908   0.75650   0.95002   0.00000  Uiso   1.00
C6     C     0.67536   0.94514   0.94211   0.00000  Uiso   1.00
C7     C     0.75638   0.92044   0.95831   0.00000  Uiso   1.00
C8     C     0.82496   0.88289   0.92562   0.00000  Uiso   1.00
C9     C     0.95695   0.81926   0.88675   0.00000  Uiso   1.00
C10    C     0.54512   0.07094   0.95664   0.00000  Uiso   1.00
C11    C     0.51666   0.15202   0.98504   0.00000  Uiso   1.00
C12    C     0.47561   0.22039   0.96459   0.00000  Uiso   1.00
C13    C     0.40538   0.35208   0.94826   0.00000  Uiso   1.00
C14    C     0.56928   0.96458   0.88493   0.00000  Uiso   1.00
C15    C     0.52682   0.91798   0.90988   0.00000  Uiso   1.00
C16    C     0.48057   0.86800   0.88973   0.00000  Uiso   1.00
C17    C     0.44681   0.83078   0.91845   0.00000  Uiso   1.00
C18    C     0.66327   0.93277   0.89494   0.00000  Uiso   1.00
C19    C     0.73174   0.89526   0.86223   0.00000  Uiso   1.00
C20    C     0.81285   0.87050   0.87837   0.00000  Uiso   1.00
C21    C     0.53302   0.05858   0.90947   0.00000  Uiso   1.00
C22    C     0.49202   0.12683   0.88896   0.00000  Uiso   1.00
C23    C     0.46349   0.20800   0.91733   0.00000  Uiso   1.00
H24    H     0.60097   0.99696   0.00849   0.00000  Uiso   1.00
H25    H     0.51460   0.90276   0.02231   0.00000  Uiso   1.00
H26    H     0.76572   0.93002   0.99481   0.00000  Uiso   1.00
H27    H     0.52603   0.16156   0.02154   0.00000  Uiso   1.00
H28    H     0.41352   0.79285   0.01683   0.00000  Uiso   1.00
H29    H     0.94304   0.85035   0.95884   0.00000  Uiso   1.00
H30    H     0.43761   0.33860   0.01521   0.00000  Uiso   1.00
H31    H     0.55986   0.95495   0.84820   0.00000  Uiso   1.00
H32    H     0.47122   0.85845   0.85323   0.00000  Uiso   1.00
H33    H     0.72236   0.88570   0.82573   0.00000  Uiso   1.00
H34    H     0.48267   0.11724   0.85246   0.00000  Uiso   1.00
H35    H     0.37833   0.75687   0.87959   0.00000  Uiso   1.00
H36    H     0.90785   0.81438   0.82161   0.00000  Uiso   1.00
H37    H     0.40242   0.30263   0.87798   0.00000  Uiso   1.00
O38    O     0.33838   0.71211   0.95440   0.00000  Uiso   1.00
O39    O     0.03309   0.78757   0.87833   0.00000  Uiso   1.00
O40    O     0.36998   0.42813   0.95229   0.00000  Uiso   1.00
N41    N     0.41739   0.79764   0.98384   0.00000  Uiso   1.00
N42    N     0.91246   0.85139   0.92963   0.00000  Uiso   1.00
N43    N     0.43994   0.30786   0.98233   0.00000  Uiso   1.00
N44    N     0.39845   0.77828   0.90999   0.00000  Uiso   1.00
N45    N     0.89352   0.83203   0.85579   0.00000  Uiso   1.00
N46    N     0.42100   0.28851   0.90848   0.00000  Uiso   1.00
C47    C     0.49214   0.60605   0.09509   0.00000  Uiso   1.00
C48    C     0.53474   0.57842   0.04651   0.00000  Uiso   1.00
C49    C     0.62116   0.55667   0.03533   0.00000  Uiso   1.00
C50    C     0.64754   0.53315   0.98888   0.00000  Uiso   1.00
C51    C     0.72251   0.49055   0.91863   0.00000  Uiso   1.00
C52    C     0.42272   0.69322   0.09743   0.00000  Uiso   1.00
C53    C     0.41496   0.76799   0.12907   0.00000  Uiso   1.00
C54    C     0.34703   0.84111   0.12548   0.00000  Uiso   1.00
C55    C     0.24805   0.97673   0.13432   0.00000  Uiso   1.00
C56    C     0.44574   0.54439   0.09841   0.00000  Uiso   1.00
C57    C     0.45731   0.49403   0.13086   0.00000  Uiso   1.00
C58    C     0.40875   0.44185   0.12811   0.00000  Uiso   1.00
C59    C     0.34551   0.34637   0.13845   0.00000  Uiso   1.00
C60    C     0.38531   0.60295   0.03249   0.00000  Uiso   1.00
C61    C     0.47671   0.57674   0.01251   0.00000  Uiso   1.00
C62    C     0.50296   0.55325   0.96607   0.00000  Uiso   1.00
C63    C     0.58941   0.53146   0.95482   0.00000  Uiso   1.00
C64    C     0.36470   0.69155   0.06344   0.00000  Uiso   1.00
C65    C     0.29676   0.76457   0.05981   0.00000  Uiso   1.00
C66    C     0.28889   0.83943   0.09142   0.00000  Uiso   1.00
C67    C     0.38772   0.54270   0.06441   0.00000  Uiso   1.00
C68    C     0.33912   0.49060   0.06160   0.00000  Uiso   1.00
C69    C     0.35061   0.44017   0.09404   0.00000  Uiso   1.00
H70    H     0.53732   0.60736   0.12156   0.00000  Uiso   1.00
H71    H     0.66605   0.55799   0.06165   0.00000  Uiso   1.00
H72    H     0.45987   0.76927   0.15538   0.00000  Uiso   1.00
H73    H     0.50222   0.49535   0.15717   0.00000  Uiso   1.00
H74    H     0.78318   0.50254   0.98024   0.00000  Uiso   1.00
H75    H     0.34842   0.94804   0.17788   0.00000  Uiso   1.00
H76    H     0.43773   0.37041   0.18166   0.00000  Uiso   1.00
H77    H     0.34012   0.60164   0.00601   0.00000  Uiso   1.00
H78    H     0.45804   0.55195   0.93977   0.00000  Uiso   1.00
H79    H     0.25186   0.76324   0.03349   0.00000  Uiso   1.00
H80    H     0.29422   0.48931   0.03529   0.00000  Uiso   1.00
H81    H     0.61435   0.49764   0.88131   0.00000  Uiso   1.00
H82    H     0.17959   0.94314   0.07895   0.00000  Uiso   1.00
H83    H     0.26890   0.36551   0.08273   0.00000  Uiso   1.00
O84    O     0.77989   0.46753   0.88928   0.00000  Uiso   1.00
O85    O     0.20949   0.05200   0.14858   0.00000  Uiso   1.00
O86    O     0.32667   0.29417   0.15354   0.00000  Uiso   1.00
N87    N     0.72727   0.50819   0.96605   0.00000  Uiso   1.00
N88    N     0.32080   0.92471   0.15082   0.00000  Uiso   1.00
N89    N     0.40428   0.38469   0.15437   0.00000  Uiso   1.00
N90    N     0.63642   0.50555   0.91282   0.00000  Uiso   1.00
N91    N     0.22995   0.92207   0.09759   0.00000  Uiso   1.00
N92    N     0.31344   0.38205   0.10114   0.00000  Uiso   1.00
C93    C     0.08573   0.35257   0.98817   0.00000  Uiso   1.00
C94    C     0.12417   0.39348   0.95727   0.00000  Uiso   1.00
C95    C     0.11582   0.47917   0.96532   0.00000  Uiso   1.00
C96    C     0.15579   0.50400   0.93293   0.00000  Uiso   1.00
C97    C     0.20836   0.57648   0.89088   0.00000  Uiso   1.00
C98    C     0.03161   0.31038   0.95788   0.00000  Uiso   1.00
C99    C     0.94543   0.32619   0.96645   0.00000  Uiso   1.00
C100   C     0.90750   0.28106   0.93456   0.00000  Uiso   1.00
C101   C     0.81638   0.22448   0.89347   0.00000  Uiso   1.00
C102   C     0.16023   0.27965   0.00011   0.00000  Uiso   1.00
C103   C     0.18218   0.26960   0.04419   0.00000  Uiso   1.00
C104   C     0.25252   0.19858   0.04786   0.00000  Uiso   1.00
C105   C     0.36109   0.09429   0.07234   0.00000  Uiso   1.00
C106   C     0.17158   0.24430   0.91631   0.00000  Uiso   1.00
C107   C     0.17080   0.33467   0.91824   0.00000  Uiso   1.00
C108   C     0.21081   0.35938   0.88582   0.00000  Uiso   1.00
C109   C     0.20252   0.44509   0.89383   0.00000  Uiso   1.00
C110   C     0.07824   0.25158   0.91885   0.00000  Uiso   1.00
C111   C     0.04042   0.20640   0.88694   0.00000  Uiso   1.00
C112   C     0.95422   0.22214   0.89546   0.00000  Uiso   1.00
C113   C     0.20686   0.22084   0.96108   0.00000  Uiso   1.00
C114   C     0.27717   0.14982   0.96468   0.00000  Uiso   1.00
C115   C     0.29924   0.13967   0.00876   0.00000  Uiso   1.00
H116   H     0.04942   0.39835   0.01855   0.00000  Uiso   1.00
H117   H     0.07972   0.52466   0.99553   0.00000  Uiso   1.00
H118   H     0.90937   0.37170   0.99666   0.00000  Uiso   1.00
H119   H     0.14608   0.31512   0.07438   0.00000  Uiso   1.00
H120   H     0.13385   0.63877   0.95279   0.00000  Uiso   1.00
H121   H     0.77466   0.31622   0.95517   0.00000  Uiso   1.00
H122   H     0.27382   0.19692   0.11907   0.00000  Uiso   1.00
H123   H     0.20789   0.19851   0.88592   0.00000  Uiso   1.00
H124   H     0.24689   0.31386   0.85562   0.00000  Uiso   1.00
H125   H     0.07653   0.16090   0.85674   0.00000  Uiso   1.00
H126   H     0.31325   0.10433   0.93447   0.00000  Uiso   1.00
H127   H     0.26953   0.46768   0.83923   0.00000  Uiso   1.00
H128   H     0.91034   0.14512   0.84161   0.00000  Uiso   1.00
H129   H     0.40950   0.02583   0.00551   0.00000  Uiso   1.00
O130   O     0.22446   0.63271   0.87846   0.00000  Uiso   1.00
O131   O     0.75323   0.20952   0.88159   0.00000  Uiso   1.00
O132   O     0.40811   0.05301   0.09663   0.00000  Uiso   1.00
N133   N     0.16044   0.58267   0.93022   0.00000  Uiso   1.00
N134   N     0.82462   0.28111   0.93245   0.00000  Uiso   1.00
N135   N     0.29128   0.16957   0.08568   0.00000  Uiso   1.00
N136   N     0.23345   0.49061   0.86912   0.00000  Uiso   1.00
N137   N     0.89763   0.18905   0.87134   0.00000  Uiso   1.00
N138   N     0.36428   0.07750   0.02458   0.00000  Uiso   1.00
C139   C     0.92703   0.50010   0.56185   0.00000  Uiso   1.00
C140   C     0.99896   0.44205   0.52611   0.00000  Uiso   1.00
C141   C     0.08523   0.42794   0.53015   0.00000  Uiso   1.00
C142   C     0.14095   0.37255   0.49367   0.00000  Uiso   1.00
C143   C     0.25713   0.28844   0.44413   0.00000  Uiso   1.00
C144   C     0.87928   0.44396   0.57298   0.00000  Uiso   1.00
C145   C     0.86493   0.43147   0.61642   0.00000  Uiso   1.00
C146   C     0.81989   0.37770   0.61940   0.00000  Uiso   1.00
C147   C     0.75022   0.29660   0.64263   0.00000  Uiso   1.00
C148   C     0.86553   0.56406   0.53717   0.00000  Uiso   1.00
C149   C     0.83959   0.65256   0.55049   0.00000  Uiso   1.00
C150   C     0.78296   0.69991   0.52332   0.00000  Uiso   1.00
C151   C     0.69195   0.80530   0.49094   0.00000  Uiso   1.00
C152   C     0.87257   0.42683   0.48991   0.00000  Uiso   1.00
C153   C     0.96937   0.40225   0.48704   0.00000  Uiso   1.00
C154   C     0.02497   0.34688   0.45055   0.00000  Uiso   1.00
C155   C     0.11131   0.33269   0.45452   0.00000  Uiso   1.00
C156   C     0.84970   0.40416   0.53391   0.00000  Uiso   1.00
C157   C     0.80467   0.35041   0.53682   0.00000  Uiso   1.00
C158   C     0.79025   0.33783   0.58025   0.00000  Uiso   1.00
C159   C     0.83595   0.52427   0.49809   0.00000  Uiso   1.00
C160   C     0.77934   0.57150   0.47089   0.00000  Uiso   1.00
C161   C     0.75332   0.66004   0.48417   0.00000  Uiso   1.00
H162   H     0.95006   0.53108   0.59228   0.00000  Uiso   1.00
H163   H     0.10810   0.45874   0.56040   0.00000  Uiso   1.00
H164   H     0.88782   0.46228   0.64666   0.00000  Uiso   1.00
H165   H     0.86250   0.68333   0.58074   0.00000  Uiso   1.00
H166   H     0.27027   0.36097   0.50782   0.00000  Uiso   1.00
H167   H     0.80578   0.36845   0.68971   0.00000  Uiso   1.00
H168   H     0.75238   0.83459   0.55070   0.00000  Uiso   1.00
H169   H     0.84953   0.39585   0.45948   0.00000  Uiso   1.00
H170   H     0.00206   0.31609   0.42031   0.00000  Uiso   1.00
H171   H     0.78178   0.31962   0.50657   0.00000  Uiso   1.00
H172   H     0.75646   0.54068   0.44065   0.00000  Uiso   1.00
H173   H     0.18421   0.24518   0.39412   0.00000  Uiso   1.00
H174   H     0.71971   0.25267   0.57601   0.00000  Uiso   1.00
H175   H     0.66631   0.71880   0.43701   0.00000  Uiso   1.00
O176   O     0.32939   0.25303   0.42760   0.00000  Uiso   1.00
O177   O     0.71998   0.26286   0.66624   0.00000  Uiso   1.00
O178   O     0.64993   0.87442   0.48386   0.00000  Uiso   1.00
N179   N     0.22908   0.34468   0.48643   0.00000  Uiso   1.00
N180   N     0.79482   0.35166   0.65649   0.00000  Uiso   1.00
N181   N     0.74488   0.78746   0.52654   0.00000  Uiso   1.00
N182   N     0.18277   0.28237   0.42525   0.00000  Uiso   1.00
N183   N     0.74851   0.28936   0.59531   0.00000  Uiso   1.00
N184   N     0.69857   0.72516   0.46536   0.00000  Uiso   1.00
C185   C     0.57606   0.20286   0.53928   0.00000  Uiso   1.00
C186   C     0.53676   0.14810   0.50597   0.00000  Uiso   1.00
C187   C     0.45876   0.13944   0.51341   0.00000  Uiso   1.00
C188   C     0.43410   0.08635   0.47872   0.00000  Uiso   1.00
C189   C     0.36523   0.00788   0.43317   0.00000  Uiso   1.00
C190   C     0.59289   0.26389   0.51273   0.00000  Uiso   1.00
C191   C     0.56209   0.35259   0.52586   0.00000  Uiso   1.00
C192   C     0.58469   0.39696   0.49686   0.00000  Uiso   1.00
C193   C     0.60300   0.49825   0.46183   0.00000  Uiso   1.00
C194   C     0.66356   0.14253   0.54785   0.00000  Uiso   1.00
C195   C     0.69219   0.12919   0.59051   0.00000  Uiso   1.00
C196   C     0.77430   0.07140   0.59108   0.00000  Uiso   1.00
C197   C     0.90233   0.98426   0.61057   0.00000  Uiso   1.00
C198   C     0.67097   0.12397   0.46444   0.00000  Uiso   1.00
C199   C     0.58832   0.10526   0.46532   0.00000  Uiso   1.00
C200   C     0.56377   0.05216   0.43061   0.00000  Uiso   1.00
C201   C     0.48575   0.04342   0.43800   0.00000  Uiso   1.00
C202   C     0.64444   0.22104   0.47208   0.00000  Uiso   1.00
C203   C     0.66710   0.26530   0.44306   0.00000  Uiso   1.00
C204   C     0.63633   0.35403   0.45614   0.00000  Uiso   1.00
C205   C     0.71511   0.09967   0.50720   0.00000  Uiso   1.00
C206   C     0.79719   0.04190   0.50770   0.00000  Uiso   1.00
C207   C     0.82594   0.02848   0.55035   0.00000  Uiso   1.00
H208   H     0.53592   0.23623   0.57093   0.00000  Uiso   1.00
H209   H     0.41888   0.17263   0.54487   0.00000  Uiso   1.00
H210   H     0.52220   0.38573   0.55732   0.00000  Uiso   1.00
H211   H     0.65228   0.16237   0.62196   0.00000  Uiso   1.00
H212   H     0.31184   0.08324   0.49805   0.00000  Uiso   1.00
H213   H     0.52972   0.53257   0.52431   0.00000  Uiso   1.00
H214   H     0.80401   0.06158   0.66061   0.00000  Uiso   1.00
H215   H     0.71111   0.09061   0.43279   0.00000  Uiso   1.00
H216   H     0.60368   0.01900   0.39915   0.00000  Uiso   1.00
H217   H     0.70700   0.23211   0.41160   0.00000  Uiso   1.00
H218   H     0.83707   0.00875   0.47624   0.00000  Uiso   1.00
H219   H     0.46182   0.95856   0.37978   0.00000  Uiso   1.00
H220   H     0.67971   0.40790   0.40604   0.00000  Uiso   1.00
H221   H     0.95399   0.93690   0.54234   0.00000  Uiso   1.00
O222   O     0.31299   0.97645   0.41927   0.00000  Uiso   1.00
O223   O     0.59885   0.56596   0.45373   0.00000  Uiso   1.00
O224   O     0.95871   0.94802   0.63255   0.00000  Uiso   1.00
N225   N     0.36189   0.06370   0.47484   0.00000  Uiso   1.00
N226   N     0.56558   0.48381   0.49938   0.00000  Uiso   1.00
N227   N     0.82203   0.04348   0.62681   0.00000  Uiso   1.00
N228   N     0.44260   0.99661   0.41119   0.00000  Uiso   1.00
N229   N     0.64629   0.41672   0.43574   0.00000  Uiso   1.00
N230   N     0.90273   0.97639   0.56317   0.00000  Uiso   1.00
C231   C     0.17364   0.90367   0.50480   0.00000  Uiso   1.00
C232   C     0.11068   0.95239   0.47406   0.00000  Uiso   1.00
C233   C     0.07043   0.04060   0.48202   0.00000  Uiso   1.00
C234   C     0.01506   0.07276   0.44980   0.00000  Uiso   1.00
C235   C     0.91954   0.15666   0.40796   0.00000  Uiso   1.00
C236   C     0.25481   0.85053   0.47421   0.00000  Uiso   1.00
C237   C     0.33574   0.85309   0.48231   0.00000  Uiso   1.00
C238   C     0.40170   0.79950   0.45021   0.00000  Uiso   1.00
C239   C     0.52995   0.72521   0.40862   0.00000  Uiso   1.00
C240   C     0.13711   0.83974   0.51721   0.00000  Uiso   1.00
C241   C     0.11909   0.83320   0.56146   0.00000  Uiso   1.00
C242   C     0.08598   0.77050   0.56557   0.00000  Uiso   1.00
C243   C     0.03149   0.67945   0.59073   0.00000  Uiso   1.00
C244   C     0.14690   0.80393   0.43342   0.00000  Uiso   1.00
C245   C     0.09616   0.89821   0.43529   0.00000  Uiso   1.00
C246   C     0.04084   0.93025   0.40305   0.00000  Uiso   1.00
C247   C     0.00050   0.01849   0.41096   0.00000  Uiso   1.00
C248   C     0.24029   0.79636   0.43544   0.00000  Uiso   1.00
C249   C     0.30615   0.74274   0.40333   0.00000  Uiso   1.00
C250   C     0.38715   0.74522   0.41137   0.00000  Uiso   1.00
C251   C     0.12259   0.78556   0.47844   0.00000  Uiso   1.00
C252   C     0.08950   0.72285   0.48248   0.00000  Uiso   1.00
C253   C     0.07143   0.71622   0.52672   0.00000  Uiso   1.00
H254   H     0.18496   0.94585   0.53499   0.00000  Uiso   1.00
H255   H     0.08169   0.08251   0.51203   0.00000  Uiso   1.00
H256   H     0.34696   0.89502   0.51232   0.00000  Uiso   1.00
H257   H     0.13034   0.87513   0.59145   0.00000  Uiso   1.00
H258   H     0.96082   0.21013   0.46947   0.00000  Uiso   1.00
H259   H     0.52015   0.81478   0.47008   0.00000  Uiso   1.00
H260   H     0.06338   0.77285   0.63696   0.00000  Uiso   1.00
H261   H     0.13560   0.76175   0.40323   0.00000  Uiso   1.00
H262   H     0.02961   0.88831   0.37305   0.00000  Uiso   1.00
H263   H     0.29489   0.70082   0.37333   0.00000  Uiso   1.00
H264   H     0.07827   0.68094   0.45247   0.00000  Uiso   1.00
H265   H     0.91855   0.05251   0.35667   0.00000  Uiso   1.00
H266   H     0.47789   0.65716   0.35728   0.00000  Uiso   1.00
H267   H     0.02112   0.61523   0.52415   0.00000  Uiso   1.00
O268   O     0.87088   0.21790   0.39558   0.00000  Uiso   1.00
O269   O     0.60471   0.69921   0.39639   0.00000  Uiso   1.00
O270   O     0.00543   0.64420   0.61533   0.00000  Uiso   1.00
N271   N     0.96540   0.15567   0.44707   0.00000  Uiso   1.00
N272   N     0.48835   0.78605   0.44764   0.00000  Uiso   1.00
N273   N     0.06132   0.74683   0.60365   0.00000  Uiso   1.00
N274   N     0.94266   0.07085   0.38637   0.00000  Uiso   1.00
N275   N     0.46560   0.70124   0.38694   0.00000  Uiso   1.00
N276   N     0.03858   0.66201   0.54296   0.00000  Uiso   1.00
C277   C     0.56093   0.13798   0.20169   0.00000  Uiso   1.00
C278   C     0.62407   0.16990   0.23010   0.00000  Uiso   1.00
C279   C     0.64456   0.24070   0.22642   0.00000  Uiso   1.00
C280   C     0.70381   0.25935   0.25551   0.00000  Uiso   1.00
C281   C     0.79614   0.31660   0.29483   0.00000  Uiso   1.00
C282   C     0.49545   0.13546   0.23621   0.00000  Uiso   1.00
C283   C     0.40780   0.17729   0.23768   0.00000  Uiso   1.00
C284   C     0.35878   0.16693   0.27191   0.00000  Uiso   1.00
C285   C     0.25142   0.17066   0.32071   0.00000  Uiso   1.00
C286   C     0.61040   0.04499   0.17863   0.00000  Uiso   1.00
C287   C     0.61939   0.01075   0.13169   0.00000  Uiso   1.00
C288   C     0.66714   0.92421   0.11744   0.00000  Uiso   1.00
C289   C     0.73826   0.78748   0.07684   0.00000  Uiso   1.00
C290   C     0.62972   0.04518   0.25987   0.00000  Uiso   1.00
C291   C     0.66143   0.11950   0.26170   0.00000  Uiso   1.00
C292   C     0.72067   0.13803   0.29080   0.00000  Uiso   1.00
C293   C     0.74125   0.20885   0.28717   0.00000  Uiso   1.00
C294   C     0.53281   0.08506   0.26781   0.00000  Uiso   1.00
C295   C     0.48391   0.07462   0.30205   0.00000  Uiso   1.00
C296   C     0.39622   0.11643   0.30357   0.00000  Uiso   1.00
C297   C     0.64777   0.99459   0.21023   0.00000  Uiso   1.00
C298   C     0.69551   0.90808   0.19606   0.00000  Uiso   1.00
C299   C     0.70457   0.87372   0.14910   0.00000  Uiso   1.00
H300   H     0.53183   0.17722   0.17709   0.00000  Uiso   1.00
H301   H     0.61562   0.27970   0.20197   0.00000  Uiso   1.00
H302   H     0.37890   0.21629   0.21322   0.00000  Uiso   1.00
H303   H     0.59046   0.04978   0.10724   0.00000  Uiso   1.00
H304   H     0.72497   0.37110   0.24350   0.00000  Uiso   1.00
H305   H     0.22583   0.23737   0.26721   0.00000  Uiso   1.00
H306   H     0.67195   0.88625   0.04374   0.00000  Uiso   1.00
H307   H     0.65881   0.00594   0.28448   0.00000  Uiso   1.00
H308   H     0.74958   0.09902   0.31525   0.00000  Uiso   1.00
H309   H     0.51285   0.03561   0.32650   0.00000  Uiso   1.00
H310   H     0.72441   0.86910   0.22052   0.00000  Uiso   1.00
H311   H     0.83370   0.22446   0.33544   0.00000  Uiso   1.00
H312   H     0.33455   0.09073   0.35916   0.00000  Uiso   1.00
H313   H     0.78067   0.73960   0.13569   0.00000  Uiso   1.00
O314   O     0.83673   0.36212   0.30779   0.00000  Uiso   1.00
O315   O     0.18188   0.18666   0.33889   0.00000  Uiso   1.00
O316   O     0.76717   0.72599   0.04571   0.00000  Uiso   1.00
N317   N     0.73812   0.32381   0.26091   0.00000  Uiso   1.00
N318   N     0.27145   0.19879   0.28309   0.00000  Uiso   1.00
N319   N     0.68851   0.87051   0.07416   0.00000  Uiso   1.00
N320   N     0.79662   0.24490   0.31038   0.00000  Uiso   1.00
N321   N     0.32995   0.11988   0.33256   0.00000  Uiso   1.00
N322   N     0.74702   0.79160   0.12363   0.00000  Uiso   1.00
C323   C     0.82888   0.44116   0.10404   0.00000  Uiso   1.00
C324   C     0.78279   0.47311   0.15184   0.00000  Uiso   1.00
C325   C     0.69515   0.50094   0.16130   0.00000  Uiso   1.00
C326   C     0.66551   0.52765   0.20730   0.00000  Uiso   1.00
C327   C     0.58541   0.57740   0.27616   0.00000  Uiso   1.00
C328   C     0.89271   0.35171   0.10337   0.00000  Uiso   1.00
C329   C     0.89749   0.27747   0.07208   0.00000  Uiso   1.00
C330   C     0.96039   0.20198   0.07728   0.00000  Uiso   1.00
C331   C     0.05098   0.06325   0.07088   0.00000  Uiso   1.00
C332   C     0.88188   0.49723   0.10135   0.00000  Uiso   1.00
C333   C     0.87758   0.54533   0.06836   0.00000  Uiso   1.00
C334   C     0.93138   0.59235   0.07186   0.00000  Uiso   1.00
C335   C     0.00517   0.67957   0.06232   0.00000  Uiso   1.00
C336   C     0.93209   0.43910   0.16889   0.00000  Uiso   1.00
C337   C     0.83885   0.47199   0.18706   0.00000  Uiso   1.00
C338   C     0.80934   0.49867   0.23306   0.00000  Uiso   1.00
C339   C     0.72167   0.52654   0.24259   0.00000  Uiso   1.00
C340   C     0.94877   0.35059   0.13860   0.00000  Uiso   1.00
C341   C     0.01168   0.27519   0.14384   0.00000  Uiso   1.00
C342   C     0.01655   0.20086   0.11257   0.00000  Uiso   1.00
C343   C     0.93794   0.49612   0.13658   0.00000  Uiso   1.00
C344   C     0.99177   0.54306   0.14012   0.00000  Uiso   1.00
C345   C     0.98754   0.59123   0.10715   0.00000  Uiso   1.00
H346   H     0.78524   0.44202   0.07661   0.00000  Uiso   1.00
H347   H     0.65178   0.50179   0.13403   0.00000  Uiso   1.00
H348   H     0.85410   0.27835   0.04482   0.00000  Uiso   1.00
H349   H     0.83419   0.54618   0.04111   0.00000  Uiso   1.00
H350   H     0.52855   0.56753   0.21323   0.00000  Uiso   1.00
H351   H     0.95516   0.09641   0.02512   0.00000  Uiso   1.00
H352   H     0.91318   0.66117   0.01728   0.00000  Uiso   1.00
H353   H     0.97574   0.43823   0.19632   0.00000  Uiso   1.00
H354   H     0.85274   0.49780   0.26031   0.00000  Uiso   1.00
H355   H     0.05505   0.27436   0.17110   0.00000  Uiso   1.00
H356   H     0.03514   0.54218   0.16739   0.00000  Uiso   1.00
H357   H     0.69165   0.56429   0.31572   0.00000  Uiso   1.00
H358   H     0.11827   0.09316   0.12761   0.00000  Uiso   1.00
H359   H     0.07628   0.65793   0.11978   0.00000  Uiso   1.00
O360   O     0.52574   0.60514   0.30441   0.00000  Uiso   1.00
O361   O     0.08546   0.98704   0.05761   0.00000  Uiso   1.00
O362   O     0.03037   0.72800   0.04734   0.00000  Uiso   1.00
N363   N     0.58381   0.55861   0.22857   0.00000  Uiso   1.00
N364   N     0.98267   0.11813   0.05270   0.00000  Uiso   1.00
N365   N     0.94343   0.64612   0.04537   0.00000  Uiso   1.00
N366   N     0.67157   0.55687   0.28372   0.00000  Uiso   1.00
N367   N     0.07043   0.11639   0.10785   0.00000  Uiso   1.00
N368   N     0.03119   0.64438   0.10052   0.00000  Uiso   1.00
C369   C     0.20348   0.70637   0.19502   0.00000  Uiso   1.00
C370   C     0.17796   0.64454   0.21719   0.00000  Uiso   1.00
C371   C     0.20242   0.55682   0.20055   0.00000  Uiso   1.00
C372   C     0.17235   0.51147   0.22582   0.00000  Uiso   1.00
C373   C     0.14077   0.40923   0.25410   0.00000  Uiso   1.00
C374   C     0.24582   0.75192   0.23177   0.00000  Uiso   1.00
C375   C     0.32733   0.75448   0.22738   0.00000  Uiso   1.00
C376   C     0.35437   0.79954   0.26494   0.00000  Uiso   1.00
C377   C     0.42812   0.86406   0.31584   0.00000  Uiso   1.00
C378   C     0.12025   0.77435   0.18716   0.00000  Uiso   1.00
C379   C     0.09618   0.79579   0.14527   0.00000  Uiso   1.00
C380   C     0.01750   0.85974   0.14526   0.00000  Uiso   1.00
C381   C     0.89629   0.95908   0.12690   0.00000  Uiso   1.00
C382   C     0.10657   0.78183   0.26951   0.00000  Uiso   1.00
C383   C     0.12533   0.68553   0.25765   0.00000  Uiso   1.00
C384   C     0.09520   0.64030   0.28295   0.00000  Uiso   1.00
C385   C     0.11961   0.55253   0.26635   0.00000  Uiso   1.00
C386   C     0.19319   0.79291   0.27223   0.00000  Uiso   1.00
C387   C     0.22011   0.83797   0.30979   0.00000  Uiso   1.00
C388   C     0.30164   0.84060   0.30547   0.00000  Uiso   1.00
C389   C     0.06761   0.81533   0.22762   0.00000  Uiso   1.00
C390   C     0.98896   0.87927   0.22768   0.00000  Uiso   1.00
C391   C     0.96477   0.90080   0.18579   0.00000  Uiso   1.00
H392   H     0.24446   0.67446   0.16353   0.00000  Uiso   1.00
H393   H     0.24316   0.52512   0.16924   0.00000  Uiso   1.00
H394   H     0.36805   0.72277   0.19607   0.00000  Uiso   1.00
H395   H     0.13693   0.76406   0.11397   0.00000  Uiso   1.00
H396   H     0.21853   0.37762   0.19342   0.00000  Uiso   1.00
H397   H     0.48185   0.79439   0.24999   0.00000  Uiso   1.00
H398   H     0.99450   0.88147   0.07686   0.00000  Uiso   1.00
H399   H     0.06559   0.81374   0.30101   0.00000  Uiso   1.00
H400   H     0.05447   0.67204   0.31426   0.00000  Uiso   1.00
H401   H     0.17936   0.86968   0.34109   0.00000  Uiso   1.00
H402   H     0.94824   0.91097   0.25899   0.00000  Uiso   1.00
H403   H     0.06539   0.49687   0.31113   0.00000  Uiso   1.00
H404   H     0.32871   0.91364   0.36770   0.00000  Uiso   1.00
H405   H     0.84135   0.00071   0.19457   0.00000  Uiso   1.00
O406   O     0.13790   0.34152   0.25852   0.00000  Uiso   1.00
O407   O     0.48335   0.88831   0.33274   0.00000  Uiso   1.00
O408   O     0.84396   0.00254   0.10559   0.00000  Uiso   1.00
N409   N     0.18400   0.42514   0.21930   0.00000  Uiso   1.00
N410   N     0.43019   0.81478   0.27219   0.00000  Uiso   1.00
N411   N     0.97457   0.89620   0.11033   0.00000  Uiso   1.00
N412   N     0.10160   0.48930   0.28263   0.00000  Uiso   1.00
N413   N     0.34779   0.87894   0.33553   0.00000  Uiso   1.00
N414   N     0.89216   0.96036   0.17367   0.00000  Uiso   1.00
C415   C     0.33741   0.53883   0.64004   0.00000  Uiso   1.00
C416   C     0.26289   0.59472   0.67474   0.00000  Uiso   1.00
C417   C     0.17768   0.60499   0.66929   0.00000  Uiso   1.00
C418   C     0.11917   0.65895   0.70498   0.00000  Uiso   1.00
C419   C     0.99952   0.73937   0.75281   0.00000  Uiso   1.00
C420   C     0.38246   0.59786   0.62983   0.00000  Uiso   1.00
C421   C     0.39779   0.61076   0.58663   0.00000  Uiso   1.00
C422   C     0.43994   0.66735   0.58452   0.00000  Uiso   1.00
C423   C     0.50598   0.75259   0.56263   0.00000  Uiso   1.00
C424   C     0.39951   0.47706   0.66564   0.00000  Uiso   1.00
C425   C     0.42920   0.38837   0.65253   0.00000  Uiso   1.00
C426   C     0.48572   0.34325   0.68056   0.00000  Uiso   1.00
C427   C     0.57823   0.24092   0.71426   0.00000  Uiso   1.00
C428   C     0.38502   0.61639   0.71312   0.00000  Uiso   1.00
C429   C     0.28875   0.63685   0.71443   0.00000  Uiso   1.00
C430   C     0.23035   0.69080   0.75015   0.00000  Uiso   1.00
C431   C     0.14507   0.70115   0.74475   0.00000  Uiso   1.00
C432   C     0.40832   0.63999   0.66953   0.00000  Uiso   1.00
C433   C     0.45046   0.69657   0.66748   0.00000  Uiso   1.00
C434   C     0.46585   0.70955   0.62429   0.00000  Uiso   1.00
C435   C     0.42537   0.51918   0.70533   0.00000  Uiso   1.00
C436   C     0.48186   0.47419   0.73339   0.00000  Uiso   1.00
C437   C     0.51163   0.38545   0.72033   0.00000  Uiso   1.00
H438   H     0.31728   0.50604   0.60914   0.00000  Uiso   1.00
H439   H     0.15770   0.57239   0.63856   0.00000  Uiso   1.00
H440   H     0.37778   0.57814   0.55591   0.00000  Uiso   1.00
H441   H     0.40918   0.35580   0.62181   0.00000  Uiso   1.00
H442   H     0.99217   0.66456   0.68868   0.00000  Uiso   1.00
H443   H     0.45625   0.67667   0.51442   0.00000  Uiso   1.00
H444   H     0.52246   0.20781   0.65337   0.00000  Uiso   1.00
H445   H     0.40515   0.64918   0.74403   0.00000  Uiso   1.00
H446   H     0.25038   0.72339   0.78086   0.00000  Uiso   1.00
H447   H     0.47046   0.72915   0.69821   0.00000  Uiso   1.00
H448   H     0.50186   0.50680   0.76410   0.00000  Uiso   1.00
H449   H     0.06739   0.78712   0.80418   0.00000  Uiso   1.00
H450   H     0.53148   0.79923   0.62991   0.00000  Uiso   1.00
H451   H     0.59768   0.33037   0.76886   0.00000  Uiso   1.00
O452   O     0.92638   0.77210   0.76822   0.00000  Uiso   1.00
O453   O     0.53525   0.78797   0.53958   0.00000  Uiso   1.00
O454   O     0.62211   0.17284   0.72189   0.00000  Uiso   1.00
N455   N     0.03111   0.68321   0.71082   0.00000  Uiso   1.00
N456   N     0.46499   0.69454   0.54789   0.00000  Uiso   1.00
N457   N     0.52691   0.25619   0.67779   0.00000  Uiso   1.00
N458   N     0.07159   0.74915   0.77296   0.00000  Uiso   1.00
N459   N     0.50547   0.76049   0.61003   0.00000  Uiso   1.00
N460   N     0.56738   0.32214   0.73993   0.00000  Uiso   1.00
C461   C     0.68101   0.85253   0.66332   0.00000  Uiso   1.00
C462   C     0.71657   0.90889   0.69799   0.00000  Uiso   1.00
C463   C     0.79343   0.92088   0.69221   0.00000  Uiso   1.00
C464   C     0.81457   0.97495   0.72796   0.00000  Uiso   1.00
C465   C     0.87799   0.05626   0.77571   0.00000  Uiso   1.00
C466   C     0.66548   0.78929   0.68867   0.00000  Uiso   1.00
C467   C     0.69939   0.70072   0.67505   0.00000  Uiso   1.00
C468   C     0.67750   0.65411   0.70294   0.00000  Uiso   1.00
C469   C     0.66156   0.54973   0.73620   0.00000  Uiso   1.00
C470   C     0.59304   0.91061   0.65384   0.00000  Uiso   1.00
C471   C     0.56602   0.92402   0.61093   0.00000  Uiso   1.00
C472   C     0.48314   0.97954   0.60950   0.00000  Uiso   1.00
C473   C     0.35473   0.06353   0.58869   0.00000  Uiso   1.00
C474   C     0.58185   0.92725   0.73708   0.00000  Uiso   1.00
C475   C     0.66270   0.94947   0.73805   0.00000  Uiso   1.00
C476   C     0.68373   0.00355   0.77381   0.00000  Uiso   1.00
C477   C     0.76061   0.01562   0.76809   0.00000  Uiso   1.00
C478   C     0.61162   0.82987   0.72873   0.00000  Uiso   1.00
C479   C     0.58968   0.78338   0.75665   0.00000  Uiso   1.00
C480   C     0.62355   0.69477   0.74307   0.00000  Uiso   1.00
C481   C     0.53918   0.95119   0.69390   0.00000  Uiso   1.00
C482   C     0.45632   0.00669   0.69254   0.00000  Uiso   1.00
C483   C     0.42919   0.02020   0.64964   0.00000  Uiso   1.00
H484   H     0.72294   0.82093   0.63213   0.00000  Uiso   1.00
H485   H     0.83510   0.88945   0.66121   0.00000  Uiso   1.00
H486   H     0.74106   0.66933   0.64404   0.00000  Uiso   1.00
H487   H     0.60772   0.89260   0.57994   0.00000  Uiso   1.00
H488   H     0.93572   0.98330   0.71112   0.00000  Uiso   1.00
H489   H     0.73740   0.51915   0.67491   0.00000  Uiso   1.00
H490   H     0.45623   0.98997   0.53974   0.00000  Uiso   1.00
H491   H     0.53992   0.95885   0.76827   0.00000  Uiso   1.00
H492   H     0.64203   0.03495   0.80481   0.00000  Uiso   1.00
H493   H     0.54799   0.81481   0.78765   0.00000  Uiso   1.00
H494   H     0.41466   0.03809   0.72355   0.00000  Uiso   1.00
H495   H     0.77902   0.10138   0.82767   0.00000  Uiso   1.00
H496   H     0.58070   0.63723   0.79147   0.00000  Uiso   1.00
H497   H     0.29953   0.10805   0.65630   0.00000  Uiso   1.00
O498   O     0.92786   0.08989   0.79099   0.00000  Uiso   1.00
O499   O     0.66766   0.48094   0.74348   0.00000  Uiso   1.00
O500   O     0.29878   0.09865   0.56614   0.00000  Uiso   1.00
N501   N     0.88481   0.00066   0.73353   0.00000  Uiso   1.00
N502   N     0.69941   0.56671   0.69968   0.00000  Uiso   1.00
N503   N     0.43653   0.00687   0.57331   0.00000  Uiso   1.00
N504   N     0.80049   0.06420   0.79625   0.00000  Uiso   1.00
N505   N     0.61509   0.63025   0.76240   0.00000  Uiso   1.00
N506   N     0.35221   0.07041   0.63603   0.00000  Uiso   1.00
C507   C     0.08647   0.13977   0.68998   0.00000  Uiso   1.00
C508   C     0.14928   0.08614   0.71895   0.00000  Uiso   1.00
C509   C     0.18450   0.99740   0.70958   0.00000  Uiso   1.00
C510   C     0.24067   0.96043   0.74029   0.00000  Uiso   1.00
C511   C     0.33510   0.86955   0.77940   0.00000  Uiso   1.00
C512   C     0.00840   0.19574   0.72232   0.00000  Uiso   1.00
C513   C     0.92517   0.19915   0.71578   0.00000  Uiso   1.00
C514   C     0.86275   0.25445   0.74933   0.00000  Uiso   1.00
C515   C     0.73846   0.33376   0.79366   0.00000  Uiso   1.00
C516   C     0.12715   0.20059   0.67747   0.00000  Uiso   1.00
C517   C     0.14374   0.20810   0.63322   0.00000  Uiso   1.00
C518   C     0.18127   0.26750   0.62902   0.00000  Uiso   1.00
C519   C     0.24135   0.35434   0.60371   0.00000  Uiso   1.00
C520   C     0.12359   0.23193   0.76119   0.00000  Uiso   1.00
C521   C     0.16944   0.13620   0.75763   0.00000  Uiso   1.00
C522   C     0.22557   0.09936   0.78837   0.00000  Uiso   1.00
C523   C     0.26087   0.01058   0.77904   0.00000  Uiso   1.00
C524   C     0.02856   0.24580   0.76100   0.00000  Uiso   1.00
C525   C     0.96624   0.30111   0.79457   0.00000  Uiso   1.00
C526   C     0.88295   0.30460   0.78808   0.00000  Uiso   1.00
C527   C     0.14731   0.25065   0.71615   0.00000  Uiso   1.00
C528   C     0.18482   0.31006   0.71201   0.00000  Uiso   1.00
C529   C     0.20147   0.31765   0.66777   0.00000  Uiso   1.00
H530   H     0.07076   0.10080   0.65987   0.00000  Uiso   1.00
H531   H     0.16887   0.95868   0.67964   0.00000  Uiso   1.00
H532   H     0.90959   0.16041   0.68584   0.00000  Uiso   1.00
H533   H     0.12813   0.16935   0.60330   0.00000  Uiso   1.00
H534   H     0.28652   0.82319   0.71863   0.00000  Uiso   1.00
H535   H     0.73980   0.24856   0.73170   0.00000  Uiso   1.00
H536   H     0.20062   0.26742   0.55764   0.00000  Uiso   1.00
H537   H     0.13928   0.27091   0.79131   0.00000  Uiso   1.00
H538   H     0.24116   0.13812   0.81829   0.00000  Uiso   1.00
H539   H     0.98187   0.33984   0.82449   0.00000  Uiso   1.00
H540   H     0.20041   0.34878   0.74195   0.00000  Uiso   1.00
H541   H     0.34519   0.96883   0.83117   0.00000  Uiso   1.00
H542   H     0.79846   0.39420   0.84424   0.00000  Uiso   1.00
H543   H     0.25929   0.41305   0.67018   0.00000  Uiso   1.00
O544   O     0.38161   0.80559   0.79029   0.00000  Uiso   1.00
O545   O     0.66433   0.36367   0.80743   0.00000  Uiso   1.00
O546   O     0.26893   0.38840   0.57907   0.00000  Uiso   1.00
N547   N     0.28636   0.87569   0.74141   0.00000  Uiso   1.00
N548   N     0.77521   0.27338   0.75363   0.00000  Uiso   1.00
N549   N     0.20602   0.29102   0.59090   0.00000  Uiso   1.00
N550   N     0.31793   0.95406   0.80197   0.00000  Uiso   1.00
N551   N     0.80678   0.35174   0.81418   0.00000  Uiso   1.00
N552   N     0.23759   0.36939   0.65145   0.00000  Uiso   1.00
