data_job_03467
_audit_creation_date              2018-12-19
_audit_creation_method            'Materials Studio'
_symmetry_space_group_name_H-M    'P1'
_symmetry_Int_Tables_number       1
_symmetry_cell_setting            triclinic
loop_
_symmetry_equiv_pos_as_xyz
  x,y,z
_cell_length_a                    24.5433
_cell_length_b                    20.5632
_cell_length_c                    17.6501
_cell_angle_alpha                 90.0000
_cell_angle_beta                  95.6432
_cell_angle_gamma                 90.0000
loop_
_atom_site_label
_atom_site_type_symbol
_atom_site_fract_x
_atom_site_fract_y
_atom_site_fract_z
_atom_site_U_iso_or_equiv
_atom_site_adp_type
_atom_site_occupancy
C1     C     0.37897   0.42989   0.54953   0.00000  Uiso   1.00
C2     C     0.33849   0.38867   0.58895   0.00000  Uiso   1.00
C3     C     0.35015   0.35453   0.65642   0.00000  Uiso   1.00
C4     C     0.30751   0.31973   0.68317   0.00000  Uiso   1.00
C5     C     0.25264   0.25579   0.75035   0.00000  Uiso   1.00
C6     C     0.37859   0.40268   0.46911   0.00000  Uiso   1.00
C7     C     0.42398   0.38032   0.43582   0.00000  Uiso   1.00
C8     C     0.41509   0.35732   0.36167   0.00000  Uiso   1.00
C9     C     0.42248   0.31517   0.24278   0.00000  Uiso   1.00
C10    C     0.35371   0.49756   0.54086   0.00000  Uiso   1.00
C11    C     0.37818   0.55499   0.56787   0.00000  Uiso   1.00
C12    C     0.34835   0.61186   0.55411   0.00000  Uiso   1.00
C13    C     0.31711   0.71703   0.54662   0.00000  Uiso   1.00
C14    C     0.28249   0.42879   0.47705   0.00000  Uiso   1.00
C15    C     0.28609   0.38808   0.54958   0.00000  Uiso   1.00
C16    C     0.24342   0.35332   0.57624   0.00000  Uiso   1.00
C17    C     0.25501   0.31913   0.64374   0.00000  Uiso   1.00
C18    C     0.32619   0.40208   0.42974   0.00000  Uiso   1.00
C19    C     0.31724   0.37911   0.35563   0.00000  Uiso   1.00
C20    C     0.36260   0.35672   0.32224   0.00000  Uiso   1.00
C21    C     0.30131   0.49696   0.50149   0.00000  Uiso   1.00
C22    C     0.27144   0.55376   0.48769   0.00000  Uiso   1.00
C23    C     0.29586   0.61126   0.51468   0.00000  Uiso   1.00
H24    H     0.41976   0.43036   0.58017   0.00000  Uiso   1.00
H25    H     0.39071   0.35500   0.68687   0.00000  Uiso   1.00
H26    H     0.46452   0.38080   0.46629   0.00000  Uiso   1.00
H27    H     0.41873   0.55543   0.59833   0.00000  Uiso   1.00
H28    H     0.33540   0.27118   0.78778   0.00000  Uiso   1.00
H29    H     0.49104   0.32559   0.32268   0.00000  Uiso   1.00
H30    H     0.39447   0.69383   0.60110   0.00000  Uiso   1.00
H31    H     0.24170   0.42832   0.44640   0.00000  Uiso   1.00
H32    H     0.20287   0.35286   0.54576   0.00000  Uiso   1.00
H33    H     0.27668   0.37865   0.32518   0.00000  Uiso   1.00
H34    H     0.23089   0.55328   0.45722   0.00000  Uiso   1.00
H35    H     0.18294   0.26944   0.67325   0.00000  Uiso   1.00
H36    H     0.33858   0.32385   0.20815   0.00000  Uiso   1.00
H37    H     0.24202   0.69209   0.48657   0.00000  Uiso   1.00
O38    O     0.23685   0.22069   0.79828   0.00000  Uiso   1.00
O39    O     0.44104   0.29208   0.18808   0.00000  Uiso   1.00
O40    O     0.31435   0.77520   0.55336   0.00000  Uiso   1.00
N41    N     0.30484   0.28114   0.74720   0.00000  Uiso   1.00
N42    N     0.45035   0.33199   0.31236   0.00000  Uiso   1.00
N43    N     0.36008   0.67628   0.57264   0.00000  Uiso   1.00
N44    N     0.22281   0.28020   0.68557   0.00000  Uiso   1.00
N45    N     0.36832   0.33106   0.25073   0.00000  Uiso   1.00
N46    N     0.27805   0.67534   0.51102   0.00000  Uiso   1.00
C47    C     0.87897   0.92989   0.54953   0.00000  Uiso   1.00
C48    C     0.83849   0.88867   0.58895   0.00000  Uiso   1.00
C49    C     0.85015   0.85453   0.65642   0.00000  Uiso   1.00
C50    C     0.80751   0.81973   0.68317   0.00000  Uiso   1.00
C51    C     0.75264   0.75579   0.75035   0.00000  Uiso   1.00
C52    C     0.87859   0.90268   0.46911   0.00000  Uiso   1.00
C53    C     0.92398   0.88032   0.43582   0.00000  Uiso   1.00
C54    C     0.91509   0.85732   0.36167   0.00000  Uiso   1.00
C55    C     0.92248   0.81517   0.24278   0.00000  Uiso   1.00
C56    C     0.85371   0.99756   0.54086   0.00000  Uiso   1.00
C57    C     0.87818   0.05499   0.56787   0.00000  Uiso   1.00
C58    C     0.84835   0.11186   0.55411   0.00000  Uiso   1.00
C59    C     0.81711   0.21703   0.54662   0.00000  Uiso   1.00
C60    C     0.78249   0.92879   0.47705   0.00000  Uiso   1.00
C61    C     0.78609   0.88808   0.54958   0.00000  Uiso   1.00
C62    C     0.74342   0.85332   0.57624   0.00000  Uiso   1.00
C63    C     0.75501   0.81913   0.64374   0.00000  Uiso   1.00
C64    C     0.82619   0.90208   0.42974   0.00000  Uiso   1.00
C65    C     0.81724   0.87911   0.35563   0.00000  Uiso   1.00
C66    C     0.86260   0.85672   0.32224   0.00000  Uiso   1.00
C67    C     0.80131   0.99696   0.50149   0.00000  Uiso   1.00
C68    C     0.77144   0.05376   0.48769   0.00000  Uiso   1.00
C69    C     0.79586   0.11126   0.51468   0.00000  Uiso   1.00
H70    H     0.91976   0.93036   0.58017   0.00000  Uiso   1.00
H71    H     0.89071   0.85500   0.68687   0.00000  Uiso   1.00
H72    H     0.96452   0.88080   0.46629   0.00000  Uiso   1.00
H73    H     0.91873   0.05543   0.59833   0.00000  Uiso   1.00
H74    H     0.83540   0.77118   0.78778   0.00000  Uiso   1.00
H75    H     0.99104   0.82559   0.32268   0.00000  Uiso   1.00
H76    H     0.89447   0.19383   0.60110   0.00000  Uiso   1.00
H77    H     0.74170   0.92832   0.44640   0.00000  Uiso   1.00
H78    H     0.70287   0.85286   0.54576   0.00000  Uiso   1.00
H79    H     0.77668   0.87865   0.32518   0.00000  Uiso   1.00
H80    H     0.73089   0.05328   0.45722   0.00000  Uiso   1.00
H81    H     0.68294   0.76944   0.67325   0.00000  Uiso   1.00
H82    H     0.83858   0.82385   0.20815   0.00000  Uiso   1.00
H83    H     0.74202   0.19209   0.48657   0.00000  Uiso   1.00
O84    O     0.73685   0.72069   0.79828   0.00000  Uiso   1.00
O85    O     0.94104   0.79208   0.18808   0.00000  Uiso   1.00
O86    O     0.81435   0.27520   0.55336   0.00000  Uiso   1.00
N87    N     0.80484   0.78114   0.74720   0.00000  Uiso   1.00
N88    N     0.95035   0.83199   0.31236   0.00000  Uiso   1.00
N89    N     0.86008   0.17628   0.57264   0.00000  Uiso   1.00
N90    N     0.72281   0.78020   0.68557   0.00000  Uiso   1.00
N91    N     0.86832   0.83106   0.25073   0.00000  Uiso   1.00
N92    N     0.77805   0.17534   0.51102   0.00000  Uiso   1.00
C93    C     0.62103   0.42989   0.95047   0.00000  Uiso   1.00
C94    C     0.66151   0.38867   0.91105   0.00000  Uiso   1.00
C95    C     0.64985   0.35453   0.84358   0.00000  Uiso   1.00
C96    C     0.69249   0.31973   0.81683   0.00000  Uiso   1.00
C97    C     0.74736   0.25579   0.74965   0.00000  Uiso   1.00
C98    C     0.62141   0.40268   0.03089   0.00000  Uiso   1.00
C99    C     0.57602   0.38032   0.06418   0.00000  Uiso   1.00
C100   C     0.58491   0.35732   0.13833   0.00000  Uiso   1.00
C101   C     0.57752   0.31517   0.25722   0.00000  Uiso   1.00
C102   C     0.64629   0.49756   0.95914   0.00000  Uiso   1.00
C103   C     0.62182   0.55499   0.93213   0.00000  Uiso   1.00
C104   C     0.65165   0.61186   0.94589   0.00000  Uiso   1.00
C105   C     0.68289   0.71703   0.95338   0.00000  Uiso   1.00
C106   C     0.71751   0.42879   0.02295   0.00000  Uiso   1.00
C107   C     0.71391   0.38808   0.95042   0.00000  Uiso   1.00
C108   C     0.75658   0.35332   0.92376   0.00000  Uiso   1.00
C109   C     0.74499   0.31913   0.85626   0.00000  Uiso   1.00
C110   C     0.67381   0.40208   0.07026   0.00000  Uiso   1.00
C111   C     0.68276   0.37911   0.14437   0.00000  Uiso   1.00
C112   C     0.63740   0.35672   0.17776   0.00000  Uiso   1.00
C113   C     0.69869   0.49696   0.99851   0.00000  Uiso   1.00
C114   C     0.72856   0.55376   0.01231   0.00000  Uiso   1.00
C115   C     0.70414   0.61126   0.98532   0.00000  Uiso   1.00
H116   H     0.58024   0.43036   0.91983   0.00000  Uiso   1.00
H117   H     0.60929   0.35500   0.81313   0.00000  Uiso   1.00
H118   H     0.53548   0.38080   0.03371   0.00000  Uiso   1.00
H119   H     0.58127   0.55543   0.90167   0.00000  Uiso   1.00
H120   H     0.66460   0.27118   0.71222   0.00000  Uiso   1.00
H121   H     0.50896   0.32559   0.17732   0.00000  Uiso   1.00
H122   H     0.60553   0.69383   0.89890   0.00000  Uiso   1.00
H123   H     0.75830   0.42832   0.05360   0.00000  Uiso   1.00
H124   H     0.79713   0.35286   0.95424   0.00000  Uiso   1.00
H125   H     0.72332   0.37865   0.17482   0.00000  Uiso   1.00
H126   H     0.76911   0.55328   0.04278   0.00000  Uiso   1.00
H127   H     0.81706   0.26944   0.82675   0.00000  Uiso   1.00
H128   H     0.66142   0.32385   0.29185   0.00000  Uiso   1.00
H129   H     0.75798   0.69209   0.01343   0.00000  Uiso   1.00
O130   O     0.76315   0.22069   0.70172   0.00000  Uiso   1.00
O131   O     0.55896   0.29208   0.31192   0.00000  Uiso   1.00
O132   O     0.68565   0.77520   0.94664   0.00000  Uiso   1.00
N133   N     0.69516   0.28114   0.75280   0.00000  Uiso   1.00
N134   N     0.54965   0.33199   0.18764   0.00000  Uiso   1.00
N135   N     0.63992   0.67628   0.92736   0.00000  Uiso   1.00
N136   N     0.77719   0.28020   0.81443   0.00000  Uiso   1.00
N137   N     0.63168   0.33106   0.24927   0.00000  Uiso   1.00
N138   N     0.72195   0.67534   0.98898   0.00000  Uiso   1.00
C139   C     0.12103   0.92989   0.95047   0.00000  Uiso   1.00
C140   C     0.16151   0.88867   0.91105   0.00000  Uiso   1.00
C141   C     0.14985   0.85453   0.84358   0.00000  Uiso   1.00
C142   C     0.19249   0.81973   0.81683   0.00000  Uiso   1.00
C143   C     0.24736   0.75579   0.74965   0.00000  Uiso   1.00
C144   C     0.12141   0.90268   0.03089   0.00000  Uiso   1.00
C145   C     0.07602   0.88032   0.06418   0.00000  Uiso   1.00
C146   C     0.08491   0.85732   0.13833   0.00000  Uiso   1.00
C147   C     0.07752   0.81517   0.25722   0.00000  Uiso   1.00
C148   C     0.14629   0.99756   0.95914   0.00000  Uiso   1.00
C149   C     0.12182   0.05499   0.93213   0.00000  Uiso   1.00
C150   C     0.15165   0.11186   0.94589   0.00000  Uiso   1.00
C151   C     0.18289   0.21703   0.95338   0.00000  Uiso   1.00
C152   C     0.21751   0.92879   0.02295   0.00000  Uiso   1.00
C153   C     0.21391   0.88808   0.95042   0.00000  Uiso   1.00
C154   C     0.25658   0.85332   0.92376   0.00000  Uiso   1.00
C155   C     0.24499   0.81913   0.85626   0.00000  Uiso   1.00
C156   C     0.17381   0.90208   0.07026   0.00000  Uiso   1.00
C157   C     0.18276   0.87911   0.14437   0.00000  Uiso   1.00
C158   C     0.13740   0.85672   0.17776   0.00000  Uiso   1.00
C159   C     0.19869   0.99696   0.99851   0.00000  Uiso   1.00
C160   C     0.22856   0.05376   0.01231   0.00000  Uiso   1.00
C161   C     0.20414   0.11126   0.98532   0.00000  Uiso   1.00
H162   H     0.08024   0.93036   0.91983   0.00000  Uiso   1.00
H163   H     0.10929   0.85500   0.81313   0.00000  Uiso   1.00
H164   H     0.03548   0.88080   0.03371   0.00000  Uiso   1.00
H165   H     0.08127   0.05543   0.90167   0.00000  Uiso   1.00
H166   H     0.16460   0.77118   0.71222   0.00000  Uiso   1.00
H167   H     0.00896   0.82559   0.17732   0.00000  Uiso   1.00
H168   H     0.10553   0.19383   0.89890   0.00000  Uiso   1.00
H169   H     0.25830   0.92832   0.05360   0.00000  Uiso   1.00
H170   H     0.29713   0.85286   0.95424   0.00000  Uiso   1.00
H171   H     0.22332   0.87865   0.17482   0.00000  Uiso   1.00
H172   H     0.26911   0.05328   0.04278   0.00000  Uiso   1.00
H173   H     0.31706   0.76944   0.82675   0.00000  Uiso   1.00
H174   H     0.16142   0.82385   0.29185   0.00000  Uiso   1.00
H175   H     0.25798   0.19209   0.01343   0.00000  Uiso   1.00
O176   O     0.26315   0.72069   0.70172   0.00000  Uiso   1.00
O177   O     0.05896   0.79208   0.31192   0.00000  Uiso   1.00
O178   O     0.18565   0.27520   0.94664   0.00000  Uiso   1.00
N179   N     0.19516   0.78114   0.75280   0.00000  Uiso   1.00
N180   N     0.04965   0.83199   0.18764   0.00000  Uiso   1.00
N181   N     0.13992   0.17628   0.92736   0.00000  Uiso   1.00
N182   N     0.27719   0.78020   0.81443   0.00000  Uiso   1.00
N183   N     0.13168   0.83106   0.24927   0.00000  Uiso   1.00
N184   N     0.22195   0.17534   0.98898   0.00000  Uiso   1.00
C185   C     0.62103   0.57011   0.45047   0.00000  Uiso   1.00
C186   C     0.66151   0.61133   0.41105   0.00000  Uiso   1.00
C187   C     0.64985   0.64547   0.34358   0.00000  Uiso   1.00
C188   C     0.69249   0.68027   0.31683   0.00000  Uiso   1.00
C189   C     0.74736   0.74421   0.24965   0.00000  Uiso   1.00
C190   C     0.62141   0.59732   0.53089   0.00000  Uiso   1.00
C191   C     0.57602   0.61968   0.56418   0.00000  Uiso   1.00
C192   C     0.58491   0.64268   0.63833   0.00000  Uiso   1.00
C193   C     0.57752   0.68483   0.75722   0.00000  Uiso   1.00
C194   C     0.64629   0.50244   0.45914   0.00000  Uiso   1.00
C195   C     0.62182   0.44501   0.43213   0.00000  Uiso   1.00
C196   C     0.65165   0.38814   0.44589   0.00000  Uiso   1.00
C197   C     0.68289   0.28297   0.45338   0.00000  Uiso   1.00
C198   C     0.71751   0.57121   0.52295   0.00000  Uiso   1.00
C199   C     0.71391   0.61192   0.45042   0.00000  Uiso   1.00
C200   C     0.75658   0.64668   0.42376   0.00000  Uiso   1.00
C201   C     0.74499   0.68087   0.35626   0.00000  Uiso   1.00
C202   C     0.67381   0.59792   0.57026   0.00000  Uiso   1.00
C203   C     0.68276   0.62089   0.64437   0.00000  Uiso   1.00
C204   C     0.63740   0.64328   0.67776   0.00000  Uiso   1.00
C205   C     0.69869   0.50304   0.49851   0.00000  Uiso   1.00
C206   C     0.72856   0.44624   0.51231   0.00000  Uiso   1.00
C207   C     0.70414   0.38874   0.48532   0.00000  Uiso   1.00
H208   H     0.58024   0.56964   0.41983   0.00000  Uiso   1.00
H209   H     0.60929   0.64500   0.31313   0.00000  Uiso   1.00
H210   H     0.53548   0.61920   0.53371   0.00000  Uiso   1.00
H211   H     0.58127   0.44457   0.40167   0.00000  Uiso   1.00
H212   H     0.66460   0.72882   0.21222   0.00000  Uiso   1.00
H213   H     0.50896   0.67441   0.67732   0.00000  Uiso   1.00
H214   H     0.60553   0.30617   0.39890   0.00000  Uiso   1.00
H215   H     0.75830   0.57168   0.55360   0.00000  Uiso   1.00
H216   H     0.79713   0.64714   0.45424   0.00000  Uiso   1.00
H217   H     0.72332   0.62135   0.67482   0.00000  Uiso   1.00
H218   H     0.76911   0.44672   0.54278   0.00000  Uiso   1.00
H219   H     0.81706   0.73056   0.32675   0.00000  Uiso   1.00
H220   H     0.66142   0.67615   0.79185   0.00000  Uiso   1.00
H221   H     0.75798   0.30791   0.51343   0.00000  Uiso   1.00
O222   O     0.76315   0.77931   0.20172   0.00000  Uiso   1.00
O223   O     0.55896   0.70792   0.81192   0.00000  Uiso   1.00
O224   O     0.68565   0.22480   0.44664   0.00000  Uiso   1.00
N225   N     0.69516   0.71886   0.25280   0.00000  Uiso   1.00
N226   N     0.54965   0.66801   0.68764   0.00000  Uiso   1.00
N227   N     0.63992   0.32372   0.42736   0.00000  Uiso   1.00
N228   N     0.77719   0.71980   0.31443   0.00000  Uiso   1.00
N229   N     0.63168   0.66894   0.74927   0.00000  Uiso   1.00
N230   N     0.72195   0.32466   0.48898   0.00000  Uiso   1.00
C231   C     0.12103   0.07011   0.45047   0.00000  Uiso   1.00
C232   C     0.16151   0.11133   0.41105   0.00000  Uiso   1.00
C233   C     0.14985   0.14547   0.34358   0.00000  Uiso   1.00
C234   C     0.19249   0.18027   0.31683   0.00000  Uiso   1.00
C235   C     0.24736   0.24421   0.24965   0.00000  Uiso   1.00
C236   C     0.12141   0.09732   0.53089   0.00000  Uiso   1.00
C237   C     0.07602   0.11968   0.56418   0.00000  Uiso   1.00
C238   C     0.08491   0.14268   0.63833   0.00000  Uiso   1.00
C239   C     0.07752   0.18483   0.75722   0.00000  Uiso   1.00
C240   C     0.14629   0.00244   0.45914   0.00000  Uiso   1.00
C241   C     0.12182   0.94501   0.43213   0.00000  Uiso   1.00
C242   C     0.15165   0.88814   0.44589   0.00000  Uiso   1.00
C243   C     0.18289   0.78297   0.45338   0.00000  Uiso   1.00
C244   C     0.21751   0.07121   0.52295   0.00000  Uiso   1.00
C245   C     0.21391   0.11192   0.45042   0.00000  Uiso   1.00
C246   C     0.25658   0.14668   0.42376   0.00000  Uiso   1.00
C247   C     0.24499   0.18087   0.35626   0.00000  Uiso   1.00
C248   C     0.17381   0.09792   0.57026   0.00000  Uiso   1.00
C249   C     0.18276   0.12089   0.64437   0.00000  Uiso   1.00
C250   C     0.13740   0.14328   0.67776   0.00000  Uiso   1.00
C251   C     0.19869   0.00304   0.49851   0.00000  Uiso   1.00
C252   C     0.22856   0.94624   0.51231   0.00000  Uiso   1.00
C253   C     0.20414   0.88874   0.48532   0.00000  Uiso   1.00
H254   H     0.08024   0.06964   0.41983   0.00000  Uiso   1.00
H255   H     0.10929   0.14500   0.31313   0.00000  Uiso   1.00
H256   H     0.03548   0.11920   0.53371   0.00000  Uiso   1.00
H257   H     0.08127   0.94457   0.40167   0.00000  Uiso   1.00
H258   H     0.16460   0.22882   0.21222   0.00000  Uiso   1.00
H259   H     0.00896   0.17441   0.67732   0.00000  Uiso   1.00
H260   H     0.10553   0.80617   0.39890   0.00000  Uiso   1.00
H261   H     0.25830   0.07168   0.55360   0.00000  Uiso   1.00
H262   H     0.29713   0.14714   0.45424   0.00000  Uiso   1.00
H263   H     0.22332   0.12135   0.67482   0.00000  Uiso   1.00
H264   H     0.26911   0.94672   0.54278   0.00000  Uiso   1.00
H265   H     0.31706   0.23056   0.32675   0.00000  Uiso   1.00
H266   H     0.16142   0.17615   0.79185   0.00000  Uiso   1.00
H267   H     0.25798   0.80791   0.51343   0.00000  Uiso   1.00
O268   O     0.26315   0.27931   0.20172   0.00000  Uiso   1.00
O269   O     0.05896   0.20792   0.81192   0.00000  Uiso   1.00
O270   O     0.18565   0.72480   0.44664   0.00000  Uiso   1.00
N271   N     0.19516   0.21886   0.25280   0.00000  Uiso   1.00
N272   N     0.04965   0.16801   0.68764   0.00000  Uiso   1.00
N273   N     0.13992   0.82372   0.42736   0.00000  Uiso   1.00
N274   N     0.27719   0.21980   0.31443   0.00000  Uiso   1.00
N275   N     0.13168   0.16894   0.74927   0.00000  Uiso   1.00
N276   N     0.22195   0.82466   0.48898   0.00000  Uiso   1.00
C277   C     0.37897   0.57011   0.04953   0.00000  Uiso   1.00
C278   C     0.33849   0.61133   0.08895   0.00000  Uiso   1.00
C279   C     0.35015   0.64547   0.15642   0.00000  Uiso   1.00
C280   C     0.30751   0.68027   0.18317   0.00000  Uiso   1.00
C281   C     0.25264   0.74421   0.25035   0.00000  Uiso   1.00
C282   C     0.37859   0.59732   0.96911   0.00000  Uiso   1.00
C283   C     0.42398   0.61968   0.93582   0.00000  Uiso   1.00
C284   C     0.41509   0.64268   0.86167   0.00000  Uiso   1.00
C285   C     0.42248   0.68483   0.74278   0.00000  Uiso   1.00
C286   C     0.35371   0.50244   0.04086   0.00000  Uiso   1.00
C287   C     0.37818   0.44501   0.06787   0.00000  Uiso   1.00
C288   C     0.34835   0.38814   0.05411   0.00000  Uiso   1.00
C289   C     0.31711   0.28297   0.04662   0.00000  Uiso   1.00
C290   C     0.28249   0.57121   0.97705   0.00000  Uiso   1.00
C291   C     0.28609   0.61192   0.04958   0.00000  Uiso   1.00
C292   C     0.24342   0.64668   0.07624   0.00000  Uiso   1.00
C293   C     0.25501   0.68087   0.14374   0.00000  Uiso   1.00
C294   C     0.32619   0.59792   0.92974   0.00000  Uiso   1.00
C295   C     0.31724   0.62089   0.85563   0.00000  Uiso   1.00
C296   C     0.36260   0.64328   0.82224   0.00000  Uiso   1.00
C297   C     0.30131   0.50304   0.00149   0.00000  Uiso   1.00
C298   C     0.27144   0.44624   0.98769   0.00000  Uiso   1.00
C299   C     0.29586   0.38874   0.01468   0.00000  Uiso   1.00
H300   H     0.41976   0.56964   0.08017   0.00000  Uiso   1.00
H301   H     0.39071   0.64500   0.18687   0.00000  Uiso   1.00
H302   H     0.46452   0.61920   0.96629   0.00000  Uiso   1.00
H303   H     0.41873   0.44457   0.09833   0.00000  Uiso   1.00
H304   H     0.33540   0.72882   0.28778   0.00000  Uiso   1.00
H305   H     0.49104   0.67441   0.82268   0.00000  Uiso   1.00
H306   H     0.39447   0.30617   0.10110   0.00000  Uiso   1.00
H307   H     0.24170   0.57168   0.94640   0.00000  Uiso   1.00
H308   H     0.20287   0.64714   0.04576   0.00000  Uiso   1.00
H309   H     0.27668   0.62135   0.82518   0.00000  Uiso   1.00
H310   H     0.23089   0.44672   0.95722   0.00000  Uiso   1.00
H311   H     0.18294   0.73056   0.17325   0.00000  Uiso   1.00
H312   H     0.33858   0.67615   0.70815   0.00000  Uiso   1.00
H313   H     0.24202   0.30791   0.98657   0.00000  Uiso   1.00
O314   O     0.23685   0.77931   0.29828   0.00000  Uiso   1.00
O315   O     0.44104   0.70792   0.68808   0.00000  Uiso   1.00
O316   O     0.31435   0.22480   0.05336   0.00000  Uiso   1.00
N317   N     0.30484   0.71886   0.24720   0.00000  Uiso   1.00
N318   N     0.45035   0.66801   0.81236   0.00000  Uiso   1.00
N319   N     0.36008   0.32372   0.07264   0.00000  Uiso   1.00
N320   N     0.22281   0.71980   0.18557   0.00000  Uiso   1.00
N321   N     0.36832   0.66894   0.75073   0.00000  Uiso   1.00
N322   N     0.27805   0.32466   0.01102   0.00000  Uiso   1.00
C323   C     0.87897   0.07011   0.04953   0.00000  Uiso   1.00
C324   C     0.83849   0.11133   0.08895   0.00000  Uiso   1.00
C325   C     0.85015   0.14547   0.15642   0.00000  Uiso   1.00
C326   C     0.80751   0.18027   0.18317   0.00000  Uiso   1.00
C327   C     0.75264   0.24421   0.25035   0.00000  Uiso   1.00
C328   C     0.87859   0.09732   0.96911   0.00000  Uiso   1.00
C329   C     0.92398   0.11968   0.93582   0.00000  Uiso   1.00
C330   C     0.91509   0.14268   0.86167   0.00000  Uiso   1.00
C331   C     0.92248   0.18483   0.74278   0.00000  Uiso   1.00
C332   C     0.85371   0.00244   0.04086   0.00000  Uiso   1.00
C333   C     0.87818   0.94501   0.06787   0.00000  Uiso   1.00
C334   C     0.84835   0.88814   0.05411   0.00000  Uiso   1.00
C335   C     0.81711   0.78297   0.04662   0.00000  Uiso   1.00
C336   C     0.78249   0.07121   0.97705   0.00000  Uiso   1.00
C337   C     0.78609   0.11192   0.04958   0.00000  Uiso   1.00
C338   C     0.74342   0.14668   0.07624   0.00000  Uiso   1.00
C339   C     0.75501   0.18087   0.14374   0.00000  Uiso   1.00
C340   C     0.82619   0.09792   0.92974   0.00000  Uiso   1.00
C341   C     0.81724   0.12089   0.85563   0.00000  Uiso   1.00
C342   C     0.86260   0.14328   0.82224   0.00000  Uiso   1.00
C343   C     0.80131   0.00304   0.00149   0.00000  Uiso   1.00
C344   C     0.77144   0.94624   0.98769   0.00000  Uiso   1.00
C345   C     0.79586   0.88874   0.01468   0.00000  Uiso   1.00
H346   H     0.91976   0.06964   0.08017   0.00000  Uiso   1.00
H347   H     0.89071   0.14500   0.18687   0.00000  Uiso   1.00
H348   H     0.96452   0.11920   0.96629   0.00000  Uiso   1.00
H349   H     0.91873   0.94457   0.09833   0.00000  Uiso   1.00
H350   H     0.83540   0.22882   0.28778   0.00000  Uiso   1.00
H351   H     0.99104   0.17441   0.82268   0.00000  Uiso   1.00
H352   H     0.89447   0.80617   0.10110   0.00000  Uiso   1.00
H353   H     0.74170   0.07168   0.94640   0.00000  Uiso   1.00
H354   H     0.70287   0.14714   0.04576   0.00000  Uiso   1.00
H355   H     0.77668   0.12135   0.82518   0.00000  Uiso   1.00
H356   H     0.73089   0.94672   0.95722   0.00000  Uiso   1.00
H357   H     0.68294   0.23056   0.17325   0.00000  Uiso   1.00
H358   H     0.83858   0.17615   0.70815   0.00000  Uiso   1.00
H359   H     0.74202   0.80791   0.98657   0.00000  Uiso   1.00
O360   O     0.73685   0.27931   0.29828   0.00000  Uiso   1.00
O361   O     0.94104   0.20792   0.68808   0.00000  Uiso   1.00
O362   O     0.81435   0.72480   0.05336   0.00000  Uiso   1.00
N363   N     0.80484   0.21886   0.24720   0.00000  Uiso   1.00
N364   N     0.95035   0.16801   0.81236   0.00000  Uiso   1.00
N365   N     0.86008   0.82372   0.07264   0.00000  Uiso   1.00
N366   N     0.72281   0.21980   0.18557   0.00000  Uiso   1.00
N367   N     0.86832   0.16894   0.75073   0.00000  Uiso   1.00
N368   N     0.77805   0.82466   0.01102   0.00000  Uiso   1.00
