data_job_02153
_audit_creation_date              2018-12-19
_audit_creation_method            'Materials Studio'
_symmetry_space_group_name_H-M    'P1'
_symmetry_Int_Tables_number       1
_symmetry_cell_setting            triclinic
loop_
_symmetry_equiv_pos_as_xyz
  x,y,z
_cell_length_a                    13.3488
_cell_length_b                    15.6080
_cell_length_c                    26.2976
_cell_angle_alpha                 90.0000
_cell_angle_beta                  90.0000
_cell_angle_gamma                 90.0000
loop_
_atom_site_label
_atom_site_type_symbol
_atom_site_fract_x
_atom_site_fract_y
_atom_site_fract_z
_atom_site_U_iso_or_equiv
_atom_site_adp_type
_atom_site_occupancy
C1     C     0.19984   0.86107   0.56902   0.00000  Uiso   1.00
C2     C     0.30011   0.82923   0.58939   0.00000  Uiso   1.00
C3     C     0.33324   0.74496   0.58872   0.00000  Uiso   1.00
C4     C     0.42724   0.72894   0.60921   0.00000  Uiso   1.00
C5     C     0.57398   0.66947   0.63776   0.00000  Uiso   1.00
C6     C     0.14882   0.90673   0.61327   0.00000  Uiso   1.00
C7     C     0.05474   0.88761   0.63266   0.00000  Uiso   1.00
C8     C     0.02139   0.93683   0.67325   0.00000  Uiso   1.00
C9     C     0.93322   0.99770   0.73884   0.00000  Uiso   1.00
C10    C     0.22462   0.93045   0.53018   0.00000  Uiso   1.00
C11    C     0.19425   0.93129   0.47971   0.00000  Uiso   1.00
C12    C     0.22468   0.00049   0.45035   0.00000  Uiso   1.00
C13    C     0.25421   0.09820   0.38693   0.00000  Uiso   1.00
C14    C     0.30787   0.98247   0.60662   0.00000  Uiso   1.00
C15    C     0.35878   0.89517   0.60982   0.00000  Uiso   1.00
C16    C     0.45276   0.87927   0.63032   0.00000  Uiso   1.00
C17    C     0.48603   0.79499   0.62967   0.00000  Uiso   1.00
C18    C     0.20750   0.97266   0.63369   0.00000  Uiso   1.00
C19    C     0.17427   0.02192   0.67426   0.00000  Uiso   1.00
C20    C     0.08017   0.00289   0.69371   0.00000  Uiso   1.00
C21    C     0.28330   0.99638   0.55060   0.00000  Uiso   1.00
C22    C     0.31378   0.06560   0.52131   0.00000  Uiso   1.00
C23    C     0.28347   0.06655   0.47081   0.00000  Uiso   1.00
H24    H     0.15415   0.80974   0.55312   0.00000  Uiso   1.00
H25    H     0.28780   0.69395   0.57291   0.00000  Uiso   1.00
H26    H     0.00935   0.83659   0.61684   0.00000  Uiso   1.00
H27    H     0.14884   0.88026   0.46392   0.00000  Uiso   1.00
H28    H     0.46184   0.59465   0.60387   0.00000  Uiso   1.00
H29    H     0.87469   0.89543   0.69649   0.00000  Uiso   1.00
H30    H     0.16883   0.98751   0.37402   0.00000  Uiso   1.00
H31    H     0.35356   0.03381   0.62253   0.00000  Uiso   1.00
H32    H     0.49815   0.93031   0.64612   0.00000  Uiso   1.00
H33    H     0.21970   0.07295   0.69005   0.00000  Uiso   1.00
H34    H     0.35919   0.11662   0.53713   0.00000  Uiso   1.00
H35    H     0.63257   0.78649   0.66330   0.00000  Uiso   1.00
H36    H     0.04541   0.08727   0.75592   0.00000  Uiso   1.00
H37    H     0.33956   0.17935   0.43345   0.00000  Uiso   1.00
O38    O     0.63871   0.61845   0.64787   0.00000  Uiso   1.00
O39    O     0.86838   0.01305   0.76937   0.00000  Uiso   1.00
O40    O     0.25429   0.13387   0.34630   0.00000  Uiso   1.00
N41    N     0.48218   0.65401   0.61461   0.00000  Uiso   1.00
N42    N     0.93324   0.93520   0.70121   0.00000  Uiso   1.00
N43    N     0.20821   0.02131   0.39973   0.00000  Uiso   1.00
N44    N     0.57405   0.75724   0.64659   0.00000  Uiso   1.00
N45    N     0.02511   0.03843   0.73318   0.00000  Uiso   1.00
N46    N     0.30008   0.12454   0.43171   0.00000  Uiso   1.00
C47    C     0.30016   0.13893   0.06902   0.00000  Uiso   1.00
C48    C     0.19989   0.17077   0.08939   0.00000  Uiso   1.00
C49    C     0.16676   0.25504   0.08872   0.00000  Uiso   1.00
C50    C     0.07276   0.27106   0.10921   0.00000  Uiso   1.00
C51    C     0.92602   0.33053   0.13776   0.00000  Uiso   1.00
C52    C     0.35118   0.09327   0.11327   0.00000  Uiso   1.00
C53    C     0.44526   0.11239   0.13266   0.00000  Uiso   1.00
C54    C     0.47861   0.06317   0.17325   0.00000  Uiso   1.00
C55    C     0.56678   0.00230   0.23884   0.00000  Uiso   1.00
C56    C     0.27538   0.06955   0.03018   0.00000  Uiso   1.00
C57    C     0.30575   0.06871   0.97971   0.00000  Uiso   1.00
C58    C     0.27532   0.99951   0.95035   0.00000  Uiso   1.00
C59    C     0.24579   0.90180   0.88693   0.00000  Uiso   1.00
C60    C     0.19213   0.01753   0.10662   0.00000  Uiso   1.00
C61    C     0.14122   0.10483   0.10982   0.00000  Uiso   1.00
C62    C     0.04724   0.12073   0.13032   0.00000  Uiso   1.00
C63    C     0.01397   0.20501   0.12967   0.00000  Uiso   1.00
C64    C     0.29250   0.02734   0.13369   0.00000  Uiso   1.00
C65    C     0.32573   0.97808   0.17426   0.00000  Uiso   1.00
C66    C     0.41983   0.99711   0.19371   0.00000  Uiso   1.00
C67    C     0.21670   0.00362   0.05060   0.00000  Uiso   1.00
C68    C     0.18622   0.93440   0.02131   0.00000  Uiso   1.00
C69    C     0.21653   0.93345   0.97081   0.00000  Uiso   1.00
H70    H     0.34585   0.19026   0.05312   0.00000  Uiso   1.00
H71    H     0.21220   0.30605   0.07291   0.00000  Uiso   1.00
H72    H     0.49065   0.16341   0.11684   0.00000  Uiso   1.00
H73    H     0.35116   0.11974   0.96392   0.00000  Uiso   1.00
H74    H     0.03816   0.40535   0.10387   0.00000  Uiso   1.00
H75    H     0.62531   0.10457   0.19649   0.00000  Uiso   1.00
H76    H     0.33117   0.01249   0.87402   0.00000  Uiso   1.00
H77    H     0.14644   0.96619   0.12253   0.00000  Uiso   1.00
H78    H     0.00185   0.06969   0.14612   0.00000  Uiso   1.00
H79    H     0.28030   0.92705   0.19005   0.00000  Uiso   1.00
H80    H     0.14081   0.88338   0.03713   0.00000  Uiso   1.00
H81    H     0.86743   0.21351   0.16330   0.00000  Uiso   1.00
H82    H     0.45459   0.91273   0.25592   0.00000  Uiso   1.00
H83    H     0.16044   0.82065   0.93345   0.00000  Uiso   1.00
O84    O     0.86129   0.38155   0.14787   0.00000  Uiso   1.00
O85    O     0.63162   0.98695   0.26937   0.00000  Uiso   1.00
O86    O     0.24571   0.86613   0.84630   0.00000  Uiso   1.00
N87    N     0.01782   0.34599   0.11461   0.00000  Uiso   1.00
N88    N     0.56676   0.06480   0.20121   0.00000  Uiso   1.00
N89    N     0.29179   0.97869   0.89973   0.00000  Uiso   1.00
N90    N     0.92595   0.24276   0.14659   0.00000  Uiso   1.00
N91    N     0.47489   0.96157   0.23318   0.00000  Uiso   1.00
N92    N     0.19992   0.87546   0.93171   0.00000  Uiso   1.00
C93    C     0.80016   0.36107   0.93098   0.00000  Uiso   1.00
C94    C     0.69989   0.32923   0.91061   0.00000  Uiso   1.00
C95    C     0.66676   0.24496   0.91128   0.00000  Uiso   1.00
C96    C     0.57276   0.22894   0.89079   0.00000  Uiso   1.00
C97    C     0.42602   0.16947   0.86224   0.00000  Uiso   1.00
C98    C     0.85118   0.40673   0.88673   0.00000  Uiso   1.00
C99    C     0.94526   0.38761   0.86734   0.00000  Uiso   1.00
C100   C     0.97861   0.43683   0.82675   0.00000  Uiso   1.00
C101   C     0.06678   0.49770   0.76116   0.00000  Uiso   1.00
C102   C     0.77538   0.43045   0.96982   0.00000  Uiso   1.00
C103   C     0.80575   0.43129   0.02029   0.00000  Uiso   1.00
C104   C     0.77532   0.50049   0.04965   0.00000  Uiso   1.00
C105   C     0.74579   0.59820   0.11307   0.00000  Uiso   1.00
C106   C     0.69213   0.48247   0.89338   0.00000  Uiso   1.00
C107   C     0.64122   0.39517   0.89018   0.00000  Uiso   1.00
C108   C     0.54724   0.37927   0.86968   0.00000  Uiso   1.00
C109   C     0.51397   0.29499   0.87033   0.00000  Uiso   1.00
C110   C     0.79250   0.47266   0.86631   0.00000  Uiso   1.00
C111   C     0.82573   0.52192   0.82574   0.00000  Uiso   1.00
C112   C     0.91983   0.50289   0.80629   0.00000  Uiso   1.00
C113   C     0.71670   0.49638   0.94940   0.00000  Uiso   1.00
C114   C     0.68622   0.56560   0.97869   0.00000  Uiso   1.00
C115   C     0.71653   0.56655   0.02919   0.00000  Uiso   1.00
H116   H     0.84585   0.30974   0.94688   0.00000  Uiso   1.00
H117   H     0.71220   0.19395   0.92709   0.00000  Uiso   1.00
H118   H     0.99065   0.33659   0.88316   0.00000  Uiso   1.00
H119   H     0.85116   0.38026   0.03608   0.00000  Uiso   1.00
H120   H     0.53816   0.09465   0.89613   0.00000  Uiso   1.00
H121   H     0.12531   0.39543   0.80351   0.00000  Uiso   1.00
H122   H     0.83117   0.48751   0.12598   0.00000  Uiso   1.00
H123   H     0.64644   0.53381   0.87747   0.00000  Uiso   1.00
H124   H     0.50185   0.43031   0.85388   0.00000  Uiso   1.00
H125   H     0.78030   0.57295   0.80995   0.00000  Uiso   1.00
H126   H     0.64081   0.61662   0.96287   0.00000  Uiso   1.00
H127   H     0.36743   0.28649   0.83670   0.00000  Uiso   1.00
H128   H     0.95459   0.58727   0.74408   0.00000  Uiso   1.00
H129   H     0.66044   0.67935   0.06655   0.00000  Uiso   1.00
O130   O     0.36129   0.11845   0.85213   0.00000  Uiso   1.00
O131   O     0.13162   0.51305   0.73063   0.00000  Uiso   1.00
O132   O     0.74571   0.63387   0.15370   0.00000  Uiso   1.00
N133   N     0.51782   0.15401   0.88539   0.00000  Uiso   1.00
N134   N     0.06676   0.43520   0.79879   0.00000  Uiso   1.00
N135   N     0.79179   0.52131   0.10027   0.00000  Uiso   1.00
N136   N     0.42595   0.25724   0.85341   0.00000  Uiso   1.00
N137   N     0.97489   0.53843   0.76682   0.00000  Uiso   1.00
N138   N     0.69992   0.62454   0.06829   0.00000  Uiso   1.00
C139   C     0.69984   0.63893   0.43098   0.00000  Uiso   1.00
C140   C     0.80011   0.67077   0.41061   0.00000  Uiso   1.00
C141   C     0.83324   0.75504   0.41128   0.00000  Uiso   1.00
C142   C     0.92724   0.77106   0.39079   0.00000  Uiso   1.00
C143   C     0.07398   0.83053   0.36224   0.00000  Uiso   1.00
C144   C     0.64882   0.59327   0.38673   0.00000  Uiso   1.00
C145   C     0.55474   0.61239   0.36734   0.00000  Uiso   1.00
C146   C     0.52139   0.56317   0.32675   0.00000  Uiso   1.00
C147   C     0.43322   0.50230   0.26116   0.00000  Uiso   1.00
C148   C     0.72462   0.56955   0.46982   0.00000  Uiso   1.00
C149   C     0.69425   0.56871   0.52029   0.00000  Uiso   1.00
C150   C     0.72468   0.49951   0.54965   0.00000  Uiso   1.00
C151   C     0.75421   0.40180   0.61307   0.00000  Uiso   1.00
C152   C     0.80787   0.51753   0.39338   0.00000  Uiso   1.00
C153   C     0.85878   0.60483   0.39018   0.00000  Uiso   1.00
C154   C     0.95276   0.62073   0.36968   0.00000  Uiso   1.00
C155   C     0.98603   0.70501   0.37033   0.00000  Uiso   1.00
C156   C     0.70750   0.52734   0.36631   0.00000  Uiso   1.00
C157   C     0.67427   0.47808   0.32574   0.00000  Uiso   1.00
C158   C     0.58017   0.49711   0.30629   0.00000  Uiso   1.00
C159   C     0.78330   0.50362   0.44940   0.00000  Uiso   1.00
C160   C     0.81378   0.43440   0.47869   0.00000  Uiso   1.00
C161   C     0.78347   0.43345   0.52919   0.00000  Uiso   1.00
H162   H     0.65415   0.69026   0.44688   0.00000  Uiso   1.00
H163   H     0.78780   0.80605   0.42709   0.00000  Uiso   1.00
H164   H     0.50935   0.66341   0.38316   0.00000  Uiso   1.00
H165   H     0.64884   0.61974   0.53608   0.00000  Uiso   1.00
H166   H     0.96184   0.90535   0.39613   0.00000  Uiso   1.00
H167   H     0.37469   0.60457   0.30351   0.00000  Uiso   1.00
H168   H     0.66883   0.51249   0.62598   0.00000  Uiso   1.00
H169   H     0.85356   0.46619   0.37747   0.00000  Uiso   1.00
H170   H     0.99815   0.56969   0.35388   0.00000  Uiso   1.00
H171   H     0.71970   0.42705   0.30995   0.00000  Uiso   1.00
H172   H     0.85919   0.38338   0.46287   0.00000  Uiso   1.00
H173   H     0.13257   0.71351   0.33670   0.00000  Uiso   1.00
H174   H     0.54541   0.41273   0.24408   0.00000  Uiso   1.00
H175   H     0.83956   0.32065   0.56655   0.00000  Uiso   1.00
O176   O     0.13871   0.88155   0.35213   0.00000  Uiso   1.00
O177   O     0.36838   0.48695   0.23063   0.00000  Uiso   1.00
O178   O     0.75429   0.36613   0.65370   0.00000  Uiso   1.00
N179   N     0.98218   0.84599   0.38539   0.00000  Uiso   1.00
N180   N     0.43324   0.56480   0.29879   0.00000  Uiso   1.00
N181   N     0.70821   0.47869   0.60027   0.00000  Uiso   1.00
N182   N     0.07405   0.74276   0.35341   0.00000  Uiso   1.00
N183   N     0.52511   0.46157   0.26682   0.00000  Uiso   1.00
N184   N     0.80008   0.37546   0.56829   0.00000  Uiso   1.00
C185   C     0.80016   0.13893   0.43098   0.00000  Uiso   1.00
C186   C     0.69989   0.17077   0.41061   0.00000  Uiso   1.00
C187   C     0.66676   0.25504   0.41128   0.00000  Uiso   1.00
C188   C     0.57276   0.27106   0.39079   0.00000  Uiso   1.00
C189   C     0.42602   0.33053   0.36224   0.00000  Uiso   1.00
C190   C     0.85118   0.09327   0.38673   0.00000  Uiso   1.00
C191   C     0.94526   0.11239   0.36734   0.00000  Uiso   1.00
C192   C     0.97861   0.06317   0.32675   0.00000  Uiso   1.00
C193   C     0.06678   0.00230   0.26116   0.00000  Uiso   1.00
C194   C     0.77538   0.06955   0.46982   0.00000  Uiso   1.00
C195   C     0.80575   0.06871   0.52029   0.00000  Uiso   1.00
C196   C     0.77532   0.99951   0.54965   0.00000  Uiso   1.00
C197   C     0.74579   0.90180   0.61307   0.00000  Uiso   1.00
C198   C     0.69213   0.01753   0.39338   0.00000  Uiso   1.00
C199   C     0.64122   0.10483   0.39018   0.00000  Uiso   1.00
C200   C     0.54724   0.12073   0.36968   0.00000  Uiso   1.00
C201   C     0.51397   0.20501   0.37033   0.00000  Uiso   1.00
C202   C     0.79250   0.02734   0.36631   0.00000  Uiso   1.00
C203   C     0.82573   0.97808   0.32574   0.00000  Uiso   1.00
C204   C     0.91983   0.99711   0.30629   0.00000  Uiso   1.00
C205   C     0.71670   0.00362   0.44940   0.00000  Uiso   1.00
C206   C     0.68622   0.93440   0.47869   0.00000  Uiso   1.00
C207   C     0.71653   0.93345   0.52919   0.00000  Uiso   1.00
H208   H     0.84585   0.19026   0.44688   0.00000  Uiso   1.00
H209   H     0.71220   0.30605   0.42709   0.00000  Uiso   1.00
H210   H     0.99065   0.16341   0.38316   0.00000  Uiso   1.00
H211   H     0.85116   0.11974   0.53608   0.00000  Uiso   1.00
H212   H     0.53816   0.40535   0.39613   0.00000  Uiso   1.00
H213   H     0.12531   0.10457   0.30351   0.00000  Uiso   1.00
H214   H     0.83117   0.01249   0.62598   0.00000  Uiso   1.00
H215   H     0.64644   0.96619   0.37747   0.00000  Uiso   1.00
H216   H     0.50185   0.06969   0.35388   0.00000  Uiso   1.00
H217   H     0.78030   0.92705   0.30995   0.00000  Uiso   1.00
H218   H     0.64081   0.88338   0.46287   0.00000  Uiso   1.00
H219   H     0.36743   0.21351   0.33670   0.00000  Uiso   1.00
H220   H     0.95459   0.91273   0.24408   0.00000  Uiso   1.00
H221   H     0.66044   0.82065   0.56655   0.00000  Uiso   1.00
O222   O     0.36129   0.38155   0.35213   0.00000  Uiso   1.00
O223   O     0.13162   0.98695   0.23063   0.00000  Uiso   1.00
O224   O     0.74571   0.86613   0.65370   0.00000  Uiso   1.00
N225   N     0.51782   0.34599   0.38539   0.00000  Uiso   1.00
N226   N     0.06676   0.06480   0.29879   0.00000  Uiso   1.00
N227   N     0.79179   0.97869   0.60027   0.00000  Uiso   1.00
N228   N     0.42595   0.24276   0.35341   0.00000  Uiso   1.00
N229   N     0.97489   0.96157   0.26682   0.00000  Uiso   1.00
N230   N     0.69992   0.87546   0.56829   0.00000  Uiso   1.00
C231   C     0.69984   0.86107   0.93098   0.00000  Uiso   1.00
C232   C     0.80011   0.82923   0.91061   0.00000  Uiso   1.00
C233   C     0.83324   0.74496   0.91128   0.00000  Uiso   1.00
C234   C     0.92724   0.72894   0.89079   0.00000  Uiso   1.00
C235   C     0.07398   0.66947   0.86224   0.00000  Uiso   1.00
C236   C     0.64882   0.90673   0.88673   0.00000  Uiso   1.00
C237   C     0.55474   0.88761   0.86734   0.00000  Uiso   1.00
C238   C     0.52139   0.93683   0.82675   0.00000  Uiso   1.00
C239   C     0.43322   0.99770   0.76116   0.00000  Uiso   1.00
C240   C     0.72462   0.93045   0.96982   0.00000  Uiso   1.00
C241   C     0.69425   0.93129   0.02029   0.00000  Uiso   1.00
C242   C     0.72468   0.00049   0.04965   0.00000  Uiso   1.00
C243   C     0.75421   0.09820   0.11307   0.00000  Uiso   1.00
C244   C     0.80787   0.98247   0.89338   0.00000  Uiso   1.00
C245   C     0.85878   0.89517   0.89018   0.00000  Uiso   1.00
C246   C     0.95276   0.87927   0.86968   0.00000  Uiso   1.00
C247   C     0.98603   0.79499   0.87033   0.00000  Uiso   1.00
C248   C     0.70750   0.97266   0.86631   0.00000  Uiso   1.00
C249   C     0.67427   0.02192   0.82574   0.00000  Uiso   1.00
C250   C     0.58017   0.00289   0.80629   0.00000  Uiso   1.00
C251   C     0.78330   0.99638   0.94940   0.00000  Uiso   1.00
C252   C     0.81378   0.06560   0.97869   0.00000  Uiso   1.00
C253   C     0.78347   0.06655   0.02919   0.00000  Uiso   1.00
H254   H     0.65415   0.80974   0.94688   0.00000  Uiso   1.00
H255   H     0.78780   0.69395   0.92709   0.00000  Uiso   1.00
H256   H     0.50935   0.83659   0.88316   0.00000  Uiso   1.00
H257   H     0.64884   0.88026   0.03608   0.00000  Uiso   1.00
H258   H     0.96184   0.59465   0.89613   0.00000  Uiso   1.00
H259   H     0.37469   0.89543   0.80351   0.00000  Uiso   1.00
H260   H     0.66883   0.98751   0.12598   0.00000  Uiso   1.00
H261   H     0.85356   0.03381   0.87747   0.00000  Uiso   1.00
H262   H     0.99815   0.93031   0.85388   0.00000  Uiso   1.00
H263   H     0.71970   0.07295   0.80995   0.00000  Uiso   1.00
H264   H     0.85919   0.11662   0.96287   0.00000  Uiso   1.00
H265   H     0.13257   0.78649   0.83670   0.00000  Uiso   1.00
H266   H     0.54541   0.08727   0.74408   0.00000  Uiso   1.00
H267   H     0.83956   0.17935   0.06655   0.00000  Uiso   1.00
O268   O     0.13871   0.61845   0.85213   0.00000  Uiso   1.00
O269   O     0.36838   0.01305   0.73063   0.00000  Uiso   1.00
O270   O     0.75429   0.13387   0.15370   0.00000  Uiso   1.00
N271   N     0.98218   0.65401   0.88539   0.00000  Uiso   1.00
N272   N     0.43324   0.93520   0.79879   0.00000  Uiso   1.00
N273   N     0.70821   0.02131   0.10027   0.00000  Uiso   1.00
N274   N     0.07405   0.75724   0.85341   0.00000  Uiso   1.00
N275   N     0.52511   0.03843   0.76682   0.00000  Uiso   1.00
N276   N     0.80008   0.12454   0.06829   0.00000  Uiso   1.00
C277   C     0.19984   0.63893   0.06902   0.00000  Uiso   1.00
C278   C     0.30011   0.67077   0.08939   0.00000  Uiso   1.00
C279   C     0.33324   0.75504   0.08872   0.00000  Uiso   1.00
C280   C     0.42724   0.77106   0.10921   0.00000  Uiso   1.00
C281   C     0.57398   0.83053   0.13776   0.00000  Uiso   1.00
C282   C     0.14882   0.59327   0.11327   0.00000  Uiso   1.00
C283   C     0.05474   0.61239   0.13266   0.00000  Uiso   1.00
C284   C     0.02139   0.56317   0.17325   0.00000  Uiso   1.00
C285   C     0.93322   0.50230   0.23884   0.00000  Uiso   1.00
C286   C     0.22462   0.56955   0.03018   0.00000  Uiso   1.00
C287   C     0.19425   0.56871   0.97971   0.00000  Uiso   1.00
C288   C     0.22468   0.49951   0.95035   0.00000  Uiso   1.00
C289   C     0.25421   0.40180   0.88693   0.00000  Uiso   1.00
C290   C     0.30787   0.51753   0.10662   0.00000  Uiso   1.00
C291   C     0.35878   0.60483   0.10982   0.00000  Uiso   1.00
C292   C     0.45276   0.62073   0.13032   0.00000  Uiso   1.00
C293   C     0.48603   0.70501   0.12967   0.00000  Uiso   1.00
C294   C     0.20750   0.52734   0.13369   0.00000  Uiso   1.00
C295   C     0.17427   0.47808   0.17426   0.00000  Uiso   1.00
C296   C     0.08017   0.49711   0.19371   0.00000  Uiso   1.00
C297   C     0.28330   0.50362   0.05060   0.00000  Uiso   1.00
C298   C     0.31378   0.43440   0.02131   0.00000  Uiso   1.00
C299   C     0.28347   0.43345   0.97081   0.00000  Uiso   1.00
H300   H     0.15415   0.69026   0.05312   0.00000  Uiso   1.00
H301   H     0.28780   0.80605   0.07291   0.00000  Uiso   1.00
H302   H     0.00935   0.66341   0.11684   0.00000  Uiso   1.00
H303   H     0.14884   0.61974   0.96392   0.00000  Uiso   1.00
H304   H     0.46184   0.90535   0.10387   0.00000  Uiso   1.00
H305   H     0.87469   0.60457   0.19649   0.00000  Uiso   1.00
H306   H     0.16883   0.51249   0.87402   0.00000  Uiso   1.00
H307   H     0.35356   0.46619   0.12253   0.00000  Uiso   1.00
H308   H     0.49815   0.56969   0.14612   0.00000  Uiso   1.00
H309   H     0.21970   0.42705   0.19005   0.00000  Uiso   1.00
H310   H     0.35919   0.38338   0.03713   0.00000  Uiso   1.00
H311   H     0.63257   0.71351   0.16330   0.00000  Uiso   1.00
H312   H     0.04541   0.41273   0.25592   0.00000  Uiso   1.00
H313   H     0.33956   0.32065   0.93345   0.00000  Uiso   1.00
O314   O     0.63871   0.88155   0.14787   0.00000  Uiso   1.00
O315   O     0.86838   0.48695   0.26937   0.00000  Uiso   1.00
O316   O     0.25429   0.36613   0.84630   0.00000  Uiso   1.00
N317   N     0.48218   0.84599   0.11461   0.00000  Uiso   1.00
N318   N     0.93324   0.56480   0.20121   0.00000  Uiso   1.00
N319   N     0.20821   0.47869   0.89973   0.00000  Uiso   1.00
N320   N     0.57405   0.74276   0.14659   0.00000  Uiso   1.00
N321   N     0.02511   0.46157   0.23318   0.00000  Uiso   1.00
N322   N     0.30008   0.37546   0.93171   0.00000  Uiso   1.00
C323   C     0.30016   0.36107   0.56902   0.00000  Uiso   1.00
C324   C     0.19989   0.32923   0.58939   0.00000  Uiso   1.00
C325   C     0.16676   0.24496   0.58872   0.00000  Uiso   1.00
C326   C     0.07276   0.22894   0.60921   0.00000  Uiso   1.00
C327   C     0.92602   0.16947   0.63776   0.00000  Uiso   1.00
C328   C     0.35118   0.40673   0.61327   0.00000  Uiso   1.00
C329   C     0.44526   0.38761   0.63266   0.00000  Uiso   1.00
C330   C     0.47861   0.43683   0.67325   0.00000  Uiso   1.00
C331   C     0.56678   0.49770   0.73884   0.00000  Uiso   1.00
C332   C     0.27538   0.43045   0.53018   0.00000  Uiso   1.00
C333   C     0.30575   0.43129   0.47971   0.00000  Uiso   1.00
C334   C     0.27532   0.50049   0.45035   0.00000  Uiso   1.00
C335   C     0.24579   0.59820   0.38693   0.00000  Uiso   1.00
C336   C     0.19213   0.48247   0.60662   0.00000  Uiso   1.00
C337   C     0.14122   0.39517   0.60982   0.00000  Uiso   1.00
C338   C     0.04724   0.37927   0.63032   0.00000  Uiso   1.00
C339   C     0.01397   0.29499   0.62967   0.00000  Uiso   1.00
C340   C     0.29250   0.47266   0.63369   0.00000  Uiso   1.00
C341   C     0.32573   0.52192   0.67426   0.00000  Uiso   1.00
C342   C     0.41983   0.50289   0.69371   0.00000  Uiso   1.00
C343   C     0.21670   0.49638   0.55060   0.00000  Uiso   1.00
C344   C     0.18622   0.56560   0.52131   0.00000  Uiso   1.00
C345   C     0.21653   0.56655   0.47081   0.00000  Uiso   1.00
H346   H     0.34585   0.30974   0.55312   0.00000  Uiso   1.00
H347   H     0.21220   0.19395   0.57291   0.00000  Uiso   1.00
H348   H     0.49065   0.33659   0.61684   0.00000  Uiso   1.00
H349   H     0.35116   0.38026   0.46392   0.00000  Uiso   1.00
H350   H     0.03816   0.09465   0.60387   0.00000  Uiso   1.00
H351   H     0.62531   0.39543   0.69649   0.00000  Uiso   1.00
H352   H     0.33117   0.48751   0.37402   0.00000  Uiso   1.00
H353   H     0.14644   0.53381   0.62253   0.00000  Uiso   1.00
H354   H     0.00185   0.43031   0.64612   0.00000  Uiso   1.00
H355   H     0.28030   0.57295   0.69005   0.00000  Uiso   1.00
H356   H     0.14081   0.61662   0.53713   0.00000  Uiso   1.00
H357   H     0.86743   0.28649   0.66330   0.00000  Uiso   1.00
H358   H     0.45459   0.58727   0.75592   0.00000  Uiso   1.00
H359   H     0.16044   0.67935   0.43345   0.00000  Uiso   1.00
O360   O     0.86129   0.11845   0.64787   0.00000  Uiso   1.00
O361   O     0.63162   0.51305   0.76937   0.00000  Uiso   1.00
O362   O     0.24571   0.63387   0.34630   0.00000  Uiso   1.00
N363   N     0.01782   0.15401   0.61461   0.00000  Uiso   1.00
N364   N     0.56676   0.43520   0.70121   0.00000  Uiso   1.00
N365   N     0.29179   0.52131   0.39973   0.00000  Uiso   1.00
N366   N     0.92595   0.25724   0.64659   0.00000  Uiso   1.00
N367   N     0.47489   0.53843   0.73318   0.00000  Uiso   1.00
N368   N     0.19992   0.62454   0.43171   0.00000  Uiso   1.00
