data_job_05549
_audit_creation_date              2018-12-19
_audit_creation_method            'Materials Studio'
_symmetry_space_group_name_H-M    'P1'
_symmetry_Int_Tables_number       1
_symmetry_cell_setting            triclinic
loop_
_symmetry_equiv_pos_as_xyz
  x,y,z
_cell_length_a                    36.0320
_cell_length_b                    36.0320
_cell_length_c                    7.1873
_cell_angle_alpha                 90.0000
_cell_angle_beta                  90.0000
_cell_angle_gamma                 120.0000
loop_
_atom_site_label
_atom_site_type_symbol
_atom_site_fract_x
_atom_site_fract_y
_atom_site_fract_z
_atom_site_U_iso_or_equiv
_atom_site_adp_type
_atom_site_occupancy
C1     C     0.21014   0.42661   0.39176   0.00000  Uiso   1.00
C2     C     0.16860   0.41089   0.28290   0.00000  Uiso   1.00
C3     C     0.12799   0.39419   0.35946   0.00000  Uiso   1.00
C4     C     0.09408   0.38160   0.23630   0.00000  Uiso   1.00
C5     C     0.02858   0.35657   0.09659   0.00000  Uiso   1.00
C6     C     0.23043   0.40114   0.31847   0.00000  Uiso   1.00
C7     C     0.24181   0.37625   0.42495   0.00000  Uiso   1.00
C8     C     0.25997   0.35546   0.33173   0.00000  Uiso   1.00
C9     C     0.29050   0.31532   0.24727   0.00000  Uiso   1.00
C10    C     0.23961   0.47283   0.33072   0.00000  Uiso   1.00
C11    C     0.25872   0.50822   0.44749   0.00000  Uiso   1.00
C12    C     0.28461   0.54778   0.36459   0.00000  Uiso   1.00
C13    C     0.32940   0.61895   0.29915   0.00000  Uiso   1.00
C14    C     0.22215   0.43396   0.03690   0.00000  Uiso   1.00
C15    C     0.17513   0.41488   0.09016   0.00000  Uiso   1.00
C16    C     0.14127   0.40232   0.96685   0.00000  Uiso   1.00
C17    C     0.10061   0.38560   0.04321   0.00000  Uiso   1.00
C18    C     0.23696   0.40514   0.12574   0.00000  Uiso   1.00
C19    C     0.25510   0.38438   0.03234   0.00000  Uiso   1.00
C20    C     0.26650   0.35946   0.13864   0.00000  Uiso   1.00
C21    C     0.24614   0.47683   0.13798   0.00000  Uiso   1.00
C22    C     0.27201   0.51635   0.05488   0.00000  Uiso   1.00
C23    C     0.29115   0.55178   0.17150   0.00000  Uiso   1.00
H24    H     0.20506   0.42350   0.54181   0.00000  Uiso   1.00
H25    H     0.12295   0.39110   0.50863   0.00000  Uiso   1.00
H26    H     0.23677   0.37317   0.57410   0.00000  Uiso   1.00
H27    H     0.25367   0.50511   0.59664   0.00000  Uiso   1.00
H28    H     0.03479   0.35692   0.38683   0.00000  Uiso   1.00
H29    H     0.27479   0.31913   0.52489   0.00000  Uiso   1.00
H30    H     0.31043   0.59736   0.57243   0.00000  Uiso   1.00
H31    H     0.22723   0.43707   0.88684   0.00000  Uiso   1.00
H32    H     0.14633   0.40541   0.81771   0.00000  Uiso   1.00
H33    H     0.26015   0.38748   0.88319   0.00000  Uiso   1.00
H34    H     0.27705   0.51942   0.90573   0.00000  Uiso   1.00
H35    H     0.05376   0.36854   0.82605   0.00000  Uiso   1.00
H36    H     0.29377   0.33074   0.96413   0.00000  Uiso   1.00
H37    H     0.32941   0.60897   0.01165   0.00000  Uiso   1.00
O38    O     0.99066   0.34165   0.07278   0.00000  Uiso   1.00
O39    O     0.30553   0.29206   0.25393   0.00000  Uiso   1.00
O40    O     0.35229   0.65709   0.31629   0.00000  Uiso   1.00
N41    N     0.05036   0.36401   0.26434   0.00000  Uiso   1.00
N42    N     0.27474   0.32866   0.39342   0.00000  Uiso   1.00
N43    N     0.30807   0.58879   0.43787   0.00000  Uiso   1.00
N44    N     0.06057   0.37026   0.96259   0.00000  Uiso   1.00
N45    N     0.28495   0.33491   0.09167   0.00000  Uiso   1.00
N46    N     0.31828   0.59503   0.13612   0.00000  Uiso   1.00
C47    C     0.57339   0.78353   0.05842   0.00000  Uiso   1.00
C48    C     0.58911   0.75771   0.94957   0.00000  Uiso   1.00
C49    C     0.60581   0.73380   0.02612   0.00000  Uiso   1.00
C50    C     0.61840   0.71248   0.90297   0.00000  Uiso   1.00
C51    C     0.64343   0.67202   0.76326   0.00000  Uiso   1.00
C52    C     0.59886   0.82929   0.98514   0.00000  Uiso   1.00
C53    C     0.62375   0.86556   0.09161   0.00000  Uiso   1.00
C54    C     0.64454   0.90451   0.99840   0.00000  Uiso   1.00
C55    C     0.68468   0.97518   0.91393   0.00000  Uiso   1.00
C56    C     0.52717   0.76678   0.99739   0.00000  Uiso   1.00
C57    C     0.49178   0.75051   0.11416   0.00000  Uiso   1.00
C58    C     0.45222   0.73683   0.03126   0.00000  Uiso   1.00
C59    C     0.38105   0.71045   0.96581   0.00000  Uiso   1.00
C60    C     0.56604   0.78819   0.70357   0.00000  Uiso   1.00
C61    C     0.58512   0.76024   0.75682   0.00000  Uiso   1.00
C62    C     0.59768   0.73895   0.63352   0.00000  Uiso   1.00
C63    C     0.61440   0.71501   0.70988   0.00000  Uiso   1.00
C64    C     0.59486   0.83182   0.79240   0.00000  Uiso   1.00
C65    C     0.61562   0.87072   0.69901   0.00000  Uiso   1.00
C66    C     0.64054   0.90704   0.80531   0.00000  Uiso   1.00
C67    C     0.52317   0.76931   0.80464   0.00000  Uiso   1.00
C68    C     0.48365   0.75566   0.72155   0.00000  Uiso   1.00
C69    C     0.44822   0.73937   0.83817   0.00000  Uiso   1.00
H70    H     0.57650   0.78156   0.20848   0.00000  Uiso   1.00
H71    H     0.60890   0.73185   0.17529   0.00000  Uiso   1.00
H72    H     0.62683   0.86359   0.24077   0.00000  Uiso   1.00
H73    H     0.49489   0.74855   0.26330   0.00000  Uiso   1.00
H74    H     0.64308   0.67786   0.05349   0.00000  Uiso   1.00
H75    H     0.68087   0.95566   0.19156   0.00000  Uiso   1.00
H76    H     0.40264   0.71307   0.23910   0.00000  Uiso   1.00
H77    H     0.56293   0.79016   0.55351   0.00000  Uiso   1.00
H78    H     0.59459   0.74092   0.48437   0.00000  Uiso   1.00
H79    H     0.61252   0.87267   0.54985   0.00000  Uiso   1.00
H80    H     0.48058   0.75763   0.57239   0.00000  Uiso   1.00
H81    H     0.63146   0.68523   0.49272   0.00000  Uiso   1.00
H82    H     0.66926   0.96303   0.63079   0.00000  Uiso   1.00
H83    H     0.39103   0.72044   0.67832   0.00000  Uiso   1.00
O84    O     0.65835   0.64901   0.73944   0.00000  Uiso   1.00
O85    O     0.70794   0.01347   0.92059   0.00000  Uiso   1.00
O86    O     0.34291   0.69520   0.98296   0.00000  Uiso   1.00
N87    N     0.63599   0.68635   0.93100   0.00000  Uiso   1.00
N88    N     0.67134   0.94607   0.06009   0.00000  Uiso   1.00
N89    N     0.41121   0.71928   0.10453   0.00000  Uiso   1.00
N90    N     0.62974   0.69031   0.62926   0.00000  Uiso   1.00
N91    N     0.66509   0.95003   0.75834   0.00000  Uiso   1.00
N92    N     0.40497   0.72325   0.80278   0.00000  Uiso   1.00
C93    C     0.21647   0.78986   0.72509   0.00000  Uiso   1.00
C94    C     0.24229   0.83140   0.61623   0.00000  Uiso   1.00
C95    C     0.26620   0.87201   0.69279   0.00000  Uiso   1.00
C96    C     0.28752   0.90592   0.56964   0.00000  Uiso   1.00
C97    C     0.32798   0.97142   0.42993   0.00000  Uiso   1.00
C98    C     0.17071   0.76957   0.65180   0.00000  Uiso   1.00
C99    C     0.13444   0.75819   0.75828   0.00000  Uiso   1.00
C100   C     0.09549   0.74003   0.66506   0.00000  Uiso   1.00
C101   C     0.02482   0.70950   0.58060   0.00000  Uiso   1.00
C102   C     0.23322   0.76039   0.66405   0.00000  Uiso   1.00
C103   C     0.24949   0.74128   0.78083   0.00000  Uiso   1.00
C104   C     0.26317   0.71539   0.69793   0.00000  Uiso   1.00
C105   C     0.28955   0.67060   0.63248   0.00000  Uiso   1.00
C106   C     0.21181   0.77785   0.37024   0.00000  Uiso   1.00
C107   C     0.23976   0.82487   0.42349   0.00000  Uiso   1.00
C108   C     0.26105   0.85873   0.30019   0.00000  Uiso   1.00
C109   C     0.28499   0.89939   0.37655   0.00000  Uiso   1.00
C110   C     0.16818   0.76304   0.45907   0.00000  Uiso   1.00
C111   C     0.12928   0.74490   0.36568   0.00000  Uiso   1.00
C112   C     0.09296   0.73350   0.47197   0.00000  Uiso   1.00
C113   C     0.23069   0.75386   0.47131   0.00000  Uiso   1.00
C114   C     0.24434   0.72799   0.38822   0.00000  Uiso   1.00
C115   C     0.26063   0.70885   0.50484   0.00000  Uiso   1.00
H116   H     0.21844   0.79494   0.87515   0.00000  Uiso   1.00
H117   H     0.26815   0.87705   0.84196   0.00000  Uiso   1.00
H118   H     0.13641   0.76323   0.90743   0.00000  Uiso   1.00
H119   H     0.25145   0.74633   0.92997   0.00000  Uiso   1.00
H120   H     0.32214   0.96521   0.72016   0.00000  Uiso   1.00
H121   H     0.04434   0.72521   0.85823   0.00000  Uiso   1.00
H122   H     0.28693   0.68957   0.90576   0.00000  Uiso   1.00
H123   H     0.20984   0.77277   0.22017   0.00000  Uiso   1.00
H124   H     0.25908   0.85367   0.15104   0.00000  Uiso   1.00
H125   H     0.12733   0.73985   0.21652   0.00000  Uiso   1.00
H126   H     0.24237   0.72295   0.23906   0.00000  Uiso   1.00
H127   H     0.31477   0.94624   0.15939   0.00000  Uiso   1.00
H128   H     0.03697   0.70623   0.29746   0.00000  Uiso   1.00
H129   H     0.27956   0.67059   0.34499   0.00000  Uiso   1.00
O130   O     0.35099   0.00934   0.40611   0.00000  Uiso   1.00
O131   O     0.98653   0.69447   0.58726   0.00000  Uiso   1.00
O132   O     0.30480   0.64771   0.64962   0.00000  Uiso   1.00
N133   N     0.31365   0.94964   0.59767   0.00000  Uiso   1.00
N134   N     0.05393   0.72526   0.72675   0.00000  Uiso   1.00
N135   N     0.28072   0.69193   0.77120   0.00000  Uiso   1.00
N136   N     0.30969   0.93943   0.29592   0.00000  Uiso   1.00
N137   N     0.04997   0.71505   0.42501   0.00000  Uiso   1.00
N138   N     0.27675   0.68172   0.46945   0.00000  Uiso   1.00
C139   C     0.42661   0.21014   0.60824   0.00000  Uiso   1.00
C140   C     0.41089   0.16860   0.71710   0.00000  Uiso   1.00
C141   C     0.39419   0.12799   0.64054   0.00000  Uiso   1.00
C142   C     0.38160   0.09408   0.76370   0.00000  Uiso   1.00
C143   C     0.35657   0.02858   0.90341   0.00000  Uiso   1.00
C144   C     0.40114   0.23043   0.68153   0.00000  Uiso   1.00
C145   C     0.37625   0.24181   0.57505   0.00000  Uiso   1.00
C146   C     0.35546   0.25997   0.66827   0.00000  Uiso   1.00
C147   C     0.31532   0.29050   0.75273   0.00000  Uiso   1.00
C148   C     0.47283   0.23961   0.66928   0.00000  Uiso   1.00
C149   C     0.50822   0.25872   0.55251   0.00000  Uiso   1.00
C150   C     0.54778   0.28461   0.63541   0.00000  Uiso   1.00
C151   C     0.61895   0.32940   0.70085   0.00000  Uiso   1.00
C152   C     0.43396   0.22215   0.96310   0.00000  Uiso   1.00
C153   C     0.41488   0.17513   0.90984   0.00000  Uiso   1.00
C154   C     0.40232   0.14127   0.03315   0.00000  Uiso   1.00
C155   C     0.38560   0.10061   0.95679   0.00000  Uiso   1.00
C156   C     0.40514   0.23696   0.87426   0.00000  Uiso   1.00
C157   C     0.38438   0.25510   0.96766   0.00000  Uiso   1.00
C158   C     0.35946   0.26650   0.86136   0.00000  Uiso   1.00
C159   C     0.47683   0.24614   0.86202   0.00000  Uiso   1.00
C160   C     0.51635   0.27201   0.94512   0.00000  Uiso   1.00
C161   C     0.55178   0.29115   0.82850   0.00000  Uiso   1.00
H162   H     0.42350   0.20506   0.45819   0.00000  Uiso   1.00
H163   H     0.39110   0.12295   0.49137   0.00000  Uiso   1.00
H164   H     0.37317   0.23677   0.42590   0.00000  Uiso   1.00
H165   H     0.50511   0.25367   0.40336   0.00000  Uiso   1.00
H166   H     0.35692   0.03479   0.61317   0.00000  Uiso   1.00
H167   H     0.31913   0.27479   0.47511   0.00000  Uiso   1.00
H168   H     0.59736   0.31043   0.42757   0.00000  Uiso   1.00
H169   H     0.43707   0.22723   0.11316   0.00000  Uiso   1.00
H170   H     0.40541   0.14633   0.18229   0.00000  Uiso   1.00
H171   H     0.38748   0.26015   0.11681   0.00000  Uiso   1.00
H172   H     0.51942   0.27705   0.09427   0.00000  Uiso   1.00
H173   H     0.36854   0.05376   0.17395   0.00000  Uiso   1.00
H174   H     0.33074   0.29377   0.03587   0.00000  Uiso   1.00
H175   H     0.60897   0.32941   0.98835   0.00000  Uiso   1.00
O176   O     0.34165   0.99066   0.92722   0.00000  Uiso   1.00
O177   O     0.29206   0.30553   0.74607   0.00000  Uiso   1.00
O178   O     0.65709   0.35229   0.68371   0.00000  Uiso   1.00
N179   N     0.36401   0.05036   0.73566   0.00000  Uiso   1.00
N180   N     0.32866   0.27474   0.60658   0.00000  Uiso   1.00
N181   N     0.58879   0.30807   0.56213   0.00000  Uiso   1.00
N182   N     0.37026   0.06057   0.03741   0.00000  Uiso   1.00
N183   N     0.33491   0.28495   0.90833   0.00000  Uiso   1.00
N184   N     0.59503   0.31828   0.86388   0.00000  Uiso   1.00
C185   C     0.78353   0.57339   0.94158   0.00000  Uiso   1.00
C186   C     0.75771   0.58911   0.05043   0.00000  Uiso   1.00
C187   C     0.73380   0.60581   0.97388   0.00000  Uiso   1.00
C188   C     0.71248   0.61840   0.09703   0.00000  Uiso   1.00
C189   C     0.67202   0.64343   0.23674   0.00000  Uiso   1.00
C190   C     0.82929   0.59886   0.01486   0.00000  Uiso   1.00
C191   C     0.86556   0.62375   0.90839   0.00000  Uiso   1.00
C192   C     0.90451   0.64454   0.00160   0.00000  Uiso   1.00
C193   C     0.97518   0.68468   0.08607   0.00000  Uiso   1.00
C194   C     0.76678   0.52717   0.00261   0.00000  Uiso   1.00
C195   C     0.75051   0.49178   0.88584   0.00000  Uiso   1.00
C196   C     0.73683   0.45222   0.96874   0.00000  Uiso   1.00
C197   C     0.71045   0.38105   0.03419   0.00000  Uiso   1.00
C198   C     0.78819   0.56604   0.29643   0.00000  Uiso   1.00
C199   C     0.76024   0.58512   0.24318   0.00000  Uiso   1.00
C200   C     0.73895   0.59768   0.36648   0.00000  Uiso   1.00
C201   C     0.71501   0.61440   0.29012   0.00000  Uiso   1.00
C202   C     0.83182   0.59486   0.20760   0.00000  Uiso   1.00
C203   C     0.87072   0.61562   0.30099   0.00000  Uiso   1.00
C204   C     0.90704   0.64054   0.19469   0.00000  Uiso   1.00
C205   C     0.76931   0.52317   0.19536   0.00000  Uiso   1.00
C206   C     0.75566   0.48365   0.27845   0.00000  Uiso   1.00
C207   C     0.73937   0.44822   0.16183   0.00000  Uiso   1.00
H208   H     0.78156   0.57650   0.79152   0.00000  Uiso   1.00
H209   H     0.73185   0.60890   0.82471   0.00000  Uiso   1.00
H210   H     0.86359   0.62683   0.75923   0.00000  Uiso   1.00
H211   H     0.74855   0.49489   0.73670   0.00000  Uiso   1.00
H212   H     0.67786   0.64308   0.94651   0.00000  Uiso   1.00
H213   H     0.95566   0.68087   0.80844   0.00000  Uiso   1.00
H214   H     0.71307   0.40264   0.76090   0.00000  Uiso   1.00
H215   H     0.79016   0.56293   0.44649   0.00000  Uiso   1.00
H216   H     0.74092   0.59459   0.51563   0.00000  Uiso   1.00
H217   H     0.87267   0.61252   0.45015   0.00000  Uiso   1.00
H218   H     0.75763   0.48058   0.42761   0.00000  Uiso   1.00
H219   H     0.68523   0.63146   0.50728   0.00000  Uiso   1.00
H220   H     0.96303   0.66926   0.36921   0.00000  Uiso   1.00
H221   H     0.72044   0.39103   0.32168   0.00000  Uiso   1.00
O222   O     0.64901   0.65835   0.26056   0.00000  Uiso   1.00
O223   O     0.01347   0.70794   0.07941   0.00000  Uiso   1.00
O224   O     0.69520   0.34291   0.01704   0.00000  Uiso   1.00
N225   N     0.68635   0.63599   0.06900   0.00000  Uiso   1.00
N226   N     0.94607   0.67134   0.93991   0.00000  Uiso   1.00
N227   N     0.71928   0.41121   0.89547   0.00000  Uiso   1.00
N228   N     0.69031   0.62974   0.37074   0.00000  Uiso   1.00
N229   N     0.95003   0.66509   0.24166   0.00000  Uiso   1.00
N230   N     0.72325   0.40497   0.19722   0.00000  Uiso   1.00
C231   C     0.78986   0.21647   0.27491   0.00000  Uiso   1.00
C232   C     0.83140   0.24229   0.38377   0.00000  Uiso   1.00
C233   C     0.87201   0.26620   0.30721   0.00000  Uiso   1.00
C234   C     0.90592   0.28752   0.43036   0.00000  Uiso   1.00
C235   C     0.97142   0.32798   0.57007   0.00000  Uiso   1.00
C236   C     0.76957   0.17071   0.34820   0.00000  Uiso   1.00
C237   C     0.75819   0.13444   0.24172   0.00000  Uiso   1.00
C238   C     0.74003   0.09549   0.33494   0.00000  Uiso   1.00
C239   C     0.70950   0.02482   0.41940   0.00000  Uiso   1.00
C240   C     0.76039   0.23322   0.33595   0.00000  Uiso   1.00
C241   C     0.74128   0.24949   0.21917   0.00000  Uiso   1.00
C242   C     0.71539   0.26317   0.30207   0.00000  Uiso   1.00
C243   C     0.67060   0.28955   0.36752   0.00000  Uiso   1.00
C244   C     0.77785   0.21181   0.62976   0.00000  Uiso   1.00
C245   C     0.82487   0.23976   0.57651   0.00000  Uiso   1.00
C246   C     0.85873   0.26105   0.69981   0.00000  Uiso   1.00
C247   C     0.89939   0.28499   0.62345   0.00000  Uiso   1.00
C248   C     0.76304   0.16818   0.54093   0.00000  Uiso   1.00
C249   C     0.74490   0.12928   0.63432   0.00000  Uiso   1.00
C250   C     0.73350   0.09296   0.52803   0.00000  Uiso   1.00
C251   C     0.75386   0.23069   0.52869   0.00000  Uiso   1.00
C252   C     0.72799   0.24434   0.61178   0.00000  Uiso   1.00
C253   C     0.70885   0.26063   0.49516   0.00000  Uiso   1.00
H254   H     0.79494   0.21844   0.12485   0.00000  Uiso   1.00
H255   H     0.87705   0.26815   0.15804   0.00000  Uiso   1.00
H256   H     0.76323   0.13641   0.09257   0.00000  Uiso   1.00
H257   H     0.74633   0.25145   0.07003   0.00000  Uiso   1.00
H258   H     0.96521   0.32214   0.27984   0.00000  Uiso   1.00
H259   H     0.72521   0.04434   0.14177   0.00000  Uiso   1.00
H260   H     0.68957   0.28693   0.09424   0.00000  Uiso   1.00
H261   H     0.77277   0.20984   0.77983   0.00000  Uiso   1.00
H262   H     0.85367   0.25908   0.84896   0.00000  Uiso   1.00
H263   H     0.73985   0.12733   0.78348   0.00000  Uiso   1.00
H264   H     0.72295   0.24237   0.76094   0.00000  Uiso   1.00
H265   H     0.94624   0.31477   0.84061   0.00000  Uiso   1.00
H266   H     0.70623   0.03697   0.70254   0.00000  Uiso   1.00
H267   H     0.67059   0.27956   0.65501   0.00000  Uiso   1.00
O268   O     0.00934   0.35099   0.59389   0.00000  Uiso   1.00
O269   O     0.69447   0.98653   0.41274   0.00000  Uiso   1.00
O270   O     0.64771   0.30480   0.35038   0.00000  Uiso   1.00
N271   N     0.94964   0.31365   0.40233   0.00000  Uiso   1.00
N272   N     0.72526   0.05393   0.27325   0.00000  Uiso   1.00
N273   N     0.69193   0.28072   0.22880   0.00000  Uiso   1.00
N274   N     0.93943   0.30969   0.70408   0.00000  Uiso   1.00
N275   N     0.71505   0.04997   0.57499   0.00000  Uiso   1.00
N276   N     0.68172   0.27675   0.53055   0.00000  Uiso   1.00
