data_job_06131
_audit_creation_date              2018-12-19
_audit_creation_method            'Materials Studio'
_symmetry_space_group_name_H-M    'P1'
_symmetry_Int_Tables_number       1
_symmetry_cell_setting            triclinic
loop_
_symmetry_equiv_pos_as_xyz
  x,y,z
_cell_length_a                    12.5111
_cell_length_b                    18.7802
_cell_length_c                    19.2924
_cell_angle_alpha                 115.3730
_cell_angle_beta                  76.1418
_cell_angle_gamma                 80.5301
loop_
_atom_site_label
_atom_site_type_symbol
_atom_site_fract_x
_atom_site_fract_y
_atom_site_fract_z
_atom_site_U_iso_or_equiv
_atom_site_adp_type
_atom_site_occupancy
C1     C     0.84010   0.22146   0.81426   0.00000  Uiso   1.00
C2     C     0.86012   0.26223   0.76087   0.00000  Uiso   1.00
C3     C     0.88530   0.22344   0.67683   0.00000  Uiso   1.00
C4     C     0.90061   0.27145   0.63922   0.00000  Uiso   1.00
C5     C     0.93320   0.32200   0.54948   0.00000  Uiso   1.00
C6     C     0.92694   0.23537   0.85855   0.00000  Uiso   1.00
C7     C     0.00829   0.17398   0.85665   0.00000  Uiso   1.00
C8     C     0.07984   0.19939   0.90127   0.00000  Uiso   1.00
C9     C     0.21612   0.20824   0.96323   0.00000  Uiso   1.00
C10    C     0.72120   0.27251   0.87999   0.00000  Uiso   1.00
C11    C     0.62956   0.24234   0.89614   0.00000  Uiso   1.00
C12    C     0.52789   0.29902   0.95883   0.00000  Uiso   1.00
C13    C     0.34472   0.36552   0.05408   0.00000  Uiso   1.00
C14    C     0.82250   0.37574   0.89689   0.00000  Uiso   1.00
C15    C     0.85056   0.34603   0.80575   0.00000  Uiso   1.00
C16    C     0.86583   0.39412   0.76826   0.00000  Uiso   1.00
C17    C     0.89103   0.35540   0.68418   0.00000  Uiso   1.00
C18    C     0.91738   0.31916   0.90343   0.00000  Uiso   1.00
C19    C     0.98882   0.34467   0.94807   0.00000  Uiso   1.00
C20    C     0.07027   0.28334   0.94624   0.00000  Uiso   1.00
C21    C     0.71163   0.35630   0.92487   0.00000  Uiso   1.00
C22    C     0.61009   0.41303   0.98756   0.00000  Uiso   1.00
C23    C     0.51832   0.38296   0.00380   0.00000  Uiso   1.00
H24    H     0.84754   0.15623   0.77932   0.00000  Uiso   1.00
H25    H     0.89270   0.15858   0.64212   0.00000  Uiso   1.00
H26    H     0.01566   0.10915   0.82192   0.00000  Uiso   1.00
H27    H     0.63699   0.17749   0.86139   0.00000  Uiso   1.00
H28    H     0.93859   0.19815   0.50980   0.00000  Uiso   1.00
H29    H     0.19783   0.09390   0.88893   0.00000  Uiso   1.00
H30    H     0.39933   0.23803   0.97218   0.00000  Uiso   1.00
H31    H     0.81506   0.44098   0.93184   0.00000  Uiso   1.00
H32    H     0.85843   0.45896   0.80301   0.00000  Uiso   1.00
H33    H     0.98139   0.40952   0.98280   0.00000  Uiso   1.00
H34    H     0.60272   0.47787   0.02228   0.00000  Uiso   1.00
H35    H     0.91078   0.44194   0.64038   0.00000  Uiso   1.00
H36    H     0.17002   0.33770   0.01951   0.00000  Uiso   1.00
H37    H     0.37152   0.48183   0.10276   0.00000  Uiso   1.00
O38    O     0.95383   0.32673   0.48758   0.00000  Uiso   1.00
O39    O     0.29394   0.18997   0.98500   0.00000  Uiso   1.00
O40    O     0.24633   0.37906   0.09422   0.00000  Uiso   1.00
N41    N     0.92606   0.25306   0.55821   0.00000  Uiso   1.00
N42    N     0.16846   0.15559   0.91267   0.00000  Uiso   1.00
N43    N     0.42194   0.29034   0.99051   0.00000  Uiso   1.00
N44    N     0.91110   0.38425   0.62848   0.00000  Uiso   1.00
N45    N     0.15349   0.28678   0.98293   0.00000  Uiso   1.00
N46    N     0.40697   0.42152   0.06078   0.00000  Uiso   1.00
C47    C     0.66329   0.19305   0.40376   0.00000  Uiso   1.00
C48    C     0.62874   0.24636   0.49615   0.00000  Uiso   1.00
C49    C     0.57238   0.33084   0.54112   0.00000  Uiso   1.00
C50    C     0.54844   0.36829   0.62503   0.00000  Uiso   1.00
C51    C     0.49007   0.45800   0.76278   0.00000  Uiso   1.00
C52    C     0.79326   0.15121   0.37179   0.00000  Uiso   1.00
C53    C     0.87520   0.15568   0.31220   0.00000  Uiso   1.00
C54    C     0.98975   0.11303   0.29142   0.00000  Uiso   1.00
C55    C     0.18679   0.05496   0.23605   0.00000  Uiso   1.00
C56    C     0.60743   0.12421   0.39065   0.00000  Uiso   1.00
C57    C     0.53316   0.10595   0.34690   0.00000  Uiso   1.00
C58    C     0.49127   0.04055   0.34198   0.00000  Uiso   1.00
C59    C     0.39979   0.94057   0.31590   0.00000  Uiso   1.00
C60    C     0.72100   0.10936   0.47280   0.00000  Uiso   1.00
C61    C     0.66010   0.20090   0.53365   0.00000  Uiso   1.00
C62    C     0.63623   0.23824   0.61752   0.00000  Uiso   1.00
C63    C     0.57983   0.32275   0.66261   0.00000  Uiso   1.00
C64    C     0.82461   0.10576   0.40929   0.00000  Uiso   1.00
C65    C     0.93905   0.06309   0.38859   0.00000  Uiso   1.00
C66    C     0.02115   0.06749   0.32899   0.00000  Uiso   1.00
C67    C     0.63878   0.07876   0.42816   0.00000  Uiso   1.00
C68    C     0.59701   0.01337   0.42330   0.00000  Uiso   1.00
C69    C     0.52268   0.99502   0.37955   0.00000  Uiso   1.00
H70    H     0.63890   0.22844   0.37456   0.00000  Uiso   1.00
H71    H     0.54814   0.36599   0.51208   0.00000  Uiso   1.00
H72    H     0.85092   0.19085   0.28318   0.00000  Uiso   1.00
H73    H     0.50893   0.14114   0.31789   0.00000  Uiso   1.00
H74    H     0.46139   0.49846   0.68107   0.00000  Uiso   1.00
H75    H     0.09980   0.12915   0.19842   0.00000  Uiso   1.00
H76    H     0.37864   0.02432   0.27159   0.00000  Uiso   1.00
H77    H     0.74541   0.07396   0.50200   0.00000  Uiso   1.00
H78    H     0.66050   0.20305   0.64652   0.00000  Uiso   1.00
H79    H     0.96328   0.02791   0.41762   0.00000  Uiso   1.00
H80    H     0.62128   0.97820   0.45233   0.00000  Uiso   1.00
H81    H     0.55258   0.36621   0.79019   0.00000  Uiso   1.00
H82    H     0.19100   0.99689   0.30753   0.00000  Uiso   1.00
H83    H     0.46984   0.89207   0.38071   0.00000  Uiso   1.00
O84    O     0.44924   0.52004   0.82840   0.00000  Uiso   1.00
O85    O     0.28681   0.03551   0.19516   0.00000  Uiso   1.00
O86    O     0.34066   0.89798   0.29117   0.00000  Uiso   1.00
N87    N     0.49448   0.44962   0.68693   0.00000  Uiso   1.00
N88    N     0.09137   0.10434   0.23568   0.00000  Uiso   1.00
N89    N     0.41717   0.00633   0.30407   0.00000  Uiso   1.00
N90    N     0.54355   0.37845   0.74564   0.00000  Uiso   1.00
N91    N     0.14044   0.03318   0.29440   0.00000  Uiso   1.00
N92    N     0.46624   0.93516   0.36279   0.00000  Uiso   1.00
C93    C     0.05626   0.59656   0.78305   0.00000  Uiso   1.00
C94    C     0.11094   0.50344   0.74415   0.00000  Uiso   1.00
C95    C     0.09559   0.45665   0.78310   0.00000  Uiso   1.00
C96    C     0.15313   0.37235   0.73692   0.00000  Uiso   1.00
C97    C     0.22738   0.23325   0.68902   0.00000  Uiso   1.00
C98    C     0.15619   0.63206   0.77146   0.00000  Uiso   1.00
C99    C     0.17888   0.69343   0.83338   0.00000  Uiso   1.00
C100   C     0.27450   0.71741   0.81019   0.00000  Uiso   1.00
C101   C     0.41895   0.77805   0.80469   0.00000  Uiso   1.00
C102   C     0.99040   0.60860   0.72987   0.00000  Uiso   1.00
C103   C     0.87370   0.65027   0.75682   0.00000  Uiso   1.00
C104   C     0.82974   0.65451   0.69862   0.00000  Uiso   1.00
C105   C     0.71677   0.67872   0.62855   0.00000  Uiso   1.00
C106   C     0.18573   0.53004   0.63176   0.00000  Uiso   1.00
C107   C     0.18126   0.46731   0.66197   0.00000  Uiso   1.00
C108   C     0.23883   0.38305   0.61572   0.00000  Uiso   1.00
C109   C     0.22358   0.33614   0.65459   0.00000  Uiso   1.00
C110   C     0.22651   0.59593   0.68929   0.00000  Uiso   1.00
C111   C     0.32212   0.61983   0.66600   0.00000  Uiso   1.00
C112   C     0.34495   0.68121   0.72787   0.00000  Uiso   1.00
C113   C     0.06072   0.57247   0.64770   0.00000  Uiso   1.00
C114   C     0.01694   0.57666   0.58944   0.00000  Uiso   1.00
C115   C     0.90019   0.61831   0.61630   0.00000  Uiso   1.00
H116   H     0.00152   0.62470   0.84703   0.00000  Uiso   1.00
H117   H     0.04118   0.48464   0.84670   0.00000  Uiso   1.00
H118   H     0.12444   0.72139   0.89697   0.00000  Uiso   1.00
H119   H     0.81931   0.67822   0.82042   0.00000  Uiso   1.00
H120   H     0.11619   0.31343   0.81010   0.00000  Uiso   1.00
H121   H     0.29173   0.81265   0.91610   0.00000  Uiso   1.00
H122   H     0.64829   0.72162   0.75468   0.00000  Uiso   1.00
H123   H     0.24048   0.50191   0.56778   0.00000  Uiso   1.00
H124   H     0.29325   0.35510   0.55213   0.00000  Uiso   1.00
H125   H     0.37651   0.59186   0.60240   0.00000  Uiso   1.00
H126   H     0.07138   0.54869   0.52585   0.00000  Uiso   1.00
H127   H     0.32078   0.20829   0.57101   0.00000  Uiso   1.00
H128   H     0.49632   0.70751   0.67702   0.00000  Uiso   1.00
H129   H     0.85289   0.61649   0.51560   0.00000  Uiso   1.00
O130   O     0.24891   0.16650   0.68530   0.00000  Uiso   1.00
O131   O     0.47920   0.82148   0.82437   0.00000  Uiso   1.00
O132   O     0.63503   0.70205   0.61260   0.00000  Uiso   1.00
N133   N     0.15708   0.30883   0.75597   0.00000  Uiso   1.00
N134   N     0.32121   0.77556   0.85508   0.00000  Uiso   1.00
N135   N     0.71966   0.69048   0.70417   0.00000  Uiso   1.00
N136   N     0.26717   0.25225   0.62732   0.00000  Uiso   1.00
N137   N     0.43130   0.71898   0.72643   0.00000  Uiso   1.00
N138   N     0.82975   0.63391   0.57552   0.00000  Uiso   1.00
C139   C     0.15990   0.77854   0.18574   0.00000  Uiso   1.00
C140   C     0.13988   0.73777   0.23913   0.00000  Uiso   1.00
C141   C     0.11470   0.77656   0.32317   0.00000  Uiso   1.00
C142   C     0.09939   0.72855   0.36078   0.00000  Uiso   1.00
C143   C     0.06680   0.67800   0.45052   0.00000  Uiso   1.00
C144   C     0.07306   0.76463   0.14146   0.00000  Uiso   1.00
C145   C     0.99171   0.82602   0.14335   0.00000  Uiso   1.00
C146   C     0.92016   0.80061   0.09873   0.00000  Uiso   1.00
C147   C     0.78388   0.79176   0.03677   0.00000  Uiso   1.00
C148   C     0.27881   0.72750   0.12001   0.00000  Uiso   1.00
C149   C     0.37044   0.75766   0.10386   0.00000  Uiso   1.00
C150   C     0.47211   0.70098   0.04117   0.00000  Uiso   1.00
C151   C     0.65528   0.63448   0.94592   0.00000  Uiso   1.00
C152   C     0.17750   0.62426   0.10311   0.00000  Uiso   1.00
C153   C     0.14944   0.65397   0.19425   0.00000  Uiso   1.00
C154   C     0.13417   0.60588   0.23174   0.00000  Uiso   1.00
C155   C     0.10897   0.64460   0.31582   0.00000  Uiso   1.00
C156   C     0.08262   0.68084   0.09657   0.00000  Uiso   1.00
C157   C     0.01118   0.65533   0.05193   0.00000  Uiso   1.00
C158   C     0.92973   0.71666   0.05376   0.00000  Uiso   1.00
C159   C     0.28837   0.64370   0.07513   0.00000  Uiso   1.00
C160   C     0.38991   0.58697   0.01244   0.00000  Uiso   1.00
C161   C     0.48168   0.61704   0.99620   0.00000  Uiso   1.00
H162   H     0.15246   0.84377   0.22068   0.00000  Uiso   1.00
H163   H     0.10730   0.84142   0.35788   0.00000  Uiso   1.00
H164   H     0.98434   0.89085   0.17808   0.00000  Uiso   1.00
H165   H     0.36301   0.82251   0.13861   0.00000  Uiso   1.00
H166   H     0.06141   0.80185   0.49020   0.00000  Uiso   1.00
H167   H     0.80217   0.90610   0.11107   0.00000  Uiso   1.00
H168   H     0.60067   0.76197   0.02782   0.00000  Uiso   1.00
H169   H     0.18494   0.55902   0.06816   0.00000  Uiso   1.00
H170   H     0.14157   0.54104   0.19699   0.00000  Uiso   1.00
H171   H     0.01861   0.59048   0.01720   0.00000  Uiso   1.00
H172   H     0.39728   0.52213   0.97772   0.00000  Uiso   1.00
H173   H     0.08922   0.55806   0.35962   0.00000  Uiso   1.00
H174   H     0.82998   0.66230   0.98049   0.00000  Uiso   1.00
H175   H     0.62848   0.51818   0.89724   0.00000  Uiso   1.00
O176   O     0.04617   0.67327   0.51242   0.00000  Uiso   1.00
O177   O     0.70606   0.81003   0.01500   0.00000  Uiso   1.00
O178   O     0.75367   0.62094   0.90578   0.00000  Uiso   1.00
N179   N     0.07394   0.74694   0.44179   0.00000  Uiso   1.00
N180   N     0.83154   0.84441   0.08733   0.00000  Uiso   1.00
N181   N     0.57806   0.70966   0.00949   0.00000  Uiso   1.00
N182   N     0.08890   0.61575   0.37152   0.00000  Uiso   1.00
N183   N     0.84651   0.71322   0.01707   0.00000  Uiso   1.00
N184   N     0.59303   0.57848   0.93922   0.00000  Uiso   1.00
C185   C     0.33671   0.80695   0.59624   0.00000  Uiso   1.00
C186   C     0.37126   0.75364   0.50385   0.00000  Uiso   1.00
C187   C     0.42762   0.66917   0.45888   0.00000  Uiso   1.00
C188   C     0.45157   0.63171   0.37497   0.00000  Uiso   1.00
C189   C     0.50993   0.54200   0.23722   0.00000  Uiso   1.00
C190   C     0.20674   0.84879   0.62821   0.00000  Uiso   1.00
C191   C     0.12480   0.84432   0.68780   0.00000  Uiso   1.00
C192   C     0.01025   0.88697   0.70858   0.00000  Uiso   1.00
C193   C     0.81321   0.94504   0.76395   0.00000  Uiso   1.00
C194   C     0.39257   0.87579   0.60935   0.00000  Uiso   1.00
C195   C     0.46684   0.89405   0.65310   0.00000  Uiso   1.00
C196   C     0.50873   0.95945   0.65802   0.00000  Uiso   1.00
C197   C     0.60021   0.05943   0.68410   0.00000  Uiso   1.00
C198   C     0.27900   0.89064   0.52720   0.00000  Uiso   1.00
C199   C     0.33991   0.79910   0.46635   0.00000  Uiso   1.00
C200   C     0.36377   0.76176   0.38249   0.00000  Uiso   1.00
C201   C     0.42017   0.67725   0.33739   0.00000  Uiso   1.00
C202   C     0.17539   0.89424   0.59071   0.00000  Uiso   1.00
C203   C     0.06095   0.93692   0.61141   0.00000  Uiso   1.00
C204   C     0.97885   0.93251   0.67101   0.00000  Uiso   1.00
C205   C     0.36122   0.92124   0.57184   0.00000  Uiso   1.00
C206   C     0.40299   0.98664   0.57670   0.00000  Uiso   1.00
C207   C     0.47732   0.00498   0.62045   0.00000  Uiso   1.00
H208   H     0.36110   0.77157   0.62544   0.00000  Uiso   1.00
H209   H     0.45186   0.63401   0.48792   0.00000  Uiso   1.00
H210   H     0.14908   0.80915   0.71682   0.00000  Uiso   1.00
H211   H     0.49107   0.85886   0.68211   0.00000  Uiso   1.00
H212   H     0.53861   0.50154   0.31893   0.00000  Uiso   1.00
H213   H     0.90020   0.87085   0.80158   0.00000  Uiso   1.00
H214   H     0.62136   0.97568   0.72841   0.00000  Uiso   1.00
H215   H     0.25459   0.92604   0.49800   0.00000  Uiso   1.00
H216   H     0.33951   0.79695   0.35348   0.00000  Uiso   1.00
H217   H     0.03672   0.97209   0.58238   0.00000  Uiso   1.00
H218   H     0.37872   0.02180   0.54767   0.00000  Uiso   1.00
H219   H     0.44742   0.63379   0.20981   0.00000  Uiso   1.00
H220   H     0.80900   0.00311   0.69247   0.00000  Uiso   1.00
H221   H     0.53016   0.10793   0.61929   0.00000  Uiso   1.00
O222   O     0.55076   0.47996   0.17160   0.00000  Uiso   1.00
O223   O     0.71319   0.96449   0.80484   0.00000  Uiso   1.00
O224   O     0.65934   0.10202   0.70883   0.00000  Uiso   1.00
N225   N     0.50552   0.55038   0.31307   0.00000  Uiso   1.00
N226   N     0.90863   0.89566   0.76432   0.00000  Uiso   1.00
N227   N     0.58283   0.99367   0.69593   0.00000  Uiso   1.00
N228   N     0.45645   0.62155   0.25436   0.00000  Uiso   1.00
N229   N     0.85956   0.96682   0.70560   0.00000  Uiso   1.00
N230   N     0.53376   0.06484   0.63721   0.00000  Uiso   1.00
C231   C     0.94374   0.40344   0.21695   0.00000  Uiso   1.00
C232   C     0.88906   0.49656   0.25585   0.00000  Uiso   1.00
C233   C     0.90441   0.54335   0.21690   0.00000  Uiso   1.00
C234   C     0.84687   0.62765   0.26308   0.00000  Uiso   1.00
C235   C     0.77263   0.76675   0.31098   0.00000  Uiso   1.00
C236   C     0.84381   0.36794   0.22854   0.00000  Uiso   1.00
C237   C     0.82112   0.30657   0.16662   0.00000  Uiso   1.00
C238   C     0.72550   0.28259   0.18981   0.00000  Uiso   1.00
C239   C     0.58105   0.22195   0.19531   0.00000  Uiso   1.00
C240   C     0.00960   0.39140   0.27013   0.00000  Uiso   1.00
C241   C     0.12630   0.34973   0.24318   0.00000  Uiso   1.00
C242   C     0.17026   0.34549   0.30138   0.00000  Uiso   1.00
C243   C     0.28323   0.32128   0.37145   0.00000  Uiso   1.00
C244   C     0.81427   0.46996   0.36824   0.00000  Uiso   1.00
C245   C     0.81874   0.53269   0.33803   0.00000  Uiso   1.00
C246   C     0.76117   0.61695   0.38428   0.00000  Uiso   1.00
C247   C     0.77642   0.66386   0.34541   0.00000  Uiso   1.00
C248   C     0.77349   0.40407   0.31071   0.00000  Uiso   1.00
C249   C     0.67788   0.38017   0.33400   0.00000  Uiso   1.00
C250   C     0.65505   0.31879   0.27213   0.00000  Uiso   1.00
C251   C     0.93928   0.42753   0.35230   0.00000  Uiso   1.00
C252   C     0.98306   0.42334   0.41056   0.00000  Uiso   1.00
C253   C     0.09981   0.38169   0.38370   0.00000  Uiso   1.00
H254   H     0.99848   0.37530   0.15297   0.00000  Uiso   1.00
H255   H     0.95882   0.51536   0.15330   0.00000  Uiso   1.00
H256   H     0.87556   0.27861   0.10303   0.00000  Uiso   1.00
H257   H     0.18069   0.32178   0.17958   0.00000  Uiso   1.00
H258   H     0.88382   0.68657   0.18990   0.00000  Uiso   1.00
H259   H     0.70827   0.18735   0.08390   0.00000  Uiso   1.00
H260   H     0.35171   0.27838   0.24532   0.00000  Uiso   1.00
H261   H     0.75952   0.49809   0.43222   0.00000  Uiso   1.00
H262   H     0.70675   0.64490   0.44787   0.00000  Uiso   1.00
H263   H     0.62349   0.40814   0.39760   0.00000  Uiso   1.00
H264   H     0.92862   0.45131   0.47415   0.00000  Uiso   1.00
H265   H     0.67922   0.79171   0.42899   0.00000  Uiso   1.00
H266   H     0.50368   0.29249   0.32298   0.00000  Uiso   1.00
H267   H     0.14711   0.38351   0.48440   0.00000  Uiso   1.00
O268   O     0.75109   0.83350   0.31470   0.00000  Uiso   1.00
O269   O     0.52080   0.17853   0.17563   0.00000  Uiso   1.00
O270   O     0.36497   0.29795   0.38740   0.00000  Uiso   1.00
N271   N     0.84292   0.69117   0.24403   0.00000  Uiso   1.00
N272   N     0.67879   0.22444   0.14492   0.00000  Uiso   1.00
N273   N     0.28034   0.30952   0.29583   0.00000  Uiso   1.00
N274   N     0.73283   0.74775   0.37268   0.00000  Uiso   1.00
N275   N     0.56870   0.28102   0.27357   0.00000  Uiso   1.00
N276   N     0.17025   0.36609   0.42448   0.00000  Uiso   1.00
