data_job_03884
_audit_creation_date              2018-12-19
_audit_creation_method            'Materials Studio'
_symmetry_space_group_name_H-M    'P1'
_symmetry_Int_Tables_number       1
_symmetry_cell_setting            triclinic
loop_
_symmetry_equiv_pos_as_xyz
  x,y,z
_cell_length_a                    36.8210
_cell_length_b                    23.4893
_cell_length_c                    10.5555
_cell_angle_alpha                 90.0000
_cell_angle_beta                  90.0000
_cell_angle_gamma                 90.0000
loop_
_atom_site_label
_atom_site_type_symbol
_atom_site_fract_x
_atom_site_fract_y
_atom_site_fract_z
_atom_site_U_iso_or_equiv
_atom_site_adp_type
_atom_site_occupancy
C1     C     0.62911   0.84700   0.79803   0.00000  Uiso   1.00
C2     C     0.65456   0.79634   0.78111   0.00000  Uiso   1.00
C3     C     0.65091   0.75370   0.69100   0.00000  Uiso   1.00
C4     C     0.67702   0.71106   0.69099   0.00000  Uiso   1.00
C5     C     0.71215   0.63238   0.65151   0.00000  Uiso   1.00
C6     C     0.61616   0.84473   0.93515   0.00000  Uiso   1.00
C7     C     0.58022   0.84278   0.97457   0.00000  Uiso   1.00
C8     C     0.57400   0.84088   0.10424   0.00000  Uiso   1.00
C9     C     0.54951   0.83737   0.30392   0.00000  Uiso   1.00
C10    C     0.65285   0.89999   0.78764   0.00000  Uiso   1.00
C11    C     0.64777   0.94451   0.70304   0.00000  Uiso   1.00
C12    C     0.67244   0.98914   0.70853   0.00000  Uiso   1.00
C13    C     0.70493   0.07142   0.67916   0.00000  Uiso   1.00
C14    C     0.68197   0.84710   0.95823   0.00000  Uiso   1.00
C15    C     0.68327   0.79640   0.86812   0.00000  Uiso   1.00
C16    C     0.70939   0.75381   0.86824   0.00000  Uiso   1.00
C17    C     0.70578   0.71111   0.77816   0.00000  Uiso   1.00
C18    C     0.64486   0.84479   0.02217   0.00000  Uiso   1.00
C19    C     0.63870   0.84289   0.15181   0.00000  Uiso   1.00
C20    C     0.60276   0.84094   0.19141   0.00000  Uiso   1.00
C21    C     0.68156   0.90004   0.87465   0.00000  Uiso   1.00
C22    C     0.70625   0.94462   0.88028   0.00000  Uiso   1.00
C23    C     0.70120   0.98919   0.79570   0.00000  Uiso   1.00
H24    H     0.60676   0.84696   0.73030   0.00000  Uiso   1.00
H25    H     0.62868   0.75367   0.62369   0.00000  Uiso   1.00
H26    H     0.55801   0.84275   0.90721   0.00000  Uiso   1.00
H27    H     0.62554   0.94445   0.63572   0.00000  Uiso   1.00
H28    H     0.66565   0.65026   0.54390   0.00000  Uiso   1.00
H29    H     0.51662   0.83810   0.14172   0.00000  Uiso   1.00
H30    H     0.65903   0.05257   0.56922   0.00000  Uiso   1.00
H31    H     0.70433   0.84714   0.02598   0.00000  Uiso   1.00
H32    H     0.73161   0.75386   0.93559   0.00000  Uiso   1.00
H33    H     0.66093   0.84294   0.21912   0.00000  Uiso   1.00
H34    H     0.72846   0.94464   0.94762   0.00000  Uiso   1.00
H35    H     0.74918   0.65041   0.79705   0.00000  Uiso   1.00
H36    H     0.60015   0.83825   0.39488   0.00000  Uiso   1.00
H37    H     0.74257   0.05272   0.82238   0.00000  Uiso   1.00
O38    O     0.72359   0.58896   0.60571   0.00000  Uiso   1.00
O39    O     0.52807   0.83541   0.39002   0.00000  Uiso   1.00
O40    O     0.71492   0.11679   0.63892   0.00000  Uiso   1.00
N41    N     0.68157   0.66310   0.61586   0.00000  Uiso   1.00
N42    N     0.54223   0.83871   0.17479   0.00000  Uiso   1.00
N43    N     0.67537   0.03923   0.63958   0.00000  Uiso   1.00
N44    N     0.72652   0.66318   0.75209   0.00000  Uiso   1.00
N45    N     0.58718   0.83879   0.31101   0.00000  Uiso   1.00
N46    N     0.72032   0.03931   0.77580   0.00000  Uiso   1.00
C47    C     0.12911   0.34700   0.79803   0.00000  Uiso   1.00
C48    C     0.15456   0.29634   0.78111   0.00000  Uiso   1.00
C49    C     0.15091   0.25370   0.69100   0.00000  Uiso   1.00
C50    C     0.17702   0.21106   0.69099   0.00000  Uiso   1.00
C51    C     0.21215   0.13238   0.65151   0.00000  Uiso   1.00
C52    C     0.11616   0.34473   0.93515   0.00000  Uiso   1.00
C53    C     0.08022   0.34278   0.97457   0.00000  Uiso   1.00
C54    C     0.07400   0.34088   0.10424   0.00000  Uiso   1.00
C55    C     0.04951   0.33737   0.30392   0.00000  Uiso   1.00
C56    C     0.15285   0.39999   0.78764   0.00000  Uiso   1.00
C57    C     0.14777   0.44451   0.70304   0.00000  Uiso   1.00
C58    C     0.17244   0.48914   0.70853   0.00000  Uiso   1.00
C59    C     0.20493   0.57142   0.67916   0.00000  Uiso   1.00
C60    C     0.18197   0.34710   0.95823   0.00000  Uiso   1.00
C61    C     0.18327   0.29640   0.86812   0.00000  Uiso   1.00
C62    C     0.20939   0.25381   0.86824   0.00000  Uiso   1.00
C63    C     0.20578   0.21111   0.77816   0.00000  Uiso   1.00
C64    C     0.14486   0.34479   0.02217   0.00000  Uiso   1.00
C65    C     0.13870   0.34289   0.15181   0.00000  Uiso   1.00
C66    C     0.10276   0.34094   0.19141   0.00000  Uiso   1.00
C67    C     0.18156   0.40004   0.87465   0.00000  Uiso   1.00
C68    C     0.20625   0.44462   0.88028   0.00000  Uiso   1.00
C69    C     0.20120   0.48919   0.79570   0.00000  Uiso   1.00
H70    H     0.10676   0.34696   0.73030   0.00000  Uiso   1.00
H71    H     0.12868   0.25367   0.62369   0.00000  Uiso   1.00
H72    H     0.05801   0.34275   0.90721   0.00000  Uiso   1.00
H73    H     0.12554   0.44445   0.63572   0.00000  Uiso   1.00
H74    H     0.16565   0.15026   0.54390   0.00000  Uiso   1.00
H75    H     0.01662   0.33810   0.14172   0.00000  Uiso   1.00
H76    H     0.15903   0.55257   0.56922   0.00000  Uiso   1.00
H77    H     0.20433   0.34714   0.02598   0.00000  Uiso   1.00
H78    H     0.23161   0.25386   0.93559   0.00000  Uiso   1.00
H79    H     0.16093   0.34294   0.21912   0.00000  Uiso   1.00
H80    H     0.22846   0.44464   0.94762   0.00000  Uiso   1.00
H81    H     0.24918   0.15041   0.79705   0.00000  Uiso   1.00
H82    H     0.10015   0.33825   0.39488   0.00000  Uiso   1.00
H83    H     0.24257   0.55272   0.82238   0.00000  Uiso   1.00
O84    O     0.22359   0.08896   0.60571   0.00000  Uiso   1.00
O85    O     0.02807   0.33541   0.39002   0.00000  Uiso   1.00
O86    O     0.21492   0.61679   0.63892   0.00000  Uiso   1.00
N87    N     0.18157   0.16310   0.61586   0.00000  Uiso   1.00
N88    N     0.04223   0.33871   0.17479   0.00000  Uiso   1.00
N89    N     0.17537   0.53923   0.63958   0.00000  Uiso   1.00
N90    N     0.22652   0.16318   0.75209   0.00000  Uiso   1.00
N91    N     0.08718   0.33879   0.31101   0.00000  Uiso   1.00
N92    N     0.22032   0.53931   0.77580   0.00000  Uiso   1.00
C93    C     0.37089   0.15300   0.29803   0.00000  Uiso   1.00
C94    C     0.34544   0.20366   0.28111   0.00000  Uiso   1.00
C95    C     0.34909   0.24630   0.19100   0.00000  Uiso   1.00
C96    C     0.32298   0.28894   0.19099   0.00000  Uiso   1.00
C97    C     0.28785   0.36762   0.15151   0.00000  Uiso   1.00
C98    C     0.38384   0.15527   0.43515   0.00000  Uiso   1.00
C99    C     0.41978   0.15722   0.47457   0.00000  Uiso   1.00
C100   C     0.42600   0.15912   0.60424   0.00000  Uiso   1.00
C101   C     0.45049   0.16263   0.80392   0.00000  Uiso   1.00
C102   C     0.34715   0.10001   0.28764   0.00000  Uiso   1.00
C103   C     0.35223   0.05549   0.20304   0.00000  Uiso   1.00
C104   C     0.32756   0.01086   0.20853   0.00000  Uiso   1.00
C105   C     0.29507   0.92858   0.17916   0.00000  Uiso   1.00
C106   C     0.31803   0.15290   0.45823   0.00000  Uiso   1.00
C107   C     0.31673   0.20360   0.36812   0.00000  Uiso   1.00
C108   C     0.29061   0.24619   0.36824   0.00000  Uiso   1.00
C109   C     0.29422   0.28889   0.27816   0.00000  Uiso   1.00
C110   C     0.35514   0.15521   0.52217   0.00000  Uiso   1.00
C111   C     0.36130   0.15711   0.65181   0.00000  Uiso   1.00
C112   C     0.39724   0.15906   0.69141   0.00000  Uiso   1.00
C113   C     0.31844   0.09996   0.37465   0.00000  Uiso   1.00
C114   C     0.29375   0.05538   0.38028   0.00000  Uiso   1.00
C115   C     0.29880   0.01081   0.29570   0.00000  Uiso   1.00
H116   H     0.39324   0.15304   0.23030   0.00000  Uiso   1.00
H117   H     0.37132   0.24633   0.12369   0.00000  Uiso   1.00
H118   H     0.44199   0.15725   0.40721   0.00000  Uiso   1.00
H119   H     0.37446   0.05555   0.13572   0.00000  Uiso   1.00
H120   H     0.33435   0.34974   0.04390   0.00000  Uiso   1.00
H121   H     0.48338   0.16190   0.64172   0.00000  Uiso   1.00
H122   H     0.34097   0.94743   0.06922   0.00000  Uiso   1.00
H123   H     0.29567   0.15286   0.52598   0.00000  Uiso   1.00
H124   H     0.26839   0.24614   0.43559   0.00000  Uiso   1.00
H125   H     0.33907   0.15706   0.71912   0.00000  Uiso   1.00
H126   H     0.27154   0.05536   0.44762   0.00000  Uiso   1.00
H127   H     0.25082   0.34959   0.29705   0.00000  Uiso   1.00
H128   H     0.39985   0.16175   0.89488   0.00000  Uiso   1.00
H129   H     0.25743   0.94728   0.32238   0.00000  Uiso   1.00
O130   O     0.27641   0.41104   0.10571   0.00000  Uiso   1.00
O131   O     0.47193   0.16459   0.89002   0.00000  Uiso   1.00
O132   O     0.28508   0.88321   0.13892   0.00000  Uiso   1.00
N133   N     0.31843   0.33690   0.11586   0.00000  Uiso   1.00
N134   N     0.45777   0.16129   0.67479   0.00000  Uiso   1.00
N135   N     0.32463   0.96077   0.13958   0.00000  Uiso   1.00
N136   N     0.27348   0.33682   0.25209   0.00000  Uiso   1.00
N137   N     0.41282   0.16121   0.81101   0.00000  Uiso   1.00
N138   N     0.27968   0.96069   0.27580   0.00000  Uiso   1.00
C139   C     0.87089   0.65300   0.29803   0.00000  Uiso   1.00
C140   C     0.84544   0.70366   0.28111   0.00000  Uiso   1.00
C141   C     0.84909   0.74630   0.19100   0.00000  Uiso   1.00
C142   C     0.82298   0.78894   0.19099   0.00000  Uiso   1.00
C143   C     0.78785   0.86762   0.15151   0.00000  Uiso   1.00
C144   C     0.88384   0.65527   0.43515   0.00000  Uiso   1.00
C145   C     0.91978   0.65722   0.47457   0.00000  Uiso   1.00
C146   C     0.92600   0.65912   0.60424   0.00000  Uiso   1.00
C147   C     0.95049   0.66263   0.80392   0.00000  Uiso   1.00
C148   C     0.84715   0.60001   0.28764   0.00000  Uiso   1.00
C149   C     0.85223   0.55549   0.20304   0.00000  Uiso   1.00
C150   C     0.82756   0.51086   0.20853   0.00000  Uiso   1.00
C151   C     0.79507   0.42858   0.17916   0.00000  Uiso   1.00
C152   C     0.81803   0.65290   0.45823   0.00000  Uiso   1.00
C153   C     0.81673   0.70360   0.36812   0.00000  Uiso   1.00
C154   C     0.79061   0.74619   0.36824   0.00000  Uiso   1.00
C155   C     0.79422   0.78889   0.27816   0.00000  Uiso   1.00
C156   C     0.85514   0.65521   0.52217   0.00000  Uiso   1.00
C157   C     0.86130   0.65711   0.65181   0.00000  Uiso   1.00
C158   C     0.89724   0.65906   0.69141   0.00000  Uiso   1.00
C159   C     0.81844   0.59996   0.37465   0.00000  Uiso   1.00
C160   C     0.79375   0.55538   0.38028   0.00000  Uiso   1.00
C161   C     0.79880   0.51081   0.29570   0.00000  Uiso   1.00
H162   H     0.89324   0.65304   0.23030   0.00000  Uiso   1.00
H163   H     0.87132   0.74633   0.12369   0.00000  Uiso   1.00
H164   H     0.94199   0.65725   0.40721   0.00000  Uiso   1.00
H165   H     0.87446   0.55555   0.13572   0.00000  Uiso   1.00
H166   H     0.83435   0.84974   0.04390   0.00000  Uiso   1.00
H167   H     0.98338   0.66190   0.64172   0.00000  Uiso   1.00
H168   H     0.84097   0.44743   0.06922   0.00000  Uiso   1.00
H169   H     0.79567   0.65286   0.52598   0.00000  Uiso   1.00
H170   H     0.76839   0.74614   0.43559   0.00000  Uiso   1.00
H171   H     0.83907   0.65706   0.71912   0.00000  Uiso   1.00
H172   H     0.77154   0.55536   0.44762   0.00000  Uiso   1.00
H173   H     0.75082   0.84959   0.29705   0.00000  Uiso   1.00
H174   H     0.89985   0.66175   0.89488   0.00000  Uiso   1.00
H175   H     0.75743   0.44728   0.32238   0.00000  Uiso   1.00
O176   O     0.77641   0.91104   0.10571   0.00000  Uiso   1.00
O177   O     0.97193   0.66459   0.89002   0.00000  Uiso   1.00
O178   O     0.78508   0.38321   0.13892   0.00000  Uiso   1.00
N179   N     0.81843   0.83690   0.11586   0.00000  Uiso   1.00
N180   N     0.95777   0.66129   0.67479   0.00000  Uiso   1.00
N181   N     0.82463   0.46077   0.13958   0.00000  Uiso   1.00
N182   N     0.77348   0.83682   0.25209   0.00000  Uiso   1.00
N183   N     0.91282   0.66121   0.81101   0.00000  Uiso   1.00
N184   N     0.77968   0.46069   0.27580   0.00000  Uiso   1.00
C185   C     0.37089   0.84700   0.70197   0.00000  Uiso   1.00
C186   C     0.34544   0.79634   0.71889   0.00000  Uiso   1.00
C187   C     0.34909   0.75370   0.80900   0.00000  Uiso   1.00
C188   C     0.32298   0.71106   0.80901   0.00000  Uiso   1.00
C189   C     0.28785   0.63238   0.84849   0.00000  Uiso   1.00
C190   C     0.38384   0.84473   0.56485   0.00000  Uiso   1.00
C191   C     0.41978   0.84278   0.52543   0.00000  Uiso   1.00
C192   C     0.42600   0.84088   0.39576   0.00000  Uiso   1.00
C193   C     0.45049   0.83737   0.19608   0.00000  Uiso   1.00
C194   C     0.34715   0.89999   0.71236   0.00000  Uiso   1.00
C195   C     0.35223   0.94451   0.79696   0.00000  Uiso   1.00
C196   C     0.32756   0.98914   0.79147   0.00000  Uiso   1.00
C197   C     0.29507   0.07142   0.82084   0.00000  Uiso   1.00
C198   C     0.31803   0.84710   0.54177   0.00000  Uiso   1.00
C199   C     0.31673   0.79640   0.63188   0.00000  Uiso   1.00
C200   C     0.29061   0.75381   0.63176   0.00000  Uiso   1.00
C201   C     0.29422   0.71111   0.72184   0.00000  Uiso   1.00
C202   C     0.35514   0.84479   0.47783   0.00000  Uiso   1.00
C203   C     0.36130   0.84289   0.34819   0.00000  Uiso   1.00
C204   C     0.39724   0.84094   0.30859   0.00000  Uiso   1.00
C205   C     0.31844   0.90004   0.62535   0.00000  Uiso   1.00
C206   C     0.29375   0.94462   0.61972   0.00000  Uiso   1.00
C207   C     0.29880   0.98919   0.70430   0.00000  Uiso   1.00
H208   H     0.39324   0.84696   0.76970   0.00000  Uiso   1.00
H209   H     0.37132   0.75367   0.87631   0.00000  Uiso   1.00
H210   H     0.44199   0.84275   0.59279   0.00000  Uiso   1.00
H211   H     0.37446   0.94445   0.86428   0.00000  Uiso   1.00
H212   H     0.33435   0.65026   0.95610   0.00000  Uiso   1.00
H213   H     0.48338   0.83810   0.35828   0.00000  Uiso   1.00
H214   H     0.34097   0.05257   0.93078   0.00000  Uiso   1.00
H215   H     0.29567   0.84714   0.47402   0.00000  Uiso   1.00
H216   H     0.26839   0.75386   0.56441   0.00000  Uiso   1.00
H217   H     0.33907   0.84294   0.28088   0.00000  Uiso   1.00
H218   H     0.27154   0.94464   0.55238   0.00000  Uiso   1.00
H219   H     0.25082   0.65041   0.70295   0.00000  Uiso   1.00
H220   H     0.39985   0.83825   0.10512   0.00000  Uiso   1.00
H221   H     0.25743   0.05272   0.67762   0.00000  Uiso   1.00
O222   O     0.27641   0.58896   0.89429   0.00000  Uiso   1.00
O223   O     0.47193   0.83541   0.10998   0.00000  Uiso   1.00
O224   O     0.28508   0.11679   0.86108   0.00000  Uiso   1.00
N225   N     0.31843   0.66310   0.88414   0.00000  Uiso   1.00
N226   N     0.45777   0.83871   0.32521   0.00000  Uiso   1.00
N227   N     0.32463   0.03923   0.86042   0.00000  Uiso   1.00
N228   N     0.27348   0.66318   0.74791   0.00000  Uiso   1.00
N229   N     0.41282   0.83879   0.18899   0.00000  Uiso   1.00
N230   N     0.27968   0.03931   0.72420   0.00000  Uiso   1.00
C231   C     0.87089   0.34700   0.70197   0.00000  Uiso   1.00
C232   C     0.84544   0.29634   0.71889   0.00000  Uiso   1.00
C233   C     0.84909   0.25370   0.80900   0.00000  Uiso   1.00
C234   C     0.82298   0.21106   0.80901   0.00000  Uiso   1.00
C235   C     0.78785   0.13238   0.84849   0.00000  Uiso   1.00
C236   C     0.88384   0.34473   0.56485   0.00000  Uiso   1.00
C237   C     0.91978   0.34278   0.52543   0.00000  Uiso   1.00
C238   C     0.92600   0.34088   0.39576   0.00000  Uiso   1.00
C239   C     0.95049   0.33737   0.19608   0.00000  Uiso   1.00
C240   C     0.84715   0.39999   0.71236   0.00000  Uiso   1.00
C241   C     0.85223   0.44451   0.79696   0.00000  Uiso   1.00
C242   C     0.82756   0.48914   0.79147   0.00000  Uiso   1.00
C243   C     0.79507   0.57142   0.82084   0.00000  Uiso   1.00
C244   C     0.81803   0.34710   0.54177   0.00000  Uiso   1.00
C245   C     0.81673   0.29640   0.63188   0.00000  Uiso   1.00
C246   C     0.79061   0.25381   0.63176   0.00000  Uiso   1.00
C247   C     0.79422   0.21111   0.72184   0.00000  Uiso   1.00
C248   C     0.85514   0.34479   0.47783   0.00000  Uiso   1.00
C249   C     0.86130   0.34289   0.34819   0.00000  Uiso   1.00
C250   C     0.89724   0.34094   0.30859   0.00000  Uiso   1.00
C251   C     0.81844   0.40004   0.62535   0.00000  Uiso   1.00
C252   C     0.79375   0.44462   0.61972   0.00000  Uiso   1.00
C253   C     0.79880   0.48919   0.70430   0.00000  Uiso   1.00
H254   H     0.89324   0.34696   0.76970   0.00000  Uiso   1.00
H255   H     0.87132   0.25367   0.87631   0.00000  Uiso   1.00
H256   H     0.94199   0.34275   0.59279   0.00000  Uiso   1.00
H257   H     0.87446   0.44445   0.86428   0.00000  Uiso   1.00
H258   H     0.83435   0.15026   0.95610   0.00000  Uiso   1.00
H259   H     0.98338   0.33810   0.35828   0.00000  Uiso   1.00
H260   H     0.84097   0.55257   0.93078   0.00000  Uiso   1.00
H261   H     0.79567   0.34714   0.47402   0.00000  Uiso   1.00
H262   H     0.76839   0.25386   0.56441   0.00000  Uiso   1.00
H263   H     0.83907   0.34294   0.28088   0.00000  Uiso   1.00
H264   H     0.77154   0.44464   0.55238   0.00000  Uiso   1.00
H265   H     0.75082   0.15041   0.70295   0.00000  Uiso   1.00
H266   H     0.89985   0.33825   0.10512   0.00000  Uiso   1.00
H267   H     0.75743   0.55272   0.67762   0.00000  Uiso   1.00
O268   O     0.77641   0.08896   0.89429   0.00000  Uiso   1.00
O269   O     0.97193   0.33541   0.10998   0.00000  Uiso   1.00
O270   O     0.78508   0.61679   0.86108   0.00000  Uiso   1.00
N271   N     0.81843   0.16310   0.88414   0.00000  Uiso   1.00
N272   N     0.95777   0.33871   0.32521   0.00000  Uiso   1.00
N273   N     0.82463   0.53923   0.86042   0.00000  Uiso   1.00
N274   N     0.77348   0.16318   0.74791   0.00000  Uiso   1.00
N275   N     0.91282   0.33879   0.18899   0.00000  Uiso   1.00
N276   N     0.77968   0.53931   0.72420   0.00000  Uiso   1.00
C277   C     0.62911   0.15300   0.20197   0.00000  Uiso   1.00
C278   C     0.65456   0.20366   0.21889   0.00000  Uiso   1.00
C279   C     0.65091   0.24630   0.30900   0.00000  Uiso   1.00
C280   C     0.67702   0.28894   0.30901   0.00000  Uiso   1.00
C281   C     0.71215   0.36762   0.34849   0.00000  Uiso   1.00
C282   C     0.61616   0.15527   0.06485   0.00000  Uiso   1.00
C283   C     0.58022   0.15722   0.02543   0.00000  Uiso   1.00
C284   C     0.57400   0.15912   0.89576   0.00000  Uiso   1.00
C285   C     0.54951   0.16263   0.69608   0.00000  Uiso   1.00
C286   C     0.65285   0.10001   0.21236   0.00000  Uiso   1.00
C287   C     0.64777   0.05549   0.29696   0.00000  Uiso   1.00
C288   C     0.67244   0.01086   0.29147   0.00000  Uiso   1.00
C289   C     0.70493   0.92858   0.32084   0.00000  Uiso   1.00
C290   C     0.68197   0.15290   0.04177   0.00000  Uiso   1.00
C291   C     0.68327   0.20360   0.13188   0.00000  Uiso   1.00
C292   C     0.70939   0.24619   0.13176   0.00000  Uiso   1.00
C293   C     0.70578   0.28889   0.22184   0.00000  Uiso   1.00
C294   C     0.64486   0.15521   0.97783   0.00000  Uiso   1.00
C295   C     0.63870   0.15711   0.84819   0.00000  Uiso   1.00
C296   C     0.60276   0.15906   0.80859   0.00000  Uiso   1.00
C297   C     0.68156   0.09996   0.12535   0.00000  Uiso   1.00
C298   C     0.70625   0.05538   0.11972   0.00000  Uiso   1.00
C299   C     0.70120   0.01081   0.20430   0.00000  Uiso   1.00
H300   H     0.60676   0.15304   0.26970   0.00000  Uiso   1.00
H301   H     0.62868   0.24633   0.37631   0.00000  Uiso   1.00
H302   H     0.55801   0.15725   0.09279   0.00000  Uiso   1.00
H303   H     0.62554   0.05555   0.36428   0.00000  Uiso   1.00
H304   H     0.66565   0.34974   0.45610   0.00000  Uiso   1.00
H305   H     0.51662   0.16190   0.85828   0.00000  Uiso   1.00
H306   H     0.65903   0.94743   0.43078   0.00000  Uiso   1.00
H307   H     0.70433   0.15286   0.97402   0.00000  Uiso   1.00
H308   H     0.73161   0.24614   0.06441   0.00000  Uiso   1.00
H309   H     0.66093   0.15706   0.78088   0.00000  Uiso   1.00
H310   H     0.72846   0.05536   0.05238   0.00000  Uiso   1.00
H311   H     0.74918   0.34959   0.20295   0.00000  Uiso   1.00
H312   H     0.60015   0.16175   0.60512   0.00000  Uiso   1.00
H313   H     0.74257   0.94728   0.17762   0.00000  Uiso   1.00
O314   O     0.72359   0.41104   0.39429   0.00000  Uiso   1.00
O315   O     0.52807   0.16459   0.60998   0.00000  Uiso   1.00
O316   O     0.71492   0.88321   0.36108   0.00000  Uiso   1.00
N317   N     0.68157   0.33690   0.38414   0.00000  Uiso   1.00
N318   N     0.54223   0.16129   0.82521   0.00000  Uiso   1.00
N319   N     0.67537   0.96077   0.36042   0.00000  Uiso   1.00
N320   N     0.72652   0.33682   0.24791   0.00000  Uiso   1.00
N321   N     0.58718   0.16121   0.68899   0.00000  Uiso   1.00
N322   N     0.72032   0.96069   0.22420   0.00000  Uiso   1.00
C323   C     0.12911   0.65300   0.20197   0.00000  Uiso   1.00
C324   C     0.15456   0.70366   0.21889   0.00000  Uiso   1.00
C325   C     0.15091   0.74630   0.30900   0.00000  Uiso   1.00
C326   C     0.17702   0.78894   0.30901   0.00000  Uiso   1.00
C327   C     0.21215   0.86762   0.34849   0.00000  Uiso   1.00
C328   C     0.11616   0.65527   0.06485   0.00000  Uiso   1.00
C329   C     0.08022   0.65722   0.02543   0.00000  Uiso   1.00
C330   C     0.07400   0.65912   0.89576   0.00000  Uiso   1.00
C331   C     0.04951   0.66263   0.69608   0.00000  Uiso   1.00
C332   C     0.15285   0.60001   0.21236   0.00000  Uiso   1.00
C333   C     0.14777   0.55549   0.29696   0.00000  Uiso   1.00
C334   C     0.17244   0.51086   0.29147   0.00000  Uiso   1.00
C335   C     0.20493   0.42858   0.32084   0.00000  Uiso   1.00
C336   C     0.18197   0.65290   0.04177   0.00000  Uiso   1.00
C337   C     0.18327   0.70360   0.13188   0.00000  Uiso   1.00
C338   C     0.20939   0.74619   0.13176   0.00000  Uiso   1.00
C339   C     0.20578   0.78889   0.22184   0.00000  Uiso   1.00
C340   C     0.14486   0.65521   0.97783   0.00000  Uiso   1.00
C341   C     0.13870   0.65711   0.84819   0.00000  Uiso   1.00
C342   C     0.10276   0.65906   0.80859   0.00000  Uiso   1.00
C343   C     0.18156   0.59996   0.12535   0.00000  Uiso   1.00
C344   C     0.20625   0.55538   0.11972   0.00000  Uiso   1.00
C345   C     0.20120   0.51081   0.20430   0.00000  Uiso   1.00
H346   H     0.10676   0.65304   0.26970   0.00000  Uiso   1.00
H347   H     0.12868   0.74633   0.37631   0.00000  Uiso   1.00
H348   H     0.05801   0.65725   0.09279   0.00000  Uiso   1.00
H349   H     0.12554   0.55555   0.36428   0.00000  Uiso   1.00
H350   H     0.16565   0.84974   0.45610   0.00000  Uiso   1.00
H351   H     0.01662   0.66190   0.85828   0.00000  Uiso   1.00
H352   H     0.15903   0.44743   0.43078   0.00000  Uiso   1.00
H353   H     0.20433   0.65286   0.97402   0.00000  Uiso   1.00
H354   H     0.23161   0.74614   0.06441   0.00000  Uiso   1.00
H355   H     0.16093   0.65706   0.78088   0.00000  Uiso   1.00
H356   H     0.22846   0.55536   0.05238   0.00000  Uiso   1.00
H357   H     0.24918   0.84959   0.20295   0.00000  Uiso   1.00
H358   H     0.10015   0.66175   0.60512   0.00000  Uiso   1.00
H359   H     0.24257   0.44728   0.17762   0.00000  Uiso   1.00
O360   O     0.22359   0.91104   0.39429   0.00000  Uiso   1.00
O361   O     0.02807   0.66459   0.60998   0.00000  Uiso   1.00
O362   O     0.21492   0.38321   0.36108   0.00000  Uiso   1.00
N363   N     0.18157   0.83690   0.38414   0.00000  Uiso   1.00
N364   N     0.04223   0.66129   0.82521   0.00000  Uiso   1.00
N365   N     0.17537   0.46077   0.36042   0.00000  Uiso   1.00
N366   N     0.22652   0.83682   0.24791   0.00000  Uiso   1.00
N367   N     0.08718   0.66121   0.68899   0.00000  Uiso   1.00
N368   N     0.22032   0.46069   0.22420   0.00000  Uiso   1.00
