data_job_05010
_audit_creation_date              2018-12-19
_audit_creation_method            'Materials Studio'
_symmetry_space_group_name_H-M    'P1'
_symmetry_Int_Tables_number       1
_symmetry_cell_setting            triclinic
loop_
_symmetry_equiv_pos_as_xyz
  x,y,z
_cell_length_a                    19.6902
_cell_length_b                    33.6831
_cell_length_c                    8.4585
_cell_angle_alpha                 90.0000
_cell_angle_beta                  90.0000
_cell_angle_gamma                 90.0000
loop_
_atom_site_label
_atom_site_type_symbol
_atom_site_fract_x
_atom_site_fract_y
_atom_site_fract_z
_atom_site_U_iso_or_equiv
_atom_site_adp_type
_atom_site_occupancy
C1     C     0.81893   0.61643   0.60235   0.00000  Uiso   1.00
C2     C     0.78421   0.65682   0.61205   0.00000  Uiso   1.00
C3     C     0.75351   0.67275   0.74541   0.00000  Uiso   1.00
C4     C     0.72455   0.71014   0.73009   0.00000  Uiso   1.00
C5     C     0.67034   0.76971   0.76697   0.00000  Uiso   1.00
C6     C     0.78368   0.59408   0.46874   0.00000  Uiso   1.00
C7     C     0.75255   0.55726   0.48162   0.00000  Uiso   1.00
C8     C     0.72315   0.54183   0.34566   0.00000  Uiso   1.00
C9     C     0.66817   0.50398   0.16003   0.00000  Uiso   1.00
C10    C     0.89107   0.62446   0.54509   0.00000  Uiso   1.00
C11    C     0.95023   0.61317   0.62214   0.00000  Uiso   1.00
C12    C     0.01124   0.62331   0.55044   0.00000  Uiso   1.00
C13    C     0.12299   0.63263   0.48336   0.00000  Uiso   1.00
C14    C     0.82210   0.65449   0.33800   0.00000  Uiso   1.00
C15    C     0.78593   0.67750   0.46846   0.00000  Uiso   1.00
C16    C     0.75701   0.71487   0.45294   0.00000  Uiso   1.00
C17    C     0.72627   0.73085   0.58625   0.00000  Uiso   1.00
C18    C     0.78540   0.61476   0.32516   0.00000  Uiso   1.00
C19    C     0.75605   0.59937   0.18915   0.00000  Uiso   1.00
C20    C     0.72487   0.56254   0.20181   0.00000  Uiso   1.00
C21    C     0.89279   0.64514   0.40151   0.00000  Uiso   1.00
C22    C     0.95373   0.65529   0.32967   0.00000  Uiso   1.00
C23    C     0.01297   0.64403   0.40660   0.00000  Uiso   1.00
H24    H     0.81759   0.60033   0.71413   0.00000  Uiso   1.00
H25    H     0.75218   0.65674   0.85650   0.00000  Uiso   1.00
H26    H     0.75123   0.54126   0.59274   0.00000  Uiso   1.00
H27    H     0.94887   0.59718   0.73325   0.00000  Uiso   1.00
H28    H     0.68040   0.72840   0.95101   0.00000  Uiso   1.00
H29    H     0.67841   0.48490   0.39486   0.00000  Uiso   1.00
H30    H     0.09519   0.60280   0.69114   0.00000  Uiso   1.00
H31    H     0.82344   0.67059   0.22620   0.00000  Uiso   1.00
H32    H     0.75835   0.73086   0.34181   0.00000  Uiso   1.00
H33    H     0.75740   0.61538   0.07805   0.00000  Uiso   1.00
H34    H     0.95504   0.67129   0.21856   0.00000  Uiso   1.00
H35    H     0.68540   0.78855   0.53326   0.00000  Uiso   1.00
H36    H     0.68342   0.54505   0.97710   0.00000  Uiso   1.00
H37    H     0.10019   0.66295   0.27339   0.00000  Uiso   1.00
O38    O     0.63996   0.79685   0.82697   0.00000  Uiso   1.00
O39    O     0.63736   0.47739   0.09732   0.00000  Uiso   1.00
O40    O     0.18416   0.63207   0.48604   0.00000  Uiso   1.00
N41    N     0.69052   0.73429   0.83684   0.00000  Uiso   1.00
N42    N     0.68865   0.50663   0.31687   0.00000  Uiso   1.00
N43    N     0.07830   0.61685   0.59385   0.00000  Uiso   1.00
N44    N     0.69322   0.76666   0.61205   0.00000  Uiso   1.00
N45    N     0.69135   0.53900   0.09208   0.00000  Uiso   1.00
N46    N     0.08100   0.64922   0.36906   0.00000  Uiso   1.00
C47    C     0.95988   0.88440   0.89962   0.00000  Uiso   1.00
C48    C     0.99475   0.84404   0.89012   0.00000  Uiso   1.00
C49    C     0.02575   0.82818   0.75701   0.00000  Uiso   1.00
C50    C     0.05481   0.79082   0.77248   0.00000  Uiso   1.00
C51    C     0.10928   0.73132   0.73592   0.00000  Uiso   1.00
C52    C     0.99481   0.90675   0.03364   0.00000  Uiso   1.00
C53    C     0.02585   0.94361   0.02120   0.00000  Uiso   1.00
C54    C     0.05495   0.95905   0.15749   0.00000  Uiso   1.00
C55    C     0.10947   0.99692   0.34378   0.00000  Uiso   1.00
C56    C     0.88767   0.87627   0.95615   0.00000  Uiso   1.00
C57    C     0.82861   0.88750   0.87856   0.00000  Uiso   1.00
C58    C     0.76750   0.87728   0.94963   0.00000  Uiso   1.00
C59    C     0.65566   0.86782   0.01560   0.00000  Uiso   1.00
C60    C     0.95636   0.84627   0.16381   0.00000  Uiso   1.00
C61    C     0.99284   0.82334   0.03363   0.00000  Uiso   1.00
C62    C     0.02186   0.78599   0.04930   0.00000  Uiso   1.00
C63    C     0.05289   0.77007   0.91623   0.00000  Uiso   1.00
C64    C     0.99290   0.88605   0.17714   0.00000  Uiso   1.00
C65    C     0.02196   0.90143   0.31349   0.00000  Uiso   1.00
C66    C     0.05304   0.93831   0.30125   0.00000  Uiso   1.00
C67    C     0.88576   0.85556   0.09964   0.00000  Uiso   1.00
C68    C     0.82473   0.84532   0.17086   0.00000  Uiso   1.00
C69    C     0.76559   0.85653   0.09339   0.00000  Uiso   1.00
H70    H     0.96137   0.90052   0.78791   0.00000  Uiso   1.00
H71    H     0.02722   0.84421   0.64598   0.00000  Uiso   1.00
H72    H     0.02731   0.95963   0.91014   0.00000  Uiso   1.00
H73    H     0.83011   0.90353   0.76752   0.00000  Uiso   1.00
H74    H     0.09941   0.77266   0.55193   0.00000  Uiso   1.00
H75    H     0.09959   0.01604   0.10892   0.00000  Uiso   1.00
H76    H     0.68374   0.89773   0.80819   0.00000  Uiso   1.00
H77    H     0.95488   0.83015   0.27554   0.00000  Uiso   1.00
H78    H     0.02038   0.76998   0.16036   0.00000  Uiso   1.00
H79    H     0.02047   0.88540   0.42452   0.00000  Uiso   1.00
H80    H     0.82327   0.82929   0.28190   0.00000  Uiso   1.00
H81    H     0.09386   0.71241   0.96942   0.00000  Uiso   1.00
H82    H     0.09403   0.95579   0.52642   0.00000  Uiso   1.00
H83    H     0.67819   0.83748   0.22569   0.00000  Uiso   1.00
O84    O     0.13986   0.70423   0.67613   0.00000  Uiso   1.00
O85    O     0.14008   0.02353   0.40688   0.00000  Uiso   1.00
O86    O     0.59450   0.86831   0.01233   0.00000  Uiso   1.00
N87    N     0.08910   0.76673   0.66598   0.00000  Uiso   1.00
N88    N     0.08928   0.99428   0.18673   0.00000  Uiso   1.00
N89    N     0.70050   0.88367   0.90560   0.00000  Uiso   1.00
N90    N     0.08612   0.73431   0.89063   0.00000  Uiso   1.00
N91    N     0.08629   0.96185   0.41138   0.00000  Uiso   1.00
N92    N     0.69751   0.85125   0.13025   0.00000  Uiso   1.00
C93    C     0.18107   0.38357   0.60235   0.00000  Uiso   1.00
C94    C     0.21579   0.34318   0.61205   0.00000  Uiso   1.00
C95    C     0.24649   0.32725   0.74541   0.00000  Uiso   1.00
C96    C     0.27545   0.28986   0.73009   0.00000  Uiso   1.00
C97    C     0.32966   0.23029   0.76697   0.00000  Uiso   1.00
C98    C     0.21632   0.40592   0.46874   0.00000  Uiso   1.00
C99    C     0.24745   0.44274   0.48162   0.00000  Uiso   1.00
C100   C     0.27685   0.45817   0.34566   0.00000  Uiso   1.00
C101   C     0.33183   0.49602   0.16003   0.00000  Uiso   1.00
C102   C     0.10893   0.37554   0.54509   0.00000  Uiso   1.00
C103   C     0.04977   0.38683   0.62214   0.00000  Uiso   1.00
C104   C     0.98876   0.37669   0.55044   0.00000  Uiso   1.00
C105   C     0.87701   0.36737   0.48336   0.00000  Uiso   1.00
C106   C     0.17790   0.34551   0.33800   0.00000  Uiso   1.00
C107   C     0.21407   0.32250   0.46846   0.00000  Uiso   1.00
C108   C     0.24299   0.28513   0.45294   0.00000  Uiso   1.00
C109   C     0.27373   0.26915   0.58625   0.00000  Uiso   1.00
C110   C     0.21460   0.38524   0.32516   0.00000  Uiso   1.00
C111   C     0.24395   0.40063   0.18915   0.00000  Uiso   1.00
C112   C     0.27513   0.43746   0.20181   0.00000  Uiso   1.00
C113   C     0.10721   0.35486   0.40151   0.00000  Uiso   1.00
C114   C     0.04627   0.34471   0.32967   0.00000  Uiso   1.00
C115   C     0.98703   0.35597   0.40660   0.00000  Uiso   1.00
H116   H     0.18241   0.39967   0.71413   0.00000  Uiso   1.00
H117   H     0.24782   0.34326   0.85650   0.00000  Uiso   1.00
H118   H     0.24877   0.45874   0.59274   0.00000  Uiso   1.00
H119   H     0.05113   0.40282   0.73325   0.00000  Uiso   1.00
H120   H     0.31960   0.27160   0.95101   0.00000  Uiso   1.00
H121   H     0.32159   0.51510   0.39486   0.00000  Uiso   1.00
H122   H     0.90481   0.39720   0.69114   0.00000  Uiso   1.00
H123   H     0.17656   0.32941   0.22620   0.00000  Uiso   1.00
H124   H     0.24165   0.26914   0.34181   0.00000  Uiso   1.00
H125   H     0.24260   0.38462   0.07805   0.00000  Uiso   1.00
H126   H     0.04496   0.32871   0.21856   0.00000  Uiso   1.00
H127   H     0.31460   0.21145   0.53326   0.00000  Uiso   1.00
H128   H     0.31658   0.45495   0.97710   0.00000  Uiso   1.00
H129   H     0.89981   0.33705   0.27339   0.00000  Uiso   1.00
O130   O     0.36004   0.20315   0.82697   0.00000  Uiso   1.00
O131   O     0.36264   0.52261   0.09732   0.00000  Uiso   1.00
O132   O     0.81584   0.36793   0.48604   0.00000  Uiso   1.00
N133   N     0.30948   0.26571   0.83684   0.00000  Uiso   1.00
N134   N     0.31135   0.49337   0.31687   0.00000  Uiso   1.00
N135   N     0.92170   0.38315   0.59385   0.00000  Uiso   1.00
N136   N     0.30678   0.23334   0.61205   0.00000  Uiso   1.00
N137   N     0.30865   0.46100   0.09208   0.00000  Uiso   1.00
N138   N     0.91900   0.35078   0.36906   0.00000  Uiso   1.00
C139   C     0.04012   0.11560   0.89962   0.00000  Uiso   1.00
C140   C     0.00525   0.15596   0.89012   0.00000  Uiso   1.00
C141   C     0.97425   0.17182   0.75701   0.00000  Uiso   1.00
C142   C     0.94519   0.20918   0.77248   0.00000  Uiso   1.00
C143   C     0.89072   0.26868   0.73592   0.00000  Uiso   1.00
C144   C     0.00519   0.09325   0.03364   0.00000  Uiso   1.00
C145   C     0.97415   0.05639   0.02120   0.00000  Uiso   1.00
C146   C     0.94505   0.04095   0.15749   0.00000  Uiso   1.00
C147   C     0.89053   0.00308   0.34378   0.00000  Uiso   1.00
C148   C     0.11233   0.12373   0.95615   0.00000  Uiso   1.00
C149   C     0.17139   0.11250   0.87856   0.00000  Uiso   1.00
C150   C     0.23250   0.12272   0.94963   0.00000  Uiso   1.00
C151   C     0.34434   0.13218   0.01560   0.00000  Uiso   1.00
C152   C     0.04364   0.15373   0.16381   0.00000  Uiso   1.00
C153   C     0.00716   0.17666   0.03363   0.00000  Uiso   1.00
C154   C     0.97814   0.21401   0.04930   0.00000  Uiso   1.00
C155   C     0.94711   0.22993   0.91623   0.00000  Uiso   1.00
C156   C     0.00710   0.11395   0.17714   0.00000  Uiso   1.00
C157   C     0.97804   0.09857   0.31349   0.00000  Uiso   1.00
C158   C     0.94696   0.06169   0.30125   0.00000  Uiso   1.00
C159   C     0.11424   0.14444   0.09964   0.00000  Uiso   1.00
C160   C     0.17527   0.15468   0.17086   0.00000  Uiso   1.00
C161   C     0.23441   0.14347   0.09339   0.00000  Uiso   1.00
H162   H     0.03863   0.09948   0.78791   0.00000  Uiso   1.00
H163   H     0.97278   0.15579   0.64598   0.00000  Uiso   1.00
H164   H     0.97269   0.04037   0.91014   0.00000  Uiso   1.00
H165   H     0.16989   0.09647   0.76752   0.00000  Uiso   1.00
H166   H     0.90059   0.22734   0.55193   0.00000  Uiso   1.00
H167   H     0.90041   0.98396   0.10892   0.00000  Uiso   1.00
H168   H     0.31626   0.10227   0.80819   0.00000  Uiso   1.00
H169   H     0.04512   0.16985   0.27554   0.00000  Uiso   1.00
H170   H     0.97962   0.23002   0.16036   0.00000  Uiso   1.00
H171   H     0.97953   0.11460   0.42452   0.00000  Uiso   1.00
H172   H     0.17673   0.17071   0.28190   0.00000  Uiso   1.00
H173   H     0.90614   0.28759   0.96942   0.00000  Uiso   1.00
H174   H     0.90597   0.04421   0.52642   0.00000  Uiso   1.00
H175   H     0.32181   0.16252   0.22569   0.00000  Uiso   1.00
O176   O     0.86014   0.29577   0.67613   0.00000  Uiso   1.00
O177   O     0.85992   0.97647   0.40688   0.00000  Uiso   1.00
O178   O     0.40550   0.13169   0.01233   0.00000  Uiso   1.00
N179   N     0.91090   0.23327   0.66598   0.00000  Uiso   1.00
N180   N     0.91072   0.00572   0.18673   0.00000  Uiso   1.00
N181   N     0.29950   0.11633   0.90560   0.00000  Uiso   1.00
N182   N     0.91388   0.26569   0.89063   0.00000  Uiso   1.00
N183   N     0.91371   0.03815   0.41138   0.00000  Uiso   1.00
N184   N     0.30249   0.14875   0.13025   0.00000  Uiso   1.00
C185   C     0.68107   0.11643   0.39765   0.00000  Uiso   1.00
C186   C     0.71579   0.15682   0.38795   0.00000  Uiso   1.00
C187   C     0.74649   0.17275   0.25459   0.00000  Uiso   1.00
C188   C     0.77545   0.21014   0.26991   0.00000  Uiso   1.00
C189   C     0.82966   0.26971   0.23303   0.00000  Uiso   1.00
C190   C     0.71632   0.09408   0.53126   0.00000  Uiso   1.00
C191   C     0.74745   0.05726   0.51838   0.00000  Uiso   1.00
C192   C     0.77685   0.04183   0.65434   0.00000  Uiso   1.00
C193   C     0.83183   0.00398   0.83997   0.00000  Uiso   1.00
C194   C     0.60893   0.12446   0.45491   0.00000  Uiso   1.00
C195   C     0.54977   0.11317   0.37786   0.00000  Uiso   1.00
C196   C     0.48876   0.12331   0.44956   0.00000  Uiso   1.00
C197   C     0.37701   0.13263   0.51664   0.00000  Uiso   1.00
C198   C     0.67790   0.15449   0.66200   0.00000  Uiso   1.00
C199   C     0.71407   0.17750   0.53154   0.00000  Uiso   1.00
C200   C     0.74299   0.21487   0.54706   0.00000  Uiso   1.00
C201   C     0.77373   0.23085   0.41375   0.00000  Uiso   1.00
C202   C     0.71460   0.11476   0.67484   0.00000  Uiso   1.00
C203   C     0.74395   0.09937   0.81085   0.00000  Uiso   1.00
C204   C     0.77513   0.06254   0.79819   0.00000  Uiso   1.00
C205   C     0.60721   0.14514   0.59849   0.00000  Uiso   1.00
C206   C     0.54627   0.15529   0.67033   0.00000  Uiso   1.00
C207   C     0.48703   0.14403   0.59340   0.00000  Uiso   1.00
H208   H     0.68241   0.10033   0.28587   0.00000  Uiso   1.00
H209   H     0.74782   0.15674   0.14350   0.00000  Uiso   1.00
H210   H     0.74877   0.04126   0.40726   0.00000  Uiso   1.00
H211   H     0.55113   0.09718   0.26675   0.00000  Uiso   1.00
H212   H     0.81960   0.22840   0.04899   0.00000  Uiso   1.00
H213   H     0.82159   0.98490   0.60514   0.00000  Uiso   1.00
H214   H     0.40481   0.10280   0.30886   0.00000  Uiso   1.00
H215   H     0.67656   0.17059   0.77380   0.00000  Uiso   1.00
H216   H     0.74165   0.23086   0.65819   0.00000  Uiso   1.00
H217   H     0.74260   0.11538   0.92195   0.00000  Uiso   1.00
H218   H     0.54496   0.17129   0.78144   0.00000  Uiso   1.00
H219   H     0.81460   0.28855   0.46674   0.00000  Uiso   1.00
H220   H     0.81658   0.04505   0.02290   0.00000  Uiso   1.00
H221   H     0.39981   0.16295   0.72661   0.00000  Uiso   1.00
O222   O     0.86004   0.29685   0.17303   0.00000  Uiso   1.00
O223   O     0.86264   0.97739   0.90268   0.00000  Uiso   1.00
O224   O     0.31584   0.13207   0.51396   0.00000  Uiso   1.00
N225   N     0.80948   0.23429   0.16316   0.00000  Uiso   1.00
N226   N     0.81135   0.00663   0.68313   0.00000  Uiso   1.00
N227   N     0.42170   0.11685   0.40615   0.00000  Uiso   1.00
N228   N     0.80678   0.26666   0.38795   0.00000  Uiso   1.00
N229   N     0.80865   0.03900   0.90792   0.00000  Uiso   1.00
N230   N     0.41900   0.14922   0.63094   0.00000  Uiso   1.00
C231   C     0.54012   0.38440   0.10038   0.00000  Uiso   1.00
C232   C     0.50525   0.34404   0.10988   0.00000  Uiso   1.00
C233   C     0.47425   0.32818   0.24299   0.00000  Uiso   1.00
C234   C     0.44519   0.29082   0.22752   0.00000  Uiso   1.00
C235   C     0.39072   0.23132   0.26408   0.00000  Uiso   1.00
C236   C     0.50519   0.40675   0.96636   0.00000  Uiso   1.00
C237   C     0.47415   0.44361   0.97880   0.00000  Uiso   1.00
C238   C     0.44505   0.45905   0.84251   0.00000  Uiso   1.00
C239   C     0.39053   0.49692   0.65622   0.00000  Uiso   1.00
C240   C     0.61233   0.37627   0.04385   0.00000  Uiso   1.00
C241   C     0.67139   0.38750   0.12144   0.00000  Uiso   1.00
C242   C     0.73250   0.37728   0.05037   0.00000  Uiso   1.00
C243   C     0.84434   0.36782   0.98440   0.00000  Uiso   1.00
C244   C     0.54364   0.34627   0.83619   0.00000  Uiso   1.00
C245   C     0.50716   0.32334   0.96637   0.00000  Uiso   1.00
C246   C     0.47814   0.28599   0.95070   0.00000  Uiso   1.00
C247   C     0.44711   0.27007   0.08377   0.00000  Uiso   1.00
C248   C     0.50710   0.38605   0.82286   0.00000  Uiso   1.00
C249   C     0.47804   0.40143   0.68651   0.00000  Uiso   1.00
C250   C     0.44696   0.43831   0.69875   0.00000  Uiso   1.00
C251   C     0.61424   0.35556   0.90036   0.00000  Uiso   1.00
C252   C     0.67527   0.34532   0.82914   0.00000  Uiso   1.00
C253   C     0.73441   0.35653   0.90661   0.00000  Uiso   1.00
H254   H     0.53863   0.40052   0.21209   0.00000  Uiso   1.00
H255   H     0.47278   0.34421   0.35402   0.00000  Uiso   1.00
H256   H     0.47269   0.45963   0.08986   0.00000  Uiso   1.00
H257   H     0.66989   0.40353   0.23248   0.00000  Uiso   1.00
H258   H     0.40059   0.27266   0.44807   0.00000  Uiso   1.00
H259   H     0.40041   0.51604   0.89108   0.00000  Uiso   1.00
H260   H     0.81626   0.39773   0.19181   0.00000  Uiso   1.00
H261   H     0.54512   0.33015   0.72446   0.00000  Uiso   1.00
H262   H     0.47962   0.26998   0.83964   0.00000  Uiso   1.00
H263   H     0.47953   0.38540   0.57548   0.00000  Uiso   1.00
H264   H     0.67673   0.32929   0.71810   0.00000  Uiso   1.00
H265   H     0.40614   0.21241   0.03058   0.00000  Uiso   1.00
H266   H     0.40597   0.45579   0.47358   0.00000  Uiso   1.00
H267   H     0.82181   0.33748   0.77431   0.00000  Uiso   1.00
O268   O     0.36014   0.20423   0.32387   0.00000  Uiso   1.00
O269   O     0.35992   0.52353   0.59312   0.00000  Uiso   1.00
O270   O     0.90550   0.36831   0.98767   0.00000  Uiso   1.00
N271   N     0.41090   0.26673   0.33402   0.00000  Uiso   1.00
N272   N     0.41072   0.49428   0.81327   0.00000  Uiso   1.00
N273   N     0.79950   0.38367   0.09440   0.00000  Uiso   1.00
N274   N     0.41388   0.23431   0.10937   0.00000  Uiso   1.00
N275   N     0.41371   0.46185   0.58862   0.00000  Uiso   1.00
N276   N     0.80249   0.35125   0.86975   0.00000  Uiso   1.00
C277   C     0.31893   0.88357   0.39765   0.00000  Uiso   1.00
C278   C     0.28421   0.84318   0.38795   0.00000  Uiso   1.00
C279   C     0.25351   0.82725   0.25459   0.00000  Uiso   1.00
C280   C     0.22455   0.78986   0.26991   0.00000  Uiso   1.00
C281   C     0.17034   0.73029   0.23303   0.00000  Uiso   1.00
C282   C     0.28368   0.90592   0.53126   0.00000  Uiso   1.00
C283   C     0.25255   0.94274   0.51838   0.00000  Uiso   1.00
C284   C     0.22315   0.95817   0.65434   0.00000  Uiso   1.00
C285   C     0.16817   0.99602   0.83997   0.00000  Uiso   1.00
C286   C     0.39107   0.87554   0.45491   0.00000  Uiso   1.00
C287   C     0.45023   0.88683   0.37786   0.00000  Uiso   1.00
C288   C     0.51124   0.87669   0.44956   0.00000  Uiso   1.00
C289   C     0.62299   0.86737   0.51664   0.00000  Uiso   1.00
C290   C     0.32210   0.84551   0.66200   0.00000  Uiso   1.00
C291   C     0.28593   0.82250   0.53154   0.00000  Uiso   1.00
C292   C     0.25701   0.78513   0.54706   0.00000  Uiso   1.00
C293   C     0.22627   0.76915   0.41375   0.00000  Uiso   1.00
C294   C     0.28540   0.88524   0.67484   0.00000  Uiso   1.00
C295   C     0.25605   0.90063   0.81085   0.00000  Uiso   1.00
C296   C     0.22487   0.93746   0.79819   0.00000  Uiso   1.00
C297   C     0.39279   0.85486   0.59849   0.00000  Uiso   1.00
C298   C     0.45373   0.84471   0.67033   0.00000  Uiso   1.00
C299   C     0.51297   0.85597   0.59340   0.00000  Uiso   1.00
H300   H     0.31759   0.89967   0.28587   0.00000  Uiso   1.00
H301   H     0.25218   0.84326   0.14350   0.00000  Uiso   1.00
H302   H     0.25123   0.95874   0.40726   0.00000  Uiso   1.00
H303   H     0.44887   0.90282   0.26675   0.00000  Uiso   1.00
H304   H     0.18040   0.77160   0.04899   0.00000  Uiso   1.00
H305   H     0.17841   0.01510   0.60514   0.00000  Uiso   1.00
H306   H     0.59519   0.89720   0.30886   0.00000  Uiso   1.00
H307   H     0.32344   0.82941   0.77380   0.00000  Uiso   1.00
H308   H     0.25835   0.76914   0.65819   0.00000  Uiso   1.00
H309   H     0.25740   0.88462   0.92195   0.00000  Uiso   1.00
H310   H     0.45504   0.82871   0.78144   0.00000  Uiso   1.00
H311   H     0.18540   0.71145   0.46674   0.00000  Uiso   1.00
H312   H     0.18342   0.95495   0.02290   0.00000  Uiso   1.00
H313   H     0.60019   0.83705   0.72661   0.00000  Uiso   1.00
O314   O     0.13996   0.70315   0.17303   0.00000  Uiso   1.00
O315   O     0.13736   0.02261   0.90268   0.00000  Uiso   1.00
O316   O     0.68416   0.86793   0.51396   0.00000  Uiso   1.00
N317   N     0.19052   0.76571   0.16316   0.00000  Uiso   1.00
N318   N     0.18865   0.99337   0.68313   0.00000  Uiso   1.00
N319   N     0.57830   0.88315   0.40615   0.00000  Uiso   1.00
N320   N     0.19322   0.73334   0.38795   0.00000  Uiso   1.00
N321   N     0.19135   0.96100   0.90792   0.00000  Uiso   1.00
N322   N     0.58100   0.85078   0.63094   0.00000  Uiso   1.00
C323   C     0.45988   0.61560   0.10038   0.00000  Uiso   1.00
C324   C     0.49475   0.65596   0.10988   0.00000  Uiso   1.00
C325   C     0.52575   0.67182   0.24299   0.00000  Uiso   1.00
C326   C     0.55481   0.70918   0.22752   0.00000  Uiso   1.00
C327   C     0.60928   0.76868   0.26408   0.00000  Uiso   1.00
C328   C     0.49481   0.59325   0.96636   0.00000  Uiso   1.00
C329   C     0.52585   0.55639   0.97880   0.00000  Uiso   1.00
C330   C     0.55495   0.54095   0.84251   0.00000  Uiso   1.00
C331   C     0.60947   0.50308   0.65622   0.00000  Uiso   1.00
C332   C     0.38767   0.62373   0.04385   0.00000  Uiso   1.00
C333   C     0.32861   0.61250   0.12144   0.00000  Uiso   1.00
C334   C     0.26750   0.62272   0.05037   0.00000  Uiso   1.00
C335   C     0.15566   0.63218   0.98440   0.00000  Uiso   1.00
C336   C     0.45636   0.65373   0.83619   0.00000  Uiso   1.00
C337   C     0.49284   0.67666   0.96637   0.00000  Uiso   1.00
C338   C     0.52186   0.71401   0.95070   0.00000  Uiso   1.00
C339   C     0.55289   0.72993   0.08377   0.00000  Uiso   1.00
C340   C     0.49290   0.61395   0.82286   0.00000  Uiso   1.00
C341   C     0.52196   0.59857   0.68651   0.00000  Uiso   1.00
C342   C     0.55304   0.56169   0.69875   0.00000  Uiso   1.00
C343   C     0.38576   0.64444   0.90036   0.00000  Uiso   1.00
C344   C     0.32473   0.65468   0.82914   0.00000  Uiso   1.00
C345   C     0.26559   0.64347   0.90661   0.00000  Uiso   1.00
H346   H     0.46137   0.59948   0.21209   0.00000  Uiso   1.00
H347   H     0.52722   0.65579   0.35402   0.00000  Uiso   1.00
H348   H     0.52731   0.54037   0.08986   0.00000  Uiso   1.00
H349   H     0.33011   0.59647   0.23248   0.00000  Uiso   1.00
H350   H     0.59941   0.72734   0.44807   0.00000  Uiso   1.00
H351   H     0.59959   0.48396   0.89108   0.00000  Uiso   1.00
H352   H     0.18374   0.60227   0.19181   0.00000  Uiso   1.00
H353   H     0.45488   0.66985   0.72446   0.00000  Uiso   1.00
H354   H     0.52038   0.73002   0.83964   0.00000  Uiso   1.00
H355   H     0.52047   0.61460   0.57548   0.00000  Uiso   1.00
H356   H     0.32327   0.67071   0.71810   0.00000  Uiso   1.00
H357   H     0.59386   0.78759   0.03058   0.00000  Uiso   1.00
H358   H     0.59403   0.54421   0.47358   0.00000  Uiso   1.00
H359   H     0.17819   0.66252   0.77431   0.00000  Uiso   1.00
O360   O     0.63986   0.79577   0.32387   0.00000  Uiso   1.00
O361   O     0.64008   0.47647   0.59312   0.00000  Uiso   1.00
O362   O     0.09450   0.63169   0.98767   0.00000  Uiso   1.00
N363   N     0.58910   0.73327   0.33402   0.00000  Uiso   1.00
N364   N     0.58928   0.50572   0.81327   0.00000  Uiso   1.00
N365   N     0.20050   0.61633   0.09440   0.00000  Uiso   1.00
N366   N     0.58612   0.76569   0.10937   0.00000  Uiso   1.00
N367   N     0.58629   0.53815   0.58862   0.00000  Uiso   1.00
N368   N     0.19751   0.64875   0.86975   0.00000  Uiso   1.00
