data_job_06022
_audit_creation_date              2018-12-19
_audit_creation_method            'Materials Studio'
_symmetry_space_group_name_H-M    'P1'
_symmetry_Int_Tables_number       1
_symmetry_cell_setting            triclinic
loop_
_symmetry_equiv_pos_as_xyz
  x,y,z
_cell_length_a                    17.2524
_cell_length_b                    16.8559
_cell_length_c                    16.4489
_cell_angle_alpha                 98.6155
_cell_angle_beta                  100.5520
_cell_angle_gamma                 102.4790
loop_
_atom_site_label
_atom_site_type_symbol
_atom_site_fract_x
_atom_site_fract_y
_atom_site_fract_z
_atom_site_U_iso_or_equiv
_atom_site_adp_type
_atom_site_occupancy
C1     C     0.58514   0.63038   0.13267   0.00000  Uiso   1.00
C2     C     0.52219   0.60757   0.18490   0.00000  Uiso   1.00
C3     C     0.46661   0.53139   0.17214   0.00000  Uiso   1.00
C4     C     0.41412   0.52287   0.22674   0.00000  Uiso   1.00
C5     C     0.31595   0.47750   0.29797   0.00000  Uiso   1.00
C6     C     0.66755   0.65914   0.19493   0.00000  Uiso   1.00
C7     C     0.73419   0.62631   0.19059   0.00000  Uiso   1.00
C8     C     0.80407   0.66121   0.25363   0.00000  Uiso   1.00
C9     C     0.93159   0.69594   0.34040   0.00000  Uiso   1.00
C10    C     0.56953   0.70689   0.10019   0.00000  Uiso   1.00
C11    C     0.55377   0.71424   0.01620   0.00000  Uiso   1.00
C12    C     0.54115   0.78936   0.99949   0.00000  Uiso   1.00
C13    C     0.51647   0.89823   0.93917   0.00000  Uiso   1.00
C14    C     0.59076   0.75073   0.25233   0.00000  Uiso   1.00
C15    C     0.52524   0.67294   0.24989   0.00000  Uiso   1.00
C16    C     0.47282   0.66454   0.30453   0.00000  Uiso   1.00
C17    C     0.41718   0.58836   0.29185   0.00000  Uiso   1.00
C18    C     0.67060   0.72450   0.25992   0.00000  Uiso   1.00
C19    C     0.74041   0.75946   0.32298   0.00000  Uiso   1.00
C20    C     0.80713   0.72670   0.31874   0.00000  Uiso   1.00
C21    C     0.57258   0.77226   0.16519   0.00000  Uiso   1.00
C22    C     0.55998   0.84739   0.14860   0.00000  Uiso   1.00
C23    C     0.54420   0.85484   0.06460   0.00000  Uiso   1.00
H24    H     0.58277   0.57949   0.08207   0.00000  Uiso   1.00
H25    H     0.46428   0.48081   0.12184   0.00000  Uiso   1.00
H26    H     0.73181   0.57573   0.14028   0.00000  Uiso   1.00
H27    H     0.55142   0.66364   0.96592   0.00000  Uiso   1.00
H28    H     0.33427   0.40023   0.19460   0.00000  Uiso   1.00
H29    H     0.89840   0.60039   0.23348   0.00000  Uiso   1.00
H30    H     0.51800   0.78576   0.86581   0.00000  Uiso   1.00
H31    H     0.59313   0.80162   0.30293   0.00000  Uiso   1.00
H32    H     0.47520   0.71514   0.35482   0.00000  Uiso   1.00
H33    H     0.74274   0.81005   0.37326   0.00000  Uiso   1.00
H34    H     0.56235   0.89796   0.19891   0.00000  Uiso   1.00
H35    H     0.34314   0.59042   0.38370   0.00000  Uiso   1.00
H36    H     0.90728   0.79058   0.42258   0.00000  Uiso   1.00
H37    H     0.52687   0.97595   0.05492   0.00000  Uiso   1.00
O38    O     0.26096   0.43442   0.31932   0.00000  Uiso   1.00
O39    O     0.00108   0.69703   0.37031   0.00000  Uiso   1.00
O40    O     0.50200   0.94023   0.88794   0.00000  Uiso   1.00
N41    N     0.35253   0.45687   0.23198   0.00000  Uiso   1.00
N42    N     0.87995   0.64399   0.26833   0.00000  Uiso   1.00
N43    N     0.52434   0.81731   0.92460   0.00000  Uiso   1.00
N44    N     0.35730   0.55921   0.33373   0.00000  Uiso   1.00
N45    N     0.88473   0.74633   0.37008   0.00000  Uiso   1.00
N46    N     0.52911   0.91965   0.02635   0.00000  Uiso   1.00
C47    C     0.13321   0.59100   0.62292   0.00000  Uiso   1.00
C48    C     0.18476   0.53037   0.60458   0.00000  Uiso   1.00
C49    C     0.17393   0.47635   0.52860   0.00000  Uiso   1.00
C50    C     0.22749   0.42588   0.52451   0.00000  Uiso   1.00
C51    C     0.29811   0.33122   0.48546   0.00000  Uiso   1.00
C52    C     0.19244   0.67642   0.65220   0.00000  Uiso   1.00
C53    C     0.18805   0.74521   0.61627   0.00000  Uiso   1.00
C54    C     0.24808   0.81769   0.65227   0.00000  Uiso   1.00
C55    C     0.33059   0.94981   0.68718   0.00000  Uiso   1.00
C56    C     0.10082   0.57063   0.69959   0.00000  Uiso   1.00
C57    C     0.01940   0.55049   0.70351   0.00000  Uiso   1.00
C58    C     0.00230   0.53393   0.77941   0.00000  Uiso   1.00
C59    C     0.94255   0.50179   0.88790   0.00000  Uiso   1.00
C60    C     0.24760   0.59743   0.75076   0.00000  Uiso   1.00
C61    C     0.24689   0.53386   0.67402   0.00000  Uiso   1.00
C62    C     0.30049   0.48346   0.67004   0.00000  Uiso   1.00
C63    C     0.28974   0.42937   0.59407   0.00000  Uiso   1.00
C64    C     0.25457   0.67992   0.72164   0.00000  Uiso   1.00
C65    C     0.31461   0.75232   0.75771   0.00000  Uiso   1.00
C66    C     0.31032   0.82119   0.72183   0.00000  Uiso   1.00
C67    C     0.16295   0.57413   0.76903   0.00000  Uiso   1.00
C68    C     0.14596   0.55760   0.84494   0.00000  Uiso   1.00
C69    C     0.06454   0.53743   0.84898   0.00000  Uiso   1.00
H70    H     0.08484   0.58829   0.56886   0.00000  Uiso   1.00
H71    H     0.12584   0.47367   0.47488   0.00000  Uiso   1.00
H72    H     0.13996   0.74248   0.56254   0.00000  Uiso   1.00
H73    H     0.97134   0.54780   0.64976   0.00000  Uiso   1.00
H74    H     0.19872   0.34815   0.40129   0.00000  Uiso   1.00
H75    H     0.22848   0.91497   0.58614   0.00000  Uiso   1.00
H76    H     0.87290   0.50444   0.77007   0.00000  Uiso   1.00
H77    H     0.29597   0.60016   0.80482   0.00000  Uiso   1.00
H78    H     0.34856   0.48618   0.72379   0.00000  Uiso   1.00
H79    H     0.36268   0.75500   0.81144   0.00000  Uiso   1.00
H80    H     0.19406   0.56031   0.89867   0.00000  Uiso   1.00
H81    H     0.37949   0.35830   0.60332   0.00000  Uiso   1.00
H82    H     0.40924   0.92514   0.78816   0.00000  Uiso   1.00
H83    H     0.05367   0.51459   0.97209   0.00000  Uiso   1.00
O84    O     0.31991   0.27805   0.44473   0.00000  Uiso   1.00
O85    O     0.35894   0.02171   0.68725   0.00000  Uiso   1.00
O86    O     0.89243   0.48309   0.92856   0.00000  Uiso   1.00
N87    N     0.23404   0.36617   0.45997   0.00000  Uiso   1.00
N88    N     0.26187   0.89611   0.63278   0.00000  Uiso   1.00
N89    N     0.92944   0.51232   0.80474   0.00000  Uiso   1.00
N90    N     0.33131   0.37163   0.56867   0.00000  Uiso   1.00
N91    N     0.35913   0.90158   0.74148   0.00000  Uiso   1.00
N92    N     0.02671   0.51778   0.91345   0.00000  Uiso   1.00
C93    C     0.62586   0.12189   0.58650   0.00000  Uiso   1.00
C94    C     0.60841   0.17580   0.52218   0.00000  Uiso   1.00
C95    C     0.53555   0.16345   0.46401   0.00000  Uiso   1.00
C96    C     0.53176   0.21967   0.41064   0.00000  Uiso   1.00
C97    C     0.49450   0.29334   0.31009   0.00000  Uiso   1.00
C98    C     0.65256   0.18001   0.67253   0.00000  Uiso   1.00
C99    C     0.61682   0.17119   0.74077   0.00000  Uiso   1.00
C100   C     0.65020   0.23094   0.81397   0.00000  Uiso   1.00
C101   C     0.68152   0.31111   0.94685   0.00000  Uiso   1.00
C102   C     0.70080   0.09331   0.57073   0.00000  Uiso   1.00
C103   C     0.70563   0.01160   0.55340   0.00000  Uiso   1.00
C104   C     0.77964   0.99836   0.54090   0.00000  Uiso   1.00
C105   C     0.88586   0.94392   0.51572   0.00000  Uiso   1.00
C106   C     0.74871   0.24367   0.59517   0.00000  Uiso   1.00
C107   C     0.67514   0.24195   0.52689   0.00000  Uiso   1.00
C108   C     0.67146   0.29819   0.47360   0.00000  Uiso   1.00
C109   C     0.59860   0.28593   0.41535   0.00000  Uiso   1.00
C110   C     0.71928   0.24616   0.67724   0.00000  Uiso   1.00
C111   C     0.75273   0.30593   0.75036   0.00000  Uiso   1.00
C112   C     0.71705   0.29720   0.81869   0.00000  Uiso   1.00
C113   C     0.76753   0.15946   0.57543   0.00000  Uiso   1.00
C114   C     0.84154   0.14634   0.56298   0.00000  Uiso   1.00
C115   C     0.84649   0.06462   0.54562   0.00000  Uiso   1.00
H116   H     0.57392   0.07039   0.58284   0.00000  Uiso   1.00
H117   H     0.48392   0.11226   0.46040   0.00000  Uiso   1.00
H118   H     0.56519   0.11999   0.73711   0.00000  Uiso   1.00
H119   H     0.65399   0.96043   0.54976   0.00000  Uiso   1.00
H120   H     0.41356   0.18787   0.32674   0.00000  Uiso   1.00
H121   H     0.58493   0.20415   0.91022   0.00000  Uiso   1.00
H122   H     0.77218   0.86768   0.51515   0.00000  Uiso   1.00
H123   H     0.80066   0.29517   0.59883   0.00000  Uiso   1.00
H124   H     0.72311   0.34938   0.47725   0.00000  Uiso   1.00
H125   H     0.80437   0.35711   0.75398   0.00000  Uiso   1.00
H126   H     0.89317   0.19755   0.56662   0.00000  Uiso   1.00
H127   H     0.60769   0.38033   0.34042   0.00000  Uiso   1.00
H128   H     0.77906   0.39660   0.92391   0.00000  Uiso   1.00
H129   H     0.96631   0.06014   0.52884   0.00000  Uiso   1.00
O130   O     0.45551   0.31572   0.25333   0.00000  Uiso   1.00
O131   O     0.68035   0.33706   0.01885   0.00000  Uiso   1.00
O132   O     0.92601   0.89563   0.50052   0.00000  Uiso   1.00
N133   N     0.46990   0.22572   0.34663   0.00000  Uiso   1.00
N134   N     0.63011   0.24094   0.89215   0.00000  Uiso   1.00
N135   N     0.80518   0.92637   0.52282   0.00000  Uiso   1.00
N136   N     0.57436   0.32927   0.35399   0.00000  Uiso   1.00
N137   N     0.73457   0.34450   0.89951   0.00000  Uiso   1.00
N138   N     0.90964   0.02993   0.53018   0.00000  Uiso   1.00
C139   C     0.41486   0.36962   0.86733   0.00000  Uiso   1.00
C140   C     0.47781   0.39243   0.81510   0.00000  Uiso   1.00
C141   C     0.53339   0.46861   0.82786   0.00000  Uiso   1.00
C142   C     0.58588   0.47713   0.77326   0.00000  Uiso   1.00
C143   C     0.68405   0.52250   0.70203   0.00000  Uiso   1.00
C144   C     0.33245   0.34086   0.80507   0.00000  Uiso   1.00
C145   C     0.26581   0.37369   0.80941   0.00000  Uiso   1.00
C146   C     0.19593   0.33879   0.74637   0.00000  Uiso   1.00
C147   C     0.06841   0.30406   0.65960   0.00000  Uiso   1.00
C148   C     0.43047   0.29311   0.89981   0.00000  Uiso   1.00
C149   C     0.44623   0.28576   0.98380   0.00000  Uiso   1.00
C150   C     0.45885   0.21064   0.00051   0.00000  Uiso   1.00
C151   C     0.48353   0.10177   0.06083   0.00000  Uiso   1.00
C152   C     0.40924   0.24927   0.74767   0.00000  Uiso   1.00
C153   C     0.47476   0.32706   0.75011   0.00000  Uiso   1.00
C154   C     0.52718   0.33546   0.69547   0.00000  Uiso   1.00
C155   C     0.58282   0.41164   0.70815   0.00000  Uiso   1.00
C156   C     0.32940   0.27550   0.74008   0.00000  Uiso   1.00
C157   C     0.25959   0.24054   0.67702   0.00000  Uiso   1.00
C158   C     0.19287   0.27330   0.68126   0.00000  Uiso   1.00
C159   C     0.42742   0.22774   0.83481   0.00000  Uiso   1.00
C160   C     0.44002   0.15261   0.85140   0.00000  Uiso   1.00
C161   C     0.45580   0.14516   0.93540   0.00000  Uiso   1.00
H162   H     0.41723   0.42051   0.91793   0.00000  Uiso   1.00
H163   H     0.53573   0.51919   0.87816   0.00000  Uiso   1.00
H164   H     0.26819   0.42427   0.85972   0.00000  Uiso   1.00
H165   H     0.44858   0.33636   0.03408   0.00000  Uiso   1.00
H166   H     0.66573   0.59977   0.80540   0.00000  Uiso   1.00
H167   H     0.10160   0.39961   0.76652   0.00000  Uiso   1.00
H168   H     0.48200   0.21424   0.13419   0.00000  Uiso   1.00
H169   H     0.40687   0.19838   0.69707   0.00000  Uiso   1.00
H170   H     0.52480   0.28486   0.64518   0.00000  Uiso   1.00
H171   H     0.25726   0.18995   0.62674   0.00000  Uiso   1.00
H172   H     0.43765   0.10204   0.80109   0.00000  Uiso   1.00
H173   H     0.65686   0.40958   0.61630   0.00000  Uiso   1.00
H174   H     0.09272   0.20942   0.57742   0.00000  Uiso   1.00
H175   H     0.47313   0.02405   0.94508   0.00000  Uiso   1.00
O176   O     0.73904   0.56558   0.68068   0.00000  Uiso   1.00
O177   O     0.99892   0.30297   0.62969   0.00000  Uiso   1.00
O178   O     0.49800   0.05977   0.11206   0.00000  Uiso   1.00
N179   N     0.64747   0.54313   0.76802   0.00000  Uiso   1.00
N180   N     0.12005   0.35601   0.73167   0.00000  Uiso   1.00
N181   N     0.47566   0.18269   0.07540   0.00000  Uiso   1.00
N182   N     0.64270   0.44079   0.66627   0.00000  Uiso   1.00
N183   N     0.11527   0.25367   0.62991   0.00000  Uiso   1.00
N184   N     0.47089   0.08035   0.97365   0.00000  Uiso   1.00
C185   C     0.86679   0.40900   0.37708   0.00000  Uiso   1.00
C186   C     0.81524   0.46963   0.39542   0.00000  Uiso   1.00
C187   C     0.82607   0.52365   0.47140   0.00000  Uiso   1.00
C188   C     0.77251   0.57412   0.47549   0.00000  Uiso   1.00
C189   C     0.70189   0.66878   0.51454   0.00000  Uiso   1.00
C190   C     0.80756   0.32358   0.34780   0.00000  Uiso   1.00
C191   C     0.81195   0.25479   0.38373   0.00000  Uiso   1.00
C192   C     0.75192   0.18231   0.34773   0.00000  Uiso   1.00
C193   C     0.66941   0.05019   0.31281   0.00000  Uiso   1.00
C194   C     0.89918   0.42937   0.30041   0.00000  Uiso   1.00
C195   C     0.98060   0.44951   0.29649   0.00000  Uiso   1.00
C196   C     0.99770   0.46607   0.22059   0.00000  Uiso   1.00
C197   C     0.05745   0.49821   0.11210   0.00000  Uiso   1.00
C198   C     0.75240   0.40257   0.24924   0.00000  Uiso   1.00
C199   C     0.75311   0.46614   0.32598   0.00000  Uiso   1.00
C200   C     0.69951   0.51654   0.32996   0.00000  Uiso   1.00
C201   C     0.71026   0.57063   0.40593   0.00000  Uiso   1.00
C202   C     0.74543   0.32008   0.27836   0.00000  Uiso   1.00
C203   C     0.68539   0.24768   0.24229   0.00000  Uiso   1.00
C204   C     0.68968   0.17881   0.27817   0.00000  Uiso   1.00
C205   C     0.83705   0.42587   0.23097   0.00000  Uiso   1.00
C206   C     0.85404   0.44240   0.15506   0.00000  Uiso   1.00
C207   C     0.93546   0.46257   0.15102   0.00000  Uiso   1.00
H208   H     0.91516   0.41171   0.43114   0.00000  Uiso   1.00
H209   H     0.87416   0.52633   0.52512   0.00000  Uiso   1.00
H210   H     0.86004   0.25752   0.43746   0.00000  Uiso   1.00
H211   H     0.02866   0.45220   0.35024   0.00000  Uiso   1.00
H212   H     0.80128   0.65185   0.59871   0.00000  Uiso   1.00
H213   H     0.77152   0.08503   0.41386   0.00000  Uiso   1.00
H214   H     0.12710   0.49556   0.22993   0.00000  Uiso   1.00
H215   H     0.70403   0.39984   0.19518   0.00000  Uiso   1.00
H216   H     0.65144   0.51382   0.27621   0.00000  Uiso   1.00
H217   H     0.63732   0.24500   0.18856   0.00000  Uiso   1.00
H218   H     0.80594   0.43969   0.10133   0.00000  Uiso   1.00
H219   H     0.62051   0.64170   0.39668   0.00000  Uiso   1.00
H220   H     0.59076   0.07486   0.21184   0.00000  Uiso   1.00
H221   H     0.94633   0.48540   0.02791   0.00000  Uiso   1.00
O222   O     0.68009   0.72195   0.55527   0.00000  Uiso   1.00
O223   O     0.64106   0.97829   0.31275   0.00000  Uiso   1.00
O224   O     0.10757   0.51691   0.07144   0.00000  Uiso   1.00
N225   N     0.76596   0.63383   0.54003   0.00000  Uiso   1.00
N226   N     0.73813   0.10389   0.36722   0.00000  Uiso   1.00
N227   N     0.07056   0.48768   0.19526   0.00000  Uiso   1.00
N228   N     0.66869   0.62837   0.43133   0.00000  Uiso   1.00
N229   N     0.64087   0.09842   0.25851   0.00000  Uiso   1.00
N230   N     0.97329   0.48222   0.08655   0.00000  Uiso   1.00
C231   C     0.37414   0.87811   0.41350   0.00000  Uiso   1.00
C232   C     0.39159   0.82420   0.47782   0.00000  Uiso   1.00
C233   C     0.46445   0.83655   0.53599   0.00000  Uiso   1.00
C234   C     0.46824   0.78033   0.58936   0.00000  Uiso   1.00
C235   C     0.50550   0.70666   0.68991   0.00000  Uiso   1.00
C236   C     0.34744   0.81999   0.32747   0.00000  Uiso   1.00
C237   C     0.38318   0.82881   0.25923   0.00000  Uiso   1.00
C238   C     0.34980   0.76906   0.18603   0.00000  Uiso   1.00
C239   C     0.31848   0.68889   0.05315   0.00000  Uiso   1.00
C240   C     0.29920   0.90669   0.42927   0.00000  Uiso   1.00
C241   C     0.29437   0.98840   0.44660   0.00000  Uiso   1.00
C242   C     0.22036   0.00164   0.45910   0.00000  Uiso   1.00
C243   C     0.11414   0.05608   0.48428   0.00000  Uiso   1.00
C244   C     0.25129   0.75633   0.40483   0.00000  Uiso   1.00
C245   C     0.32486   0.75805   0.47311   0.00000  Uiso   1.00
C246   C     0.32854   0.70181   0.52640   0.00000  Uiso   1.00
C247   C     0.40140   0.71407   0.58465   0.00000  Uiso   1.00
C248   C     0.28072   0.75384   0.32276   0.00000  Uiso   1.00
C249   C     0.24727   0.69407   0.24964   0.00000  Uiso   1.00
C250   C     0.28295   0.70280   0.18131   0.00000  Uiso   1.00
C251   C     0.23247   0.84054   0.42457   0.00000  Uiso   1.00
C252   C     0.15846   0.85366   0.43702   0.00000  Uiso   1.00
C253   C     0.15351   0.93538   0.45438   0.00000  Uiso   1.00
H254   H     0.42608   0.92961   0.41716   0.00000  Uiso   1.00
H255   H     0.51608   0.88774   0.53960   0.00000  Uiso   1.00
H256   H     0.43481   0.88001   0.26289   0.00000  Uiso   1.00
H257   H     0.34601   0.03957   0.45024   0.00000  Uiso   1.00
H258   H     0.58644   0.81213   0.67326   0.00000  Uiso   1.00
H259   H     0.41507   0.79585   0.08978   0.00000  Uiso   1.00
H260   H     0.22782   0.13232   0.48485   0.00000  Uiso   1.00
H261   H     0.19934   0.70483   0.40117   0.00000  Uiso   1.00
H262   H     0.27689   0.65062   0.52275   0.00000  Uiso   1.00
H263   H     0.19563   0.64289   0.24602   0.00000  Uiso   1.00
H264   H     0.10683   0.80245   0.43338   0.00000  Uiso   1.00
H265   H     0.39231   0.61967   0.65958   0.00000  Uiso   1.00
H266   H     0.22094   0.60340   0.07609   0.00000  Uiso   1.00
H267   H     0.03369   0.93986   0.47116   0.00000  Uiso   1.00
O268   O     0.54449   0.68428   0.74667   0.00000  Uiso   1.00
O269   O     0.31965   0.66294   0.98115   0.00000  Uiso   1.00
O270   O     0.07399   0.10437   0.49948   0.00000  Uiso   1.00
N271   N     0.53010   0.77428   0.65337   0.00000  Uiso   1.00
N272   N     0.36989   0.75906   0.10785   0.00000  Uiso   1.00
N273   N     0.19482   0.07363   0.47718   0.00000  Uiso   1.00
N274   N     0.42564   0.67072   0.64601   0.00000  Uiso   1.00
N275   N     0.26543   0.65550   0.10049   0.00000  Uiso   1.00
N276   N     0.09036   0.97007   0.46982   0.00000  Uiso   1.00
