data_job_05110
_audit_creation_date              2018-12-19
_audit_creation_method            'Materials Studio'
_symmetry_space_group_name_H-M    'P1'
_symmetry_Int_Tables_number       1
_symmetry_cell_setting            triclinic
loop_
_symmetry_equiv_pos_as_xyz
  x,y,z
_cell_length_a                    21.5676
_cell_length_b                    12.4094
_cell_length_c                    21.2898
_cell_angle_alpha                 90.0000
_cell_angle_beta                  90.0000
_cell_angle_gamma                 90.0000
loop_
_atom_site_label
_atom_site_type_symbol
_atom_site_fract_x
_atom_site_fract_y
_atom_site_fract_z
_atom_site_U_iso_or_equiv
_atom_site_adp_type
_atom_site_occupancy
C1     C     0.64169   0.09700   0.95068   0.00000  Uiso   1.00
C2     C     0.69365   0.10559   0.99900   0.00000  Uiso   1.00
C3     C     0.68796   0.08589   0.06291   0.00000  Uiso   1.00
C4     C     0.74095   0.09819   0.09922   0.00000  Uiso   1.00
C5     C     0.81301   0.10688   0.17831   0.00000  Uiso   1.00
C6     C     0.63839   0.20653   0.91838   0.00000  Uiso   1.00
C7     C     0.58623   0.27169   0.91450   0.00000  Uiso   1.00
C8     C     0.59271   0.36896   0.88294   0.00000  Uiso   1.00
C9     C     0.57896   0.53433   0.83683   0.00000  Uiso   1.00
C10    C     0.66446   0.01786   0.90099   0.00000  Uiso   1.00
C11    C     0.63422   0.92440   0.88246   0.00000  Uiso   1.00
C12    C     0.66265   0.86283   0.83624   0.00000  Uiso   1.00
C13    C     0.68940   0.73526   0.76312   0.00000  Uiso   1.00
C14    C     0.74593   0.15387   0.90154   0.00000  Uiso   1.00
C15    C     0.75027   0.13648   0.97230   0.00000  Uiso   1.00
C16    C     0.80329   0.14881   0.00853   0.00000  Uiso   1.00
C17    C     0.79768   0.12913   0.07248   0.00000  Uiso   1.00
C18    C     0.69500   0.23742   0.89169   0.00000  Uiso   1.00
C19    C     0.70156   0.33461   0.86012   0.00000  Uiso   1.00
C20    C     0.64943   0.39990   0.85620   0.00000  Uiso   1.00
C21    C     0.72109   0.04875   0.87429   0.00000  Uiso   1.00
C22    C     0.74956   0.98731   0.82809   0.00000  Uiso   1.00
C23    C     0.71938   0.89377   0.80950   0.00000  Uiso   1.00
H24    H     0.59760   0.07296   0.97146   0.00000  Uiso   1.00
H25    H     0.64413   0.06200   0.08355   0.00000  Uiso   1.00
H26    H     0.54242   0.24777   0.93516   0.00000  Uiso   1.00
H27    H     0.59041   0.90052   0.90313   0.00000  Uiso   1.00
H28    H     0.72067   0.06351   0.19605   0.00000  Uiso   1.00
H29    H     0.50620   0.45519   0.88314   0.00000  Uiso   1.00
H30    H     0.60740   0.72296   0.81559   0.00000  Uiso   1.00
H31    H     0.79001   0.17792   0.88075   0.00000  Uiso   1.00
H32    H     0.84710   0.17271   0.98786   0.00000  Uiso   1.00
H33    H     0.74539   0.35848   0.83947   0.00000  Uiso   1.00
H34    H     0.79338   0.01124   0.80744   0.00000  Uiso   1.00
H35    H     0.88541   0.15337   0.11838   0.00000  Uiso   1.00
H36    H     0.67094   0.54505   0.80547   0.00000  Uiso   1.00
H37    H     0.77214   0.81282   0.73793   0.00000  Uiso   1.00
O38    O     0.83712   0.10316   0.22931   0.00000  Uiso   1.00
O39    O     0.55574   0.61701   0.81878   0.00000  Uiso   1.00
O40    O     0.68851   0.65635   0.73017   0.00000  Uiso   1.00
N41    N     0.75161   0.08535   0.16307   0.00000  Uiso   1.00
N42    N     0.55110   0.45156   0.87052   0.00000  Uiso   1.00
N43    N     0.64570   0.76700   0.80737   0.00000  Uiso   1.00
N44    N     0.84026   0.13370   0.12128   0.00000  Uiso   1.00
N45    N     0.63974   0.49991   0.82873   0.00000  Uiso   1.00
N46    N     0.73435   0.81535   0.76558   0.00000  Uiso   1.00
C47    C     0.05227   0.37166   0.09519   0.00000  Uiso   1.00
C48    C     0.00023   0.37934   0.04690   0.00000  Uiso   1.00
C49    C     0.00584   0.35864   0.98310   0.00000  Uiso   1.00
C50    C     0.95278   0.37022   0.94680   0.00000  Uiso   1.00
C51    C     0.88059   0.37746   0.86778   0.00000  Uiso   1.00
C52    C     0.05553   0.48171   0.12688   0.00000  Uiso   1.00
C53    C     0.10764   0.54706   0.13033   0.00000  Uiso   1.00
C54    C     0.10112   0.64481   0.16137   0.00000  Uiso   1.00
C55    C     0.11480   0.81095   0.20656   0.00000  Uiso   1.00
C56    C     0.02964   0.29326   0.14535   0.00000  Uiso   1.00
C57    C     0.05998   0.20018   0.16433   0.00000  Uiso   1.00
C58    C     0.03168   0.13928   0.21093   0.00000  Uiso   1.00
C59    C     0.00515   0.01281   0.28478   0.00000  Uiso   1.00
C60    C     0.94805   0.42904   0.14418   0.00000  Uiso   1.00
C61    C     0.94363   0.41052   0.07352   0.00000  Uiso   1.00
C62    C     0.89054   0.42213   0.03731   0.00000  Uiso   1.00
C63    C     0.89607   0.40144   0.97346   0.00000  Uiso   1.00
C64    C     0.99892   0.51288   0.15350   0.00000  Uiso   1.00
C65    C     0.99233   0.61055   0.18454   0.00000  Uiso   1.00
C66    C     0.04441   0.67604   0.18803   0.00000  Uiso   1.00
C67    C     0.97303   0.32443   0.17196   0.00000  Uiso   1.00
C68    C     0.94468   0.26367   0.21854   0.00000  Uiso   1.00
C69    C     0.97497   0.17050   0.23759   0.00000  Uiso   1.00
H70    H     0.09634   0.34740   0.07447   0.00000  Uiso   1.00
H71    H     0.04966   0.33453   0.96252   0.00000  Uiso   1.00
H72    H     0.15144   0.52292   0.10974   0.00000  Uiso   1.00
H73    H     0.10379   0.17608   0.14373   0.00000  Uiso   1.00
H74    H     0.97295   0.33404   0.85014   0.00000  Uiso   1.00
H75    H     0.18755   0.73126   0.16057   0.00000  Uiso   1.00
H76    H     0.08708   0.99989   0.23225   0.00000  Uiso   1.00
H77    H     0.90398   0.45331   0.16491   0.00000  Uiso   1.00
H78    H     0.84674   0.44625   0.05792   0.00000  Uiso   1.00
H79    H     0.94852   0.63464   0.20513   0.00000  Uiso   1.00
H80    H     0.90087   0.28781   0.23912   0.00000  Uiso   1.00
H81    H     0.80825   0.42473   0.92757   0.00000  Uiso   1.00
H82    H     0.02286   0.82194   0.23800   0.00000  Uiso   1.00
H83    H     0.92238   0.09057   0.30968   0.00000  Uiso   1.00
O84    O     0.85642   0.37286   0.81684   0.00000  Uiso   1.00
O85    O     0.13798   0.89398   0.22412   0.00000  Uiso   1.00
O86    O     0.00616   0.93444   0.31816   0.00000  Uiso   1.00
N87    N     0.94204   0.35633   0.88305   0.00000  Uiso   1.00
N88    N     0.14268   0.72771   0.17327   0.00000  Uiso   1.00
N89    N     0.04875   0.04396   0.24030   0.00000  Uiso   1.00
N90    N     0.85341   0.40513   0.92471   0.00000  Uiso   1.00
N91    N     0.05406   0.77651   0.21493   0.00000  Uiso   1.00
N92    N     0.96013   0.09275   0.28196   0.00000  Uiso   1.00
C93    C     0.35831   0.90300   0.45068   0.00000  Uiso   1.00
C94    C     0.30635   0.89441   0.49900   0.00000  Uiso   1.00
C95    C     0.31204   0.91411   0.56291   0.00000  Uiso   1.00
C96    C     0.25905   0.90181   0.59922   0.00000  Uiso   1.00
C97    C     0.18699   0.89312   0.67831   0.00000  Uiso   1.00
C98    C     0.36161   0.79347   0.41838   0.00000  Uiso   1.00
C99    C     0.41377   0.72831   0.41450   0.00000  Uiso   1.00
C100   C     0.40729   0.63104   0.38294   0.00000  Uiso   1.00
C101   C     0.42104   0.46567   0.33683   0.00000  Uiso   1.00
C102   C     0.33554   0.98214   0.40099   0.00000  Uiso   1.00
C103   C     0.36578   0.07560   0.38246   0.00000  Uiso   1.00
C104   C     0.33735   0.13717   0.33624   0.00000  Uiso   1.00
C105   C     0.31060   0.26474   0.26312   0.00000  Uiso   1.00
C106   C     0.25407   0.84613   0.40154   0.00000  Uiso   1.00
C107   C     0.24973   0.86352   0.47230   0.00000  Uiso   1.00
C108   C     0.19671   0.85119   0.50853   0.00000  Uiso   1.00
C109   C     0.20232   0.87087   0.57248   0.00000  Uiso   1.00
C110   C     0.30500   0.76258   0.39169   0.00000  Uiso   1.00
C111   C     0.29844   0.66539   0.36012   0.00000  Uiso   1.00
C112   C     0.35057   0.60010   0.35620   0.00000  Uiso   1.00
C113   C     0.27891   0.95125   0.37429   0.00000  Uiso   1.00
C114   C     0.25044   0.01269   0.32809   0.00000  Uiso   1.00
C115   C     0.28062   0.10623   0.30950   0.00000  Uiso   1.00
H116   H     0.40240   0.92704   0.47146   0.00000  Uiso   1.00
H117   H     0.35587   0.93800   0.58355   0.00000  Uiso   1.00
H118   H     0.45758   0.75223   0.43516   0.00000  Uiso   1.00
H119   H     0.40959   0.09948   0.40313   0.00000  Uiso   1.00
H120   H     0.27933   0.93649   0.69605   0.00000  Uiso   1.00
H121   H     0.49380   0.54481   0.38314   0.00000  Uiso   1.00
H122   H     0.39260   0.27704   0.31559   0.00000  Uiso   1.00
H123   H     0.20999   0.82208   0.38075   0.00000  Uiso   1.00
H124   H     0.15290   0.82729   0.48786   0.00000  Uiso   1.00
H125   H     0.25461   0.64152   0.33947   0.00000  Uiso   1.00
H126   H     0.20662   0.98876   0.30744   0.00000  Uiso   1.00
H127   H     0.11459   0.84663   0.61838   0.00000  Uiso   1.00
H128   H     0.32906   0.45495   0.30547   0.00000  Uiso   1.00
H129   H     0.22786   0.18718   0.23793   0.00000  Uiso   1.00
O130   O     0.16288   0.89684   0.72931   0.00000  Uiso   1.00
O131   O     0.44426   0.38299   0.31878   0.00000  Uiso   1.00
O132   O     0.31149   0.34365   0.23017   0.00000  Uiso   1.00
N133   N     0.24839   0.91465   0.66307   0.00000  Uiso   1.00
N134   N     0.44890   0.54844   0.37052   0.00000  Uiso   1.00
N135   N     0.35430   0.23300   0.30737   0.00000  Uiso   1.00
N136   N     0.15974   0.86630   0.62128   0.00000  Uiso   1.00
N137   N     0.36026   0.50009   0.32873   0.00000  Uiso   1.00
N138   N     0.26565   0.18465   0.26558   0.00000  Uiso   1.00
C139   C     0.94773   0.62834   0.59519   0.00000  Uiso   1.00
C140   C     0.99977   0.62066   0.54690   0.00000  Uiso   1.00
C141   C     0.99416   0.64136   0.48310   0.00000  Uiso   1.00
C142   C     0.04722   0.62978   0.44680   0.00000  Uiso   1.00
C143   C     0.11941   0.62254   0.36778   0.00000  Uiso   1.00
C144   C     0.94447   0.51829   0.62688   0.00000  Uiso   1.00
C145   C     0.89236   0.45294   0.63033   0.00000  Uiso   1.00
C146   C     0.89888   0.35519   0.66137   0.00000  Uiso   1.00
C147   C     0.88520   0.18905   0.70656   0.00000  Uiso   1.00
C148   C     0.97036   0.70674   0.64535   0.00000  Uiso   1.00
C149   C     0.94002   0.79982   0.66433   0.00000  Uiso   1.00
C150   C     0.96832   0.86072   0.71093   0.00000  Uiso   1.00
C151   C     0.99485   0.98719   0.78478   0.00000  Uiso   1.00
C152   C     0.05195   0.57096   0.64418   0.00000  Uiso   1.00
C153   C     0.05637   0.58948   0.57352   0.00000  Uiso   1.00
C154   C     0.10946   0.57787   0.53731   0.00000  Uiso   1.00
C155   C     0.10393   0.59856   0.47346   0.00000  Uiso   1.00
C156   C     0.00108   0.48712   0.65350   0.00000  Uiso   1.00
C157   C     0.00767   0.38945   0.68454   0.00000  Uiso   1.00
C158   C     0.95559   0.32396   0.68803   0.00000  Uiso   1.00
C159   C     0.02697   0.67557   0.67196   0.00000  Uiso   1.00
C160   C     0.05532   0.73633   0.71854   0.00000  Uiso   1.00
C161   C     0.02503   0.82950   0.73759   0.00000  Uiso   1.00
H162   H     0.90366   0.65260   0.57447   0.00000  Uiso   1.00
H163   H     0.95034   0.66547   0.46252   0.00000  Uiso   1.00
H164   H     0.84856   0.47708   0.60974   0.00000  Uiso   1.00
H165   H     0.89621   0.82392   0.64373   0.00000  Uiso   1.00
H166   H     0.02705   0.66596   0.35014   0.00000  Uiso   1.00
H167   H     0.81245   0.26874   0.66057   0.00000  Uiso   1.00
H168   H     0.91292   0.00011   0.73225   0.00000  Uiso   1.00
H169   H     0.09602   0.54669   0.66491   0.00000  Uiso   1.00
H170   H     0.15326   0.55375   0.55792   0.00000  Uiso   1.00
H171   H     0.05148   0.36536   0.70513   0.00000  Uiso   1.00
H172   H     0.09913   0.71219   0.73912   0.00000  Uiso   1.00
H173   H     0.19175   0.57527   0.42757   0.00000  Uiso   1.00
H174   H     0.97714   0.17806   0.73800   0.00000  Uiso   1.00
H175   H     0.07762   0.90943   0.80968   0.00000  Uiso   1.00
O176   O     0.14358   0.62714   0.31684   0.00000  Uiso   1.00
O177   O     0.86202   0.10602   0.72412   0.00000  Uiso   1.00
O178   O     0.99384   0.06556   0.81816   0.00000  Uiso   1.00
N179   N     0.05796   0.64367   0.38305   0.00000  Uiso   1.00
N180   N     0.85732   0.27229   0.67327   0.00000  Uiso   1.00
N181   N     0.95125   0.95604   0.74030   0.00000  Uiso   1.00
N182   N     0.14659   0.59487   0.42471   0.00000  Uiso   1.00
N183   N     0.94594   0.22349   0.71493   0.00000  Uiso   1.00
N184   N     0.03987   0.90725   0.78196   0.00000  Uiso   1.00
C185   C     0.14169   0.90300   0.95068   0.00000  Uiso   1.00
C186   C     0.19365   0.89441   0.99900   0.00000  Uiso   1.00
C187   C     0.18796   0.91411   0.06291   0.00000  Uiso   1.00
C188   C     0.24095   0.90181   0.09922   0.00000  Uiso   1.00
C189   C     0.31301   0.89312   0.17831   0.00000  Uiso   1.00
C190   C     0.13839   0.79347   0.91838   0.00000  Uiso   1.00
C191   C     0.08623   0.72831   0.91450   0.00000  Uiso   1.00
C192   C     0.09271   0.63104   0.88294   0.00000  Uiso   1.00
C193   C     0.07896   0.46567   0.83683   0.00000  Uiso   1.00
C194   C     0.16446   0.98214   0.90099   0.00000  Uiso   1.00
C195   C     0.13422   0.07560   0.88246   0.00000  Uiso   1.00
C196   C     0.16265   0.13717   0.83624   0.00000  Uiso   1.00
C197   C     0.18940   0.26474   0.76312   0.00000  Uiso   1.00
C198   C     0.24593   0.84613   0.90154   0.00000  Uiso   1.00
C199   C     0.25027   0.86352   0.97230   0.00000  Uiso   1.00
C200   C     0.30329   0.85119   0.00853   0.00000  Uiso   1.00
C201   C     0.29768   0.87087   0.07248   0.00000  Uiso   1.00
C202   C     0.19500   0.76258   0.89169   0.00000  Uiso   1.00
C203   C     0.20156   0.66539   0.86012   0.00000  Uiso   1.00
C204   C     0.14943   0.60010   0.85620   0.00000  Uiso   1.00
C205   C     0.22109   0.95125   0.87429   0.00000  Uiso   1.00
C206   C     0.24956   0.01269   0.82809   0.00000  Uiso   1.00
C207   C     0.21938   0.10623   0.80950   0.00000  Uiso   1.00
H208   H     0.09760   0.92704   0.97146   0.00000  Uiso   1.00
H209   H     0.14413   0.93800   0.08355   0.00000  Uiso   1.00
H210   H     0.04242   0.75223   0.93516   0.00000  Uiso   1.00
H211   H     0.09041   0.09948   0.90313   0.00000  Uiso   1.00
H212   H     0.22067   0.93649   0.19605   0.00000  Uiso   1.00
H213   H     0.00620   0.54481   0.88314   0.00000  Uiso   1.00
H214   H     0.10740   0.27704   0.81559   0.00000  Uiso   1.00
H215   H     0.29001   0.82208   0.88075   0.00000  Uiso   1.00
H216   H     0.34710   0.82729   0.98786   0.00000  Uiso   1.00
H217   H     0.24539   0.64152   0.83947   0.00000  Uiso   1.00
H218   H     0.29338   0.98876   0.80744   0.00000  Uiso   1.00
H219   H     0.38541   0.84663   0.11838   0.00000  Uiso   1.00
H220   H     0.17094   0.45495   0.80547   0.00000  Uiso   1.00
H221   H     0.27214   0.18718   0.73793   0.00000  Uiso   1.00
O222   O     0.33712   0.89684   0.22931   0.00000  Uiso   1.00
O223   O     0.05574   0.38299   0.81878   0.00000  Uiso   1.00
O224   O     0.18851   0.34365   0.73017   0.00000  Uiso   1.00
N225   N     0.25161   0.91465   0.16307   0.00000  Uiso   1.00
N226   N     0.05110   0.54844   0.87052   0.00000  Uiso   1.00
N227   N     0.14570   0.23300   0.80737   0.00000  Uiso   1.00
N228   N     0.34026   0.86630   0.12128   0.00000  Uiso   1.00
N229   N     0.13974   0.50009   0.82873   0.00000  Uiso   1.00
N230   N     0.23435   0.18465   0.76558   0.00000  Uiso   1.00
C231   C     0.55227   0.62834   0.09519   0.00000  Uiso   1.00
C232   C     0.50023   0.62066   0.04690   0.00000  Uiso   1.00
C233   C     0.50584   0.64136   0.98310   0.00000  Uiso   1.00
C234   C     0.45278   0.62978   0.94680   0.00000  Uiso   1.00
C235   C     0.38059   0.62254   0.86778   0.00000  Uiso   1.00
C236   C     0.55553   0.51829   0.12688   0.00000  Uiso   1.00
C237   C     0.60764   0.45294   0.13033   0.00000  Uiso   1.00
C238   C     0.60112   0.35519   0.16137   0.00000  Uiso   1.00
C239   C     0.61480   0.18905   0.20656   0.00000  Uiso   1.00
C240   C     0.52964   0.70674   0.14535   0.00000  Uiso   1.00
C241   C     0.55998   0.79982   0.16433   0.00000  Uiso   1.00
C242   C     0.53168   0.86072   0.21093   0.00000  Uiso   1.00
C243   C     0.50515   0.98719   0.28478   0.00000  Uiso   1.00
C244   C     0.44805   0.57096   0.14418   0.00000  Uiso   1.00
C245   C     0.44363   0.58948   0.07352   0.00000  Uiso   1.00
C246   C     0.39054   0.57787   0.03731   0.00000  Uiso   1.00
C247   C     0.39607   0.59856   0.97346   0.00000  Uiso   1.00
C248   C     0.49892   0.48712   0.15350   0.00000  Uiso   1.00
C249   C     0.49233   0.38945   0.18454   0.00000  Uiso   1.00
C250   C     0.54441   0.32396   0.18803   0.00000  Uiso   1.00
C251   C     0.47303   0.67557   0.17196   0.00000  Uiso   1.00
C252   C     0.44468   0.73633   0.21854   0.00000  Uiso   1.00
C253   C     0.47497   0.82950   0.23759   0.00000  Uiso   1.00
H254   H     0.59634   0.65260   0.07447   0.00000  Uiso   1.00
H255   H     0.54966   0.66547   0.96252   0.00000  Uiso   1.00
H256   H     0.65144   0.47708   0.10974   0.00000  Uiso   1.00
H257   H     0.60379   0.82392   0.14373   0.00000  Uiso   1.00
H258   H     0.47295   0.66596   0.85014   0.00000  Uiso   1.00
H259   H     0.68755   0.26874   0.16057   0.00000  Uiso   1.00
H260   H     0.58708   0.00011   0.23225   0.00000  Uiso   1.00
H261   H     0.40398   0.54669   0.16491   0.00000  Uiso   1.00
H262   H     0.34674   0.55375   0.05792   0.00000  Uiso   1.00
H263   H     0.44852   0.36536   0.20513   0.00000  Uiso   1.00
H264   H     0.40087   0.71219   0.23912   0.00000  Uiso   1.00
H265   H     0.30825   0.57527   0.92757   0.00000  Uiso   1.00
H266   H     0.52286   0.17806   0.23800   0.00000  Uiso   1.00
H267   H     0.42238   0.90943   0.30968   0.00000  Uiso   1.00
O268   O     0.35642   0.62714   0.81684   0.00000  Uiso   1.00
O269   O     0.63798   0.10602   0.22412   0.00000  Uiso   1.00
O270   O     0.50616   0.06556   0.31816   0.00000  Uiso   1.00
N271   N     0.44204   0.64367   0.88305   0.00000  Uiso   1.00
N272   N     0.64268   0.27229   0.17327   0.00000  Uiso   1.00
N273   N     0.54875   0.95604   0.24030   0.00000  Uiso   1.00
N274   N     0.35341   0.59487   0.92471   0.00000  Uiso   1.00
N275   N     0.55406   0.22349   0.21493   0.00000  Uiso   1.00
N276   N     0.46013   0.90725   0.28196   0.00000  Uiso   1.00
C277   C     0.85831   0.09700   0.45068   0.00000  Uiso   1.00
C278   C     0.80635   0.10559   0.49900   0.00000  Uiso   1.00
C279   C     0.81204   0.08589   0.56291   0.00000  Uiso   1.00
C280   C     0.75905   0.09819   0.59922   0.00000  Uiso   1.00
C281   C     0.68699   0.10688   0.67831   0.00000  Uiso   1.00
C282   C     0.86161   0.20653   0.41838   0.00000  Uiso   1.00
C283   C     0.91377   0.27169   0.41450   0.00000  Uiso   1.00
C284   C     0.90729   0.36896   0.38294   0.00000  Uiso   1.00
C285   C     0.92104   0.53433   0.33683   0.00000  Uiso   1.00
C286   C     0.83554   0.01786   0.40099   0.00000  Uiso   1.00
C287   C     0.86578   0.92440   0.38246   0.00000  Uiso   1.00
C288   C     0.83735   0.86283   0.33624   0.00000  Uiso   1.00
C289   C     0.81060   0.73526   0.26312   0.00000  Uiso   1.00
C290   C     0.75407   0.15387   0.40154   0.00000  Uiso   1.00
C291   C     0.74973   0.13648   0.47230   0.00000  Uiso   1.00
C292   C     0.69671   0.14881   0.50853   0.00000  Uiso   1.00
C293   C     0.70232   0.12913   0.57248   0.00000  Uiso   1.00
C294   C     0.80500   0.23742   0.39169   0.00000  Uiso   1.00
C295   C     0.79844   0.33461   0.36012   0.00000  Uiso   1.00
C296   C     0.85057   0.39990   0.35620   0.00000  Uiso   1.00
C297   C     0.77891   0.04875   0.37429   0.00000  Uiso   1.00
C298   C     0.75044   0.98731   0.32809   0.00000  Uiso   1.00
C299   C     0.78062   0.89377   0.30950   0.00000  Uiso   1.00
H300   H     0.90240   0.07296   0.47146   0.00000  Uiso   1.00
H301   H     0.85587   0.06200   0.58355   0.00000  Uiso   1.00
H302   H     0.95758   0.24777   0.43516   0.00000  Uiso   1.00
H303   H     0.90959   0.90052   0.40313   0.00000  Uiso   1.00
H304   H     0.77933   0.06351   0.69605   0.00000  Uiso   1.00
H305   H     0.99380   0.45519   0.38314   0.00000  Uiso   1.00
H306   H     0.89260   0.72296   0.31559   0.00000  Uiso   1.00
H307   H     0.70999   0.17792   0.38075   0.00000  Uiso   1.00
H308   H     0.65290   0.17271   0.48786   0.00000  Uiso   1.00
H309   H     0.75461   0.35848   0.33947   0.00000  Uiso   1.00
H310   H     0.70662   0.01124   0.30744   0.00000  Uiso   1.00
H311   H     0.61459   0.15337   0.61838   0.00000  Uiso   1.00
H312   H     0.82906   0.54505   0.30547   0.00000  Uiso   1.00
H313   H     0.72786   0.81282   0.23793   0.00000  Uiso   1.00
O314   O     0.66288   0.10316   0.72931   0.00000  Uiso   1.00
O315   O     0.94426   0.61701   0.31878   0.00000  Uiso   1.00
O316   O     0.81149   0.65635   0.23017   0.00000  Uiso   1.00
N317   N     0.74839   0.08535   0.66307   0.00000  Uiso   1.00
N318   N     0.94890   0.45156   0.37052   0.00000  Uiso   1.00
N319   N     0.85430   0.76700   0.30737   0.00000  Uiso   1.00
N320   N     0.65974   0.13370   0.62128   0.00000  Uiso   1.00
N321   N     0.86026   0.49991   0.32873   0.00000  Uiso   1.00
N322   N     0.76565   0.81535   0.26558   0.00000  Uiso   1.00
C323   C     0.44773   0.37166   0.59519   0.00000  Uiso   1.00
C324   C     0.49977   0.37934   0.54690   0.00000  Uiso   1.00
C325   C     0.49416   0.35864   0.48310   0.00000  Uiso   1.00
C326   C     0.54722   0.37022   0.44680   0.00000  Uiso   1.00
C327   C     0.61941   0.37746   0.36778   0.00000  Uiso   1.00
C328   C     0.44447   0.48171   0.62688   0.00000  Uiso   1.00
C329   C     0.39236   0.54706   0.63033   0.00000  Uiso   1.00
C330   C     0.39888   0.64481   0.66137   0.00000  Uiso   1.00
C331   C     0.38520   0.81095   0.70656   0.00000  Uiso   1.00
C332   C     0.47036   0.29326   0.64535   0.00000  Uiso   1.00
C333   C     0.44002   0.20018   0.66433   0.00000  Uiso   1.00
C334   C     0.46832   0.13928   0.71093   0.00000  Uiso   1.00
C335   C     0.49485   0.01281   0.78478   0.00000  Uiso   1.00
C336   C     0.55195   0.42904   0.64418   0.00000  Uiso   1.00
C337   C     0.55637   0.41052   0.57352   0.00000  Uiso   1.00
C338   C     0.60946   0.42213   0.53731   0.00000  Uiso   1.00
C339   C     0.60393   0.40144   0.47346   0.00000  Uiso   1.00
C340   C     0.50108   0.51288   0.65350   0.00000  Uiso   1.00
C341   C     0.50767   0.61055   0.68454   0.00000  Uiso   1.00
C342   C     0.45559   0.67604   0.68803   0.00000  Uiso   1.00
C343   C     0.52697   0.32443   0.67196   0.00000  Uiso   1.00
C344   C     0.55532   0.26367   0.71854   0.00000  Uiso   1.00
C345   C     0.52503   0.17050   0.73759   0.00000  Uiso   1.00
H346   H     0.40366   0.34740   0.57447   0.00000  Uiso   1.00
H347   H     0.45034   0.33453   0.46252   0.00000  Uiso   1.00
H348   H     0.34856   0.52292   0.60974   0.00000  Uiso   1.00
H349   H     0.39621   0.17608   0.64373   0.00000  Uiso   1.00
H350   H     0.52705   0.33404   0.35014   0.00000  Uiso   1.00
H351   H     0.31245   0.73126   0.66057   0.00000  Uiso   1.00
H352   H     0.41292   0.99989   0.73225   0.00000  Uiso   1.00
H353   H     0.59602   0.45331   0.66491   0.00000  Uiso   1.00
H354   H     0.65326   0.44625   0.55792   0.00000  Uiso   1.00
H355   H     0.55148   0.63464   0.70513   0.00000  Uiso   1.00
H356   H     0.59913   0.28781   0.73912   0.00000  Uiso   1.00
H357   H     0.69175   0.42473   0.42757   0.00000  Uiso   1.00
H358   H     0.47714   0.82194   0.73800   0.00000  Uiso   1.00
H359   H     0.57762   0.09057   0.80968   0.00000  Uiso   1.00
O360   O     0.64358   0.37286   0.31684   0.00000  Uiso   1.00
O361   O     0.36202   0.89398   0.72412   0.00000  Uiso   1.00
O362   O     0.49384   0.93444   0.81816   0.00000  Uiso   1.00
N363   N     0.55796   0.35633   0.38305   0.00000  Uiso   1.00
N364   N     0.35732   0.72771   0.67327   0.00000  Uiso   1.00
N365   N     0.45125   0.04396   0.74030   0.00000  Uiso   1.00
N366   N     0.64659   0.40513   0.42471   0.00000  Uiso   1.00
N367   N     0.44594   0.77651   0.71493   0.00000  Uiso   1.00
N368   N     0.53987   0.09275   0.78196   0.00000  Uiso   1.00
