data_job_03444
_audit_creation_date              2018-12-19
_audit_creation_method            'Materials Studio'
_symmetry_space_group_name_H-M    'P1'
_symmetry_Int_Tables_number       1
_symmetry_cell_setting            triclinic
loop_
_symmetry_equiv_pos_as_xyz
  x,y,z
_cell_length_a                    21.1087
_cell_length_b                    11.1785
_cell_length_c                    31.2854
_cell_angle_alpha                 90.0000
_cell_angle_beta                  118.6900
_cell_angle_gamma                 90.0000
loop_
_atom_site_label
_atom_site_type_symbol
_atom_site_fract_x
_atom_site_fract_y
_atom_site_fract_z
_atom_site_U_iso_or_equiv
_atom_site_adp_type
_atom_site_occupancy
C1     C     0.56405   0.02518   0.63410   0.00000  Uiso   1.00
C2     C     0.60202   0.06844   0.60601   0.00000  Uiso   1.00
C3     C     0.61981   0.99815   0.57676   0.00000  Uiso   1.00
C4     C     0.65444   0.05455   0.55417   0.00000  Uiso   1.00
C5     C     0.71097   0.10311   0.50958   0.00000  Uiso   1.00
C6     C     0.61362   0.05823   0.68725   0.00000  Uiso   1.00
C7     C     0.64114   0.97935   0.72630   0.00000  Uiso   1.00
C8     C     0.68553   0.02717   0.77210   0.00000  Uiso   1.00
C9     C     0.76001   0.05989   0.85364   0.00000  Uiso   1.00
C10    C     0.49699   0.10319   0.61721   0.00000  Uiso   1.00
C11    C     0.42645   0.06212   0.59739   0.00000  Uiso   1.00
C12    C     0.37264   0.14780   0.58423   0.00000  Uiso   1.00
C13    C     0.26604   0.25032   0.55704   0.00000  Uiso   1.00
C14    C     0.59393   0.25037   0.64601   0.00000  Uiso   1.00
C15    C     0.61826   0.19076   0.61248   0.00000  Uiso   1.00
C16    C     0.65287   0.24729   0.58992   0.00000  Uiso   1.00
C17    C     0.67070   0.17709   0.56064   0.00000  Uiso   1.00
C18    C     0.62985   0.18054   0.69371   0.00000  Uiso   1.00
C19    C     0.67420   0.22850   0.73947   0.00000  Uiso   1.00
C20    C     0.70179   0.14971   0.77858   0.00000  Uiso   1.00
C21    C     0.51322   0.22551   0.62368   0.00000  Uiso   1.00
C22    C     0.45951   0.31126   0.61056   0.00000  Uiso   1.00
C23    C     0.38890   0.27033   0.59071   0.00000  Uiso   1.00
H24    H     0.55141   0.92996   0.62907   0.00000  Uiso   1.00
H25    H     0.60724   0.90349   0.57176   0.00000  Uiso   1.00
H26    H     0.62856   0.88470   0.72128   0.00000  Uiso   1.00
H27    H     0.41391   0.96746   0.59239   0.00000  Uiso   1.00
H28    H     0.67632   0.92807   0.51109   0.00000  Uiso   1.00
H29    H     0.72126   0.88847   0.82636   0.00000  Uiso   1.00
H30    H     0.26861   0.06298   0.55457   0.00000  Uiso   1.00
H31    H     0.60657   0.34560   0.65104   0.00000  Uiso   1.00
H32    H     0.66543   0.34194   0.59494   0.00000  Uiso   1.00
H33    H     0.68675   0.32315   0.74446   0.00000  Uiso   1.00
H34    H     0.47209   0.40591   0.61556   0.00000  Uiso   1.00
H35    H     0.72355   0.28394   0.52990   0.00000  Uiso   1.00
H36    H     0.76848   0.24433   0.84517   0.00000  Uiso   1.00
H37    H     0.31584   0.41884   0.57338   0.00000  Uiso   1.00
O38    O     0.73768   0.09609   0.48321   0.00000  Uiso   1.00
O39    O     0.79662   0.04413   0.89683   0.00000  Uiso   1.00
O40    O     0.20276   0.27308   0.54024   0.00000  Uiso   1.00
N41    N     0.67935   0.01234   0.52321   0.00000  Uiso   1.00
N42    N     0.72137   0.97530   0.81797   0.00000  Uiso   1.00
N43    N     0.29818   0.13845   0.56388   0.00000  Uiso   1.00
N44    N     0.70476   0.20382   0.53333   0.00000  Uiso   1.00
N45    N     0.74678   0.16679   0.82809   0.00000  Uiso   1.00
N46    N     0.32359   0.32994   0.57400   0.00000  Uiso   1.00
C47    C     0.06405   0.52518   0.63410   0.00000  Uiso   1.00
C48    C     0.10202   0.56844   0.60601   0.00000  Uiso   1.00
C49    C     0.11981   0.49815   0.57676   0.00000  Uiso   1.00
C50    C     0.15444   0.55455   0.55417   0.00000  Uiso   1.00
C51    C     0.21097   0.60311   0.50958   0.00000  Uiso   1.00
C52    C     0.11362   0.55823   0.68725   0.00000  Uiso   1.00
C53    C     0.14114   0.47935   0.72630   0.00000  Uiso   1.00
C54    C     0.18553   0.52717   0.77210   0.00000  Uiso   1.00
C55    C     0.26001   0.55989   0.85364   0.00000  Uiso   1.00
C56    C     0.99699   0.60319   0.61721   0.00000  Uiso   1.00
C57    C     0.92645   0.56212   0.59739   0.00000  Uiso   1.00
C58    C     0.87264   0.64780   0.58423   0.00000  Uiso   1.00
C59    C     0.76604   0.75032   0.55704   0.00000  Uiso   1.00
C60    C     0.09393   0.75037   0.64601   0.00000  Uiso   1.00
C61    C     0.11826   0.69076   0.61248   0.00000  Uiso   1.00
C62    C     0.15287   0.74729   0.58992   0.00000  Uiso   1.00
C63    C     0.17070   0.67709   0.56064   0.00000  Uiso   1.00
C64    C     0.12985   0.68054   0.69371   0.00000  Uiso   1.00
C65    C     0.17420   0.72850   0.73947   0.00000  Uiso   1.00
C66    C     0.20179   0.64971   0.77858   0.00000  Uiso   1.00
C67    C     0.01322   0.72551   0.62368   0.00000  Uiso   1.00
C68    C     0.95951   0.81126   0.61056   0.00000  Uiso   1.00
C69    C     0.88890   0.77033   0.59071   0.00000  Uiso   1.00
H70    H     0.05141   0.42996   0.62907   0.00000  Uiso   1.00
H71    H     0.10724   0.40349   0.57176   0.00000  Uiso   1.00
H72    H     0.12856   0.38470   0.72128   0.00000  Uiso   1.00
H73    H     0.91391   0.46746   0.59239   0.00000  Uiso   1.00
H74    H     0.17632   0.42807   0.51109   0.00000  Uiso   1.00
H75    H     0.22126   0.38847   0.82636   0.00000  Uiso   1.00
H76    H     0.76861   0.56298   0.55457   0.00000  Uiso   1.00
H77    H     0.10657   0.84560   0.65104   0.00000  Uiso   1.00
H78    H     0.16543   0.84194   0.59494   0.00000  Uiso   1.00
H79    H     0.18675   0.82315   0.74446   0.00000  Uiso   1.00
H80    H     0.97209   0.90591   0.61556   0.00000  Uiso   1.00
H81    H     0.22355   0.78394   0.52990   0.00000  Uiso   1.00
H82    H     0.26848   0.74433   0.84517   0.00000  Uiso   1.00
H83    H     0.81584   0.91884   0.57338   0.00000  Uiso   1.00
O84    O     0.23768   0.59609   0.48321   0.00000  Uiso   1.00
O85    O     0.29662   0.54413   0.89683   0.00000  Uiso   1.00
O86    O     0.70276   0.77308   0.54024   0.00000  Uiso   1.00
N87    N     0.17935   0.51234   0.52321   0.00000  Uiso   1.00
N88    N     0.22137   0.47530   0.81797   0.00000  Uiso   1.00
N89    N     0.79818   0.63845   0.56388   0.00000  Uiso   1.00
N90    N     0.20476   0.70382   0.53333   0.00000  Uiso   1.00
N91    N     0.24678   0.66679   0.82809   0.00000  Uiso   1.00
N92    N     0.82359   0.82994   0.57400   0.00000  Uiso   1.00
C93    C     0.43595   0.02518   0.86590   0.00000  Uiso   1.00
C94    C     0.39798   0.06844   0.89399   0.00000  Uiso   1.00
C95    C     0.38019   0.99815   0.92324   0.00000  Uiso   1.00
C96    C     0.34556   0.05455   0.94583   0.00000  Uiso   1.00
C97    C     0.28903   0.10311   0.99042   0.00000  Uiso   1.00
C98    C     0.38638   0.05823   0.81275   0.00000  Uiso   1.00
C99    C     0.35886   0.97935   0.77370   0.00000  Uiso   1.00
C100   C     0.31447   0.02717   0.72790   0.00000  Uiso   1.00
C101   C     0.23999   0.05989   0.64636   0.00000  Uiso   1.00
C102   C     0.50301   0.10319   0.88279   0.00000  Uiso   1.00
C103   C     0.57355   0.06212   0.90261   0.00000  Uiso   1.00
C104   C     0.62736   0.14780   0.91577   0.00000  Uiso   1.00
C105   C     0.73396   0.25032   0.94296   0.00000  Uiso   1.00
C106   C     0.40607   0.25037   0.85399   0.00000  Uiso   1.00
C107   C     0.38174   0.19076   0.88752   0.00000  Uiso   1.00
C108   C     0.34713   0.24729   0.91008   0.00000  Uiso   1.00
C109   C     0.32930   0.17709   0.93936   0.00000  Uiso   1.00
C110   C     0.37015   0.18054   0.80629   0.00000  Uiso   1.00
C111   C     0.32580   0.22850   0.76053   0.00000  Uiso   1.00
C112   C     0.29821   0.14971   0.72142   0.00000  Uiso   1.00
C113   C     0.48678   0.22551   0.87632   0.00000  Uiso   1.00
C114   C     0.54049   0.31126   0.88944   0.00000  Uiso   1.00
C115   C     0.61110   0.27033   0.90929   0.00000  Uiso   1.00
H116   H     0.44859   0.92996   0.87093   0.00000  Uiso   1.00
H117   H     0.39276   0.90349   0.92824   0.00000  Uiso   1.00
H118   H     0.37144   0.88470   0.77872   0.00000  Uiso   1.00
H119   H     0.58609   0.96746   0.90761   0.00000  Uiso   1.00
H120   H     0.32368   0.92807   0.98891   0.00000  Uiso   1.00
H121   H     0.27874   0.88847   0.67364   0.00000  Uiso   1.00
H122   H     0.73139   0.06298   0.94543   0.00000  Uiso   1.00
H123   H     0.39343   0.34560   0.84896   0.00000  Uiso   1.00
H124   H     0.33457   0.34194   0.90506   0.00000  Uiso   1.00
H125   H     0.31325   0.32315   0.75554   0.00000  Uiso   1.00
H126   H     0.52791   0.40591   0.88444   0.00000  Uiso   1.00
H127   H     0.27645   0.28394   0.97010   0.00000  Uiso   1.00
H128   H     0.23152   0.24433   0.65483   0.00000  Uiso   1.00
H129   H     0.68416   0.41884   0.92662   0.00000  Uiso   1.00
O130   O     0.26232   0.09609   0.01679   0.00000  Uiso   1.00
O131   O     0.20338   0.04413   0.60317   0.00000  Uiso   1.00
O132   O     0.79724   0.27308   0.95976   0.00000  Uiso   1.00
N133   N     0.32065   0.01234   0.97679   0.00000  Uiso   1.00
N134   N     0.27863   0.97530   0.68203   0.00000  Uiso   1.00
N135   N     0.70182   0.13845   0.93612   0.00000  Uiso   1.00
N136   N     0.29524   0.20382   0.96667   0.00000  Uiso   1.00
N137   N     0.25322   0.16679   0.67191   0.00000  Uiso   1.00
N138   N     0.67641   0.32994   0.92600   0.00000  Uiso   1.00
C139   C     0.93595   0.52518   0.86590   0.00000  Uiso   1.00
C140   C     0.89798   0.56844   0.89399   0.00000  Uiso   1.00
C141   C     0.88019   0.49815   0.92324   0.00000  Uiso   1.00
C142   C     0.84556   0.55455   0.94583   0.00000  Uiso   1.00
C143   C     0.78903   0.60311   0.99042   0.00000  Uiso   1.00
C144   C     0.88638   0.55823   0.81275   0.00000  Uiso   1.00
C145   C     0.85886   0.47935   0.77370   0.00000  Uiso   1.00
C146   C     0.81447   0.52717   0.72790   0.00000  Uiso   1.00
C147   C     0.73999   0.55989   0.64636   0.00000  Uiso   1.00
C148   C     0.00301   0.60319   0.88279   0.00000  Uiso   1.00
C149   C     0.07355   0.56212   0.90261   0.00000  Uiso   1.00
C150   C     0.12736   0.64780   0.91577   0.00000  Uiso   1.00
C151   C     0.23396   0.75032   0.94296   0.00000  Uiso   1.00
C152   C     0.90607   0.75037   0.85399   0.00000  Uiso   1.00
C153   C     0.88174   0.69076   0.88752   0.00000  Uiso   1.00
C154   C     0.84713   0.74729   0.91008   0.00000  Uiso   1.00
C155   C     0.82930   0.67709   0.93936   0.00000  Uiso   1.00
C156   C     0.87015   0.68054   0.80629   0.00000  Uiso   1.00
C157   C     0.82580   0.72850   0.76053   0.00000  Uiso   1.00
C158   C     0.79821   0.64971   0.72142   0.00000  Uiso   1.00
C159   C     0.98678   0.72551   0.87632   0.00000  Uiso   1.00
C160   C     0.04049   0.81126   0.88944   0.00000  Uiso   1.00
C161   C     0.11110   0.77033   0.90929   0.00000  Uiso   1.00
H162   H     0.94859   0.42996   0.87093   0.00000  Uiso   1.00
H163   H     0.89276   0.40349   0.92824   0.00000  Uiso   1.00
H164   H     0.87144   0.38470   0.77872   0.00000  Uiso   1.00
H165   H     0.08609   0.46746   0.90761   0.00000  Uiso   1.00
H166   H     0.82368   0.42807   0.98891   0.00000  Uiso   1.00
H167   H     0.77874   0.38847   0.67364   0.00000  Uiso   1.00
H168   H     0.23139   0.56298   0.94543   0.00000  Uiso   1.00
H169   H     0.89343   0.84560   0.84896   0.00000  Uiso   1.00
H170   H     0.83457   0.84194   0.90506   0.00000  Uiso   1.00
H171   H     0.81325   0.82315   0.75554   0.00000  Uiso   1.00
H172   H     0.02791   0.90591   0.88444   0.00000  Uiso   1.00
H173   H     0.77645   0.78394   0.97010   0.00000  Uiso   1.00
H174   H     0.73152   0.74433   0.65483   0.00000  Uiso   1.00
H175   H     0.18416   0.91884   0.92662   0.00000  Uiso   1.00
O176   O     0.76232   0.59609   0.01679   0.00000  Uiso   1.00
O177   O     0.70338   0.54413   0.60317   0.00000  Uiso   1.00
O178   O     0.29724   0.77308   0.95976   0.00000  Uiso   1.00
N179   N     0.82065   0.51234   0.97679   0.00000  Uiso   1.00
N180   N     0.77863   0.47530   0.68203   0.00000  Uiso   1.00
N181   N     0.20182   0.63845   0.93612   0.00000  Uiso   1.00
N182   N     0.79524   0.70382   0.96667   0.00000  Uiso   1.00
N183   N     0.75322   0.66679   0.67191   0.00000  Uiso   1.00
N184   N     0.17641   0.82994   0.92600   0.00000  Uiso   1.00
C185   C     0.43595   0.97482   0.36590   0.00000  Uiso   1.00
C186   C     0.39798   0.93156   0.39399   0.00000  Uiso   1.00
C187   C     0.38019   0.00185   0.42324   0.00000  Uiso   1.00
C188   C     0.34556   0.94545   0.44583   0.00000  Uiso   1.00
C189   C     0.28903   0.89689   0.49042   0.00000  Uiso   1.00
C190   C     0.38638   0.94177   0.31275   0.00000  Uiso   1.00
C191   C     0.35886   0.02065   0.27370   0.00000  Uiso   1.00
C192   C     0.31447   0.97283   0.22790   0.00000  Uiso   1.00
C193   C     0.23999   0.94011   0.14636   0.00000  Uiso   1.00
C194   C     0.50301   0.89681   0.38279   0.00000  Uiso   1.00
C195   C     0.57355   0.93788   0.40261   0.00000  Uiso   1.00
C196   C     0.62736   0.85220   0.41577   0.00000  Uiso   1.00
C197   C     0.73396   0.74968   0.44296   0.00000  Uiso   1.00
C198   C     0.40607   0.74963   0.35399   0.00000  Uiso   1.00
C199   C     0.38174   0.80924   0.38752   0.00000  Uiso   1.00
C200   C     0.34713   0.75271   0.41008   0.00000  Uiso   1.00
C201   C     0.32930   0.82291   0.43936   0.00000  Uiso   1.00
C202   C     0.37015   0.81946   0.30629   0.00000  Uiso   1.00
C203   C     0.32580   0.77150   0.26053   0.00000  Uiso   1.00
C204   C     0.29821   0.85029   0.22142   0.00000  Uiso   1.00
C205   C     0.48678   0.77449   0.37632   0.00000  Uiso   1.00
C206   C     0.54049   0.68874   0.38944   0.00000  Uiso   1.00
C207   C     0.61110   0.72967   0.40929   0.00000  Uiso   1.00
H208   H     0.44859   0.07004   0.37093   0.00000  Uiso   1.00
H209   H     0.39276   0.09651   0.42824   0.00000  Uiso   1.00
H210   H     0.37144   0.11530   0.27872   0.00000  Uiso   1.00
H211   H     0.58609   0.03254   0.40761   0.00000  Uiso   1.00
H212   H     0.32368   0.07193   0.48891   0.00000  Uiso   1.00
H213   H     0.27874   0.11153   0.17364   0.00000  Uiso   1.00
H214   H     0.73139   0.93702   0.44543   0.00000  Uiso   1.00
H215   H     0.39343   0.65440   0.34896   0.00000  Uiso   1.00
H216   H     0.33457   0.65806   0.40506   0.00000  Uiso   1.00
H217   H     0.31325   0.67685   0.25554   0.00000  Uiso   1.00
H218   H     0.52791   0.59409   0.38444   0.00000  Uiso   1.00
H219   H     0.27645   0.71606   0.47010   0.00000  Uiso   1.00
H220   H     0.23152   0.75567   0.15483   0.00000  Uiso   1.00
H221   H     0.68416   0.58116   0.42662   0.00000  Uiso   1.00
O222   O     0.26232   0.90391   0.51679   0.00000  Uiso   1.00
O223   O     0.20338   0.95587   0.10317   0.00000  Uiso   1.00
O224   O     0.79724   0.72692   0.45976   0.00000  Uiso   1.00
N225   N     0.32065   0.98766   0.47679   0.00000  Uiso   1.00
N226   N     0.27863   0.02470   0.18203   0.00000  Uiso   1.00
N227   N     0.70182   0.86155   0.43612   0.00000  Uiso   1.00
N228   N     0.29524   0.79618   0.46667   0.00000  Uiso   1.00
N229   N     0.25322   0.83321   0.17191   0.00000  Uiso   1.00
N230   N     0.67641   0.67006   0.42600   0.00000  Uiso   1.00
C231   C     0.93595   0.47482   0.36590   0.00000  Uiso   1.00
C232   C     0.89798   0.43156   0.39399   0.00000  Uiso   1.00
C233   C     0.88019   0.50185   0.42324   0.00000  Uiso   1.00
C234   C     0.84556   0.44545   0.44583   0.00000  Uiso   1.00
C235   C     0.78903   0.39689   0.49042   0.00000  Uiso   1.00
C236   C     0.88638   0.44177   0.31275   0.00000  Uiso   1.00
C237   C     0.85886   0.52065   0.27370   0.00000  Uiso   1.00
C238   C     0.81447   0.47283   0.22790   0.00000  Uiso   1.00
C239   C     0.73999   0.44011   0.14636   0.00000  Uiso   1.00
C240   C     0.00301   0.39681   0.38279   0.00000  Uiso   1.00
C241   C     0.07355   0.43788   0.40261   0.00000  Uiso   1.00
C242   C     0.12736   0.35220   0.41577   0.00000  Uiso   1.00
C243   C     0.23396   0.24968   0.44296   0.00000  Uiso   1.00
C244   C     0.90607   0.24963   0.35399   0.00000  Uiso   1.00
C245   C     0.88174   0.30924   0.38752   0.00000  Uiso   1.00
C246   C     0.84713   0.25271   0.41008   0.00000  Uiso   1.00
C247   C     0.82930   0.32291   0.43936   0.00000  Uiso   1.00
C248   C     0.87015   0.31946   0.30629   0.00000  Uiso   1.00
C249   C     0.82580   0.27150   0.26053   0.00000  Uiso   1.00
C250   C     0.79821   0.35029   0.22142   0.00000  Uiso   1.00
C251   C     0.98678   0.27449   0.37632   0.00000  Uiso   1.00
C252   C     0.04049   0.18874   0.38944   0.00000  Uiso   1.00
C253   C     0.11110   0.22967   0.40929   0.00000  Uiso   1.00
H254   H     0.94859   0.57004   0.37093   0.00000  Uiso   1.00
H255   H     0.89276   0.59651   0.42824   0.00000  Uiso   1.00
H256   H     0.87144   0.61530   0.27872   0.00000  Uiso   1.00
H257   H     0.08609   0.53254   0.40761   0.00000  Uiso   1.00
H258   H     0.82368   0.57193   0.48891   0.00000  Uiso   1.00
H259   H     0.77874   0.61153   0.17364   0.00000  Uiso   1.00
H260   H     0.23139   0.43702   0.44543   0.00000  Uiso   1.00
H261   H     0.89343   0.15440   0.34896   0.00000  Uiso   1.00
H262   H     0.83457   0.15806   0.40506   0.00000  Uiso   1.00
H263   H     0.81325   0.17685   0.25554   0.00000  Uiso   1.00
H264   H     0.02791   0.09409   0.38444   0.00000  Uiso   1.00
H265   H     0.77645   0.21606   0.47010   0.00000  Uiso   1.00
H266   H     0.73152   0.25567   0.15483   0.00000  Uiso   1.00
H267   H     0.18416   0.08116   0.42662   0.00000  Uiso   1.00
O268   O     0.76232   0.40391   0.51679   0.00000  Uiso   1.00
O269   O     0.70338   0.45587   0.10317   0.00000  Uiso   1.00
O270   O     0.29724   0.22692   0.45976   0.00000  Uiso   1.00
N271   N     0.82065   0.48766   0.47679   0.00000  Uiso   1.00
N272   N     0.77863   0.52470   0.18203   0.00000  Uiso   1.00
N273   N     0.20182   0.36155   0.43612   0.00000  Uiso   1.00
N274   N     0.79524   0.29618   0.46667   0.00000  Uiso   1.00
N275   N     0.75322   0.33321   0.17191   0.00000  Uiso   1.00
N276   N     0.17641   0.17006   0.42600   0.00000  Uiso   1.00
C277   C     0.56405   0.97482   0.13410   0.00000  Uiso   1.00
C278   C     0.60202   0.93156   0.10601   0.00000  Uiso   1.00
C279   C     0.61981   0.00185   0.07676   0.00000  Uiso   1.00
C280   C     0.65444   0.94545   0.05417   0.00000  Uiso   1.00
C281   C     0.71097   0.89689   0.00958   0.00000  Uiso   1.00
C282   C     0.61362   0.94177   0.18725   0.00000  Uiso   1.00
C283   C     0.64114   0.02065   0.22630   0.00000  Uiso   1.00
C284   C     0.68553   0.97283   0.27210   0.00000  Uiso   1.00
C285   C     0.76001   0.94011   0.35364   0.00000  Uiso   1.00
C286   C     0.49699   0.89681   0.11721   0.00000  Uiso   1.00
C287   C     0.42645   0.93788   0.09739   0.00000  Uiso   1.00
C288   C     0.37264   0.85220   0.08423   0.00000  Uiso   1.00
C289   C     0.26604   0.74968   0.05704   0.00000  Uiso   1.00
C290   C     0.59393   0.74963   0.14601   0.00000  Uiso   1.00
C291   C     0.61826   0.80924   0.11248   0.00000  Uiso   1.00
C292   C     0.65287   0.75271   0.08992   0.00000  Uiso   1.00
C293   C     0.67070   0.82291   0.06064   0.00000  Uiso   1.00
C294   C     0.62985   0.81946   0.19371   0.00000  Uiso   1.00
C295   C     0.67420   0.77150   0.23947   0.00000  Uiso   1.00
C296   C     0.70179   0.85029   0.27858   0.00000  Uiso   1.00
C297   C     0.51322   0.77449   0.12368   0.00000  Uiso   1.00
C298   C     0.45951   0.68874   0.11056   0.00000  Uiso   1.00
C299   C     0.38890   0.72967   0.09071   0.00000  Uiso   1.00
H300   H     0.55141   0.07004   0.12907   0.00000  Uiso   1.00
H301   H     0.60724   0.09651   0.07176   0.00000  Uiso   1.00
H302   H     0.62856   0.11530   0.22128   0.00000  Uiso   1.00
H303   H     0.41391   0.03254   0.09239   0.00000  Uiso   1.00
H304   H     0.67632   0.07193   0.01109   0.00000  Uiso   1.00
H305   H     0.72126   0.11153   0.32636   0.00000  Uiso   1.00
H306   H     0.26861   0.93702   0.05457   0.00000  Uiso   1.00
H307   H     0.60657   0.65440   0.15104   0.00000  Uiso   1.00
H308   H     0.66543   0.65806   0.09494   0.00000  Uiso   1.00
H309   H     0.68675   0.67685   0.24446   0.00000  Uiso   1.00
H310   H     0.47209   0.59409   0.11556   0.00000  Uiso   1.00
H311   H     0.72355   0.71606   0.02990   0.00000  Uiso   1.00
H312   H     0.76848   0.75567   0.34517   0.00000  Uiso   1.00
H313   H     0.31584   0.58116   0.07338   0.00000  Uiso   1.00
O314   O     0.73768   0.90391   0.98321   0.00000  Uiso   1.00
O315   O     0.79662   0.95587   0.39683   0.00000  Uiso   1.00
O316   O     0.20276   0.72692   0.04024   0.00000  Uiso   1.00
N317   N     0.67935   0.98766   0.02321   0.00000  Uiso   1.00
N318   N     0.72137   0.02470   0.31797   0.00000  Uiso   1.00
N319   N     0.29818   0.86155   0.06388   0.00000  Uiso   1.00
N320   N     0.70476   0.79618   0.03333   0.00000  Uiso   1.00
N321   N     0.74678   0.83321   0.32809   0.00000  Uiso   1.00
N322   N     0.32359   0.67006   0.07400   0.00000  Uiso   1.00
C323   C     0.06405   0.47482   0.13410   0.00000  Uiso   1.00
C324   C     0.10202   0.43156   0.10601   0.00000  Uiso   1.00
C325   C     0.11981   0.50185   0.07676   0.00000  Uiso   1.00
C326   C     0.15444   0.44545   0.05417   0.00000  Uiso   1.00
C327   C     0.21097   0.39689   0.00958   0.00000  Uiso   1.00
C328   C     0.11362   0.44177   0.18725   0.00000  Uiso   1.00
C329   C     0.14114   0.52065   0.22630   0.00000  Uiso   1.00
C330   C     0.18553   0.47283   0.27210   0.00000  Uiso   1.00
C331   C     0.26001   0.44011   0.35364   0.00000  Uiso   1.00
C332   C     0.99699   0.39681   0.11721   0.00000  Uiso   1.00
C333   C     0.92645   0.43788   0.09739   0.00000  Uiso   1.00
C334   C     0.87264   0.35220   0.08423   0.00000  Uiso   1.00
C335   C     0.76604   0.24968   0.05704   0.00000  Uiso   1.00
C336   C     0.09393   0.24963   0.14601   0.00000  Uiso   1.00
C337   C     0.11826   0.30924   0.11248   0.00000  Uiso   1.00
C338   C     0.15287   0.25271   0.08992   0.00000  Uiso   1.00
C339   C     0.17070   0.32291   0.06064   0.00000  Uiso   1.00
C340   C     0.12985   0.31946   0.19371   0.00000  Uiso   1.00
C341   C     0.17420   0.27150   0.23947   0.00000  Uiso   1.00
C342   C     0.20179   0.35029   0.27858   0.00000  Uiso   1.00
C343   C     0.01322   0.27449   0.12368   0.00000  Uiso   1.00
C344   C     0.95951   0.18874   0.11056   0.00000  Uiso   1.00
C345   C     0.88890   0.22967   0.09071   0.00000  Uiso   1.00
H346   H     0.05141   0.57004   0.12907   0.00000  Uiso   1.00
H347   H     0.10724   0.59651   0.07176   0.00000  Uiso   1.00
H348   H     0.12856   0.61530   0.22128   0.00000  Uiso   1.00
H349   H     0.91391   0.53254   0.09239   0.00000  Uiso   1.00
H350   H     0.17632   0.57193   0.01109   0.00000  Uiso   1.00
H351   H     0.22126   0.61153   0.32636   0.00000  Uiso   1.00
H352   H     0.76861   0.43702   0.05457   0.00000  Uiso   1.00
H353   H     0.10657   0.15440   0.15104   0.00000  Uiso   1.00
H354   H     0.16543   0.15806   0.09494   0.00000  Uiso   1.00
H355   H     0.18675   0.17685   0.24446   0.00000  Uiso   1.00
H356   H     0.97209   0.09409   0.11556   0.00000  Uiso   1.00
H357   H     0.22355   0.21606   0.02990   0.00000  Uiso   1.00
H358   H     0.26848   0.25567   0.34517   0.00000  Uiso   1.00
H359   H     0.81584   0.08116   0.07338   0.00000  Uiso   1.00
O360   O     0.23768   0.40391   0.98321   0.00000  Uiso   1.00
O361   O     0.29662   0.45587   0.39683   0.00000  Uiso   1.00
O362   O     0.70276   0.22692   0.04024   0.00000  Uiso   1.00
N363   N     0.17935   0.48766   0.02321   0.00000  Uiso   1.00
N364   N     0.22137   0.52470   0.31797   0.00000  Uiso   1.00
N365   N     0.79818   0.36155   0.06388   0.00000  Uiso   1.00
N366   N     0.20476   0.29618   0.03333   0.00000  Uiso   1.00
N367   N     0.24678   0.33321   0.32809   0.00000  Uiso   1.00
N368   N     0.82359   0.17006   0.07400   0.00000  Uiso   1.00
