data_job_05674
_audit_creation_date              2018-12-19
_audit_creation_method            'Materials Studio'
_symmetry_space_group_name_H-M    'P1'
_symmetry_Int_Tables_number       1
_symmetry_cell_setting            triclinic
loop_
_symmetry_equiv_pos_as_xyz
  x,y,z
_cell_length_a                    23.4045
_cell_length_b                    23.4045
_cell_length_c                    23.1575
_cell_angle_alpha                 90.0000
_cell_angle_beta                  90.0000
_cell_angle_gamma                 120.0000
loop_
_atom_site_label
_atom_site_type_symbol
_atom_site_fract_x
_atom_site_fract_y
_atom_site_fract_z
_atom_site_U_iso_or_equiv
_atom_site_adp_type
_atom_site_occupancy
C1     C     0.49467   0.33635   0.19348   0.00000  Uiso   1.00
C2     C     0.49913   0.29265   0.14693   0.00000  Uiso   1.00
C3     C     0.54689   0.27417   0.14362   0.00000  Uiso   1.00
C4     C     0.54241   0.23397   0.09771   0.00000  Uiso   1.00
C5     C     0.55703   0.16933   0.03167   0.00000  Uiso   1.00
C6     C     0.49513   0.39365   0.16172   0.00000  Uiso   1.00
C7     C     0.53951   0.46009   0.17085   0.00000  Uiso   1.00
C8     C     0.53164   0.50491   0.13739   0.00000  Uiso   1.00
C9     C     0.54001   0.59707   0.09433   0.00000  Uiso   1.00
C10    C     0.42610   0.29635   0.21994   0.00000  Uiso   1.00
C11    C     0.41244   0.28099   0.27803   0.00000  Uiso   1.00
C12    C     0.34646   0.24390   0.29360   0.00000  Uiso   1.00
C13    C     0.24766   0.18499   0.34095   0.00000  Uiso   1.00
C14    C     0.40178   0.29783   0.11784   0.00000  Uiso   1.00
C15    C     0.44868   0.27173   0.10585   0.00000  Uiso   1.00
C16    C     0.44412   0.23155   0.05993   0.00000  Uiso   1.00
C17    C     0.49186   0.21301   0.05656   0.00000  Uiso   1.00
C18    C     0.44467   0.37273   0.12063   0.00000  Uiso   1.00
C19    C     0.43674   0.41746   0.08716   0.00000  Uiso   1.00
C20    C     0.48110   0.48395   0.09623   0.00000  Uiso   1.00
C21    C     0.37564   0.27542   0.17886   0.00000  Uiso   1.00
C22    C     0.30967   0.23836   0.19434   0.00000  Uiso   1.00
C23    C     0.29591   0.22294   0.25244   0.00000  Uiso   1.00
H24    H     0.53395   0.35265   0.22546   0.00000  Uiso   1.00
H25    H     0.58594   0.29038   0.17542   0.00000  Uiso   1.00
H26    H     0.57855   0.47627   0.20265   0.00000  Uiso   1.00
H27    H     0.45150   0.29719   0.30981   0.00000  Uiso   1.00
H28    H     0.62133   0.21214   0.10181   0.00000  Uiso   1.00
H29    H     0.60574   0.60409   0.15923   0.00000  Uiso   1.00
H30    H     0.33783   0.22647   0.38521   0.00000  Uiso   1.00
H31    H     0.36250   0.28154   0.08585   0.00000  Uiso   1.00
H32    H     0.40507   0.21536   0.02815   0.00000  Uiso   1.00
H33    H     0.39768   0.40125   0.05537   0.00000  Uiso   1.00
H34    H     0.27064   0.22217   0.16254   0.00000  Uiso   1.00
H35    H     0.47453   0.15125   0.98228   0.00000  Uiso   1.00
H36    H     0.45894   0.54321   0.03970   0.00000  Uiso   1.00
H37    H     0.19104   0.16559   0.26568   0.00000  Uiso   1.00
O38    O     0.57904   0.13947   0.00659   0.00000  Uiso   1.00
O39    O     0.55858   0.65369   0.08193   0.00000  Uiso   1.00
O40    O     0.20710   0.15826   0.37842   0.00000  Uiso   1.00
N41    N     0.58093   0.20688   0.08160   0.00000  Uiso   1.00
N42    N     0.56636   0.57333   0.13528   0.00000  Uiso   1.00
N43    N     0.31589   0.22030   0.34656   0.00000  Uiso   1.00
N44    N     0.50194   0.17412   0.01728   0.00000  Uiso   1.00
N45    N     0.48737   0.54057   0.07096   0.00000  Uiso   1.00
N46    N     0.23690   0.18754   0.28224   0.00000  Uiso   1.00
C47    C     0.66365   0.15832   0.19348   0.00000  Uiso   1.00
C48    C     0.70735   0.20648   0.14693   0.00000  Uiso   1.00
C49    C     0.72583   0.27272   0.14362   0.00000  Uiso   1.00
C50    C     0.76603   0.30843   0.09771   0.00000  Uiso   1.00
C51    C     0.83067   0.38770   0.03167   0.00000  Uiso   1.00
C52    C     0.60635   0.10147   0.16172   0.00000  Uiso   1.00
C53    C     0.53991   0.07942   0.17085   0.00000  Uiso   1.00
C54    C     0.49509   0.02673   0.13739   0.00000  Uiso   1.00
C55    C     0.40293   0.94294   0.09433   0.00000  Uiso   1.00
C56    C     0.70365   0.12975   0.21994   0.00000  Uiso   1.00
C57    C     0.71901   0.13146   0.27803   0.00000  Uiso   1.00
C58    C     0.75610   0.10256   0.29360   0.00000  Uiso   1.00
C59    C     0.81501   0.06267   0.34095   0.00000  Uiso   1.00
C60    C     0.70217   0.10395   0.11784   0.00000  Uiso   1.00
C61    C     0.72827   0.17695   0.10585   0.00000  Uiso   1.00
C62    C     0.76845   0.21257   0.05993   0.00000  Uiso   1.00
C63    C     0.78699   0.27885   0.05656   0.00000  Uiso   1.00
C64    C     0.62727   0.07194   0.12063   0.00000  Uiso   1.00
C65    C     0.58254   0.01927   0.08716   0.00000  Uiso   1.00
C66    C     0.51605   0.99715   0.09623   0.00000  Uiso   1.00
C67    C     0.72458   0.10022   0.17886   0.00000  Uiso   1.00
C68    C     0.76164   0.07131   0.19434   0.00000  Uiso   1.00
C69    C     0.77706   0.07298   0.25244   0.00000  Uiso   1.00
H70    H     0.64735   0.18131   0.22546   0.00000  Uiso   1.00
H71    H     0.70962   0.29555   0.17542   0.00000  Uiso   1.00
H72    H     0.52373   0.10228   0.20265   0.00000  Uiso   1.00
H73    H     0.70281   0.15431   0.30981   0.00000  Uiso   1.00
H74    H     0.78786   0.40919   0.10181   0.00000  Uiso   1.00
H75    H     0.39591   0.00165   0.15923   0.00000  Uiso   1.00
H76    H     0.77353   0.11136   0.38521   0.00000  Uiso   1.00
H77    H     0.71846   0.08096   0.08585   0.00000  Uiso   1.00
H78    H     0.78464   0.18970   0.02815   0.00000  Uiso   1.00
H79    H     0.59875   0.99643   0.05537   0.00000  Uiso   1.00
H80    H     0.77783   0.04846   0.16254   0.00000  Uiso   1.00
H81    H     0.84875   0.32328   0.98228   0.00000  Uiso   1.00
H82    H     0.45679   0.91573   0.03970   0.00000  Uiso   1.00
H83    H     0.83441   0.02545   0.26568   0.00000  Uiso   1.00
O84    O     0.86053   0.43957   0.00659   0.00000  Uiso   1.00
O85    O     0.34631   0.90489   0.08193   0.00000  Uiso   1.00
O86    O     0.84174   0.04884   0.37842   0.00000  Uiso   1.00
N87    N     0.79312   0.37405   0.08160   0.00000  Uiso   1.00
N88    N     0.42667   0.99303   0.13528   0.00000  Uiso   1.00
N89    N     0.77970   0.09559   0.34656   0.00000  Uiso   1.00
N90    N     0.82588   0.32782   0.01728   0.00000  Uiso   1.00
N91    N     0.45943   0.94680   0.07096   0.00000  Uiso   1.00
N92    N     0.81246   0.04936   0.28224   0.00000  Uiso   1.00
C93    C     0.84168   0.50533   0.19348   0.00000  Uiso   1.00
C94    C     0.79352   0.50087   0.14693   0.00000  Uiso   1.00
C95    C     0.72728   0.45311   0.14362   0.00000  Uiso   1.00
C96    C     0.69157   0.45759   0.09771   0.00000  Uiso   1.00
C97    C     0.61230   0.44297   0.03167   0.00000  Uiso   1.00
C98    C     0.89853   0.50487   0.16172   0.00000  Uiso   1.00
C99    C     0.92058   0.46049   0.17085   0.00000  Uiso   1.00
C100   C     0.97327   0.46836   0.13739   0.00000  Uiso   1.00
C101   C     0.05706   0.45999   0.09433   0.00000  Uiso   1.00
C102   C     0.87025   0.57390   0.21994   0.00000  Uiso   1.00
C103   C     0.86854   0.58756   0.27803   0.00000  Uiso   1.00
C104   C     0.89744   0.65354   0.29360   0.00000  Uiso   1.00
C105   C     0.93733   0.75234   0.34095   0.00000  Uiso   1.00
C106   C     0.89605   0.59822   0.11784   0.00000  Uiso   1.00
C107   C     0.82305   0.55132   0.10585   0.00000  Uiso   1.00
C108   C     0.78743   0.55588   0.05993   0.00000  Uiso   1.00
C109   C     0.72115   0.50814   0.05656   0.00000  Uiso   1.00
C110   C     0.92806   0.55533   0.12063   0.00000  Uiso   1.00
C111   C     0.98073   0.56326   0.08716   0.00000  Uiso   1.00
C112   C     0.00285   0.51890   0.09623   0.00000  Uiso   1.00
C113   C     0.89978   0.62436   0.17886   0.00000  Uiso   1.00
C114   C     0.92869   0.69033   0.19434   0.00000  Uiso   1.00
C115   C     0.92702   0.70409   0.25244   0.00000  Uiso   1.00
H116   H     0.81869   0.46605   0.22546   0.00000  Uiso   1.00
H117   H     0.70445   0.41406   0.17542   0.00000  Uiso   1.00
H118   H     0.89772   0.42145   0.20265   0.00000  Uiso   1.00
H119   H     0.84569   0.54850   0.30981   0.00000  Uiso   1.00
H120   H     0.59081   0.37867   0.10181   0.00000  Uiso   1.00
H121   H     0.99835   0.39426   0.15923   0.00000  Uiso   1.00
H122   H     0.88864   0.66217   0.38521   0.00000  Uiso   1.00
H123   H     0.91904   0.63750   0.08585   0.00000  Uiso   1.00
H124   H     0.81030   0.59493   0.02815   0.00000  Uiso   1.00
H125   H     0.00357   0.60232   0.05537   0.00000  Uiso   1.00
H126   H     0.95154   0.72936   0.16254   0.00000  Uiso   1.00
H127   H     0.67672   0.52547   0.98228   0.00000  Uiso   1.00
H128   H     0.08427   0.54106   0.03970   0.00000  Uiso   1.00
H129   H     0.97455   0.80896   0.26568   0.00000  Uiso   1.00
O130   O     0.56043   0.42096   0.00659   0.00000  Uiso   1.00
O131   O     0.09511   0.44142   0.08193   0.00000  Uiso   1.00
O132   O     0.95116   0.79290   0.37842   0.00000  Uiso   1.00
N133   N     0.62595   0.41907   0.08160   0.00000  Uiso   1.00
N134   N     0.00697   0.43364   0.13528   0.00000  Uiso   1.00
N135   N     0.90441   0.68411   0.34656   0.00000  Uiso   1.00
N136   N     0.67218   0.49806   0.01728   0.00000  Uiso   1.00
N137   N     0.05320   0.51263   0.07096   0.00000  Uiso   1.00
N138   N     0.95064   0.76310   0.28224   0.00000  Uiso   1.00
C139   C     0.50533   0.66365   0.69348   0.00000  Uiso   1.00
C140   C     0.50087   0.70735   0.64693   0.00000  Uiso   1.00
C141   C     0.45311   0.72583   0.64362   0.00000  Uiso   1.00
C142   C     0.45759   0.76603   0.59771   0.00000  Uiso   1.00
C143   C     0.44297   0.83067   0.53167   0.00000  Uiso   1.00
C144   C     0.50487   0.60635   0.66172   0.00000  Uiso   1.00
C145   C     0.46049   0.53991   0.67085   0.00000  Uiso   1.00
C146   C     0.46836   0.49509   0.63739   0.00000  Uiso   1.00
C147   C     0.45999   0.40293   0.59433   0.00000  Uiso   1.00
C148   C     0.57390   0.70365   0.71994   0.00000  Uiso   1.00
C149   C     0.58756   0.71901   0.77803   0.00000  Uiso   1.00
C150   C     0.65354   0.75610   0.79360   0.00000  Uiso   1.00
C151   C     0.75234   0.81501   0.84095   0.00000  Uiso   1.00
C152   C     0.59822   0.70217   0.61784   0.00000  Uiso   1.00
C153   C     0.55132   0.72827   0.60585   0.00000  Uiso   1.00
C154   C     0.55588   0.76845   0.55993   0.00000  Uiso   1.00
C155   C     0.50814   0.78699   0.55656   0.00000  Uiso   1.00
C156   C     0.55533   0.62727   0.62063   0.00000  Uiso   1.00
C157   C     0.56326   0.58254   0.58716   0.00000  Uiso   1.00
C158   C     0.51890   0.51605   0.59623   0.00000  Uiso   1.00
C159   C     0.62436   0.72458   0.67886   0.00000  Uiso   1.00
C160   C     0.69033   0.76164   0.69434   0.00000  Uiso   1.00
C161   C     0.70409   0.77706   0.75244   0.00000  Uiso   1.00
H162   H     0.46605   0.64735   0.72546   0.00000  Uiso   1.00
H163   H     0.41406   0.70962   0.67542   0.00000  Uiso   1.00
H164   H     0.42145   0.52373   0.70265   0.00000  Uiso   1.00
H165   H     0.54850   0.70281   0.80981   0.00000  Uiso   1.00
H166   H     0.37867   0.78786   0.60181   0.00000  Uiso   1.00
H167   H     0.39426   0.39591   0.65923   0.00000  Uiso   1.00
H168   H     0.66217   0.77353   0.88521   0.00000  Uiso   1.00
H169   H     0.63750   0.71846   0.58585   0.00000  Uiso   1.00
H170   H     0.59493   0.78464   0.52815   0.00000  Uiso   1.00
H171   H     0.60232   0.59875   0.55537   0.00000  Uiso   1.00
H172   H     0.72936   0.77783   0.66254   0.00000  Uiso   1.00
H173   H     0.52547   0.84875   0.48228   0.00000  Uiso   1.00
H174   H     0.54106   0.45679   0.53970   0.00000  Uiso   1.00
H175   H     0.80896   0.83441   0.76568   0.00000  Uiso   1.00
O176   O     0.42096   0.86053   0.50659   0.00000  Uiso   1.00
O177   O     0.44142   0.34631   0.58193   0.00000  Uiso   1.00
O178   O     0.79290   0.84174   0.87842   0.00000  Uiso   1.00
N179   N     0.41907   0.79312   0.58160   0.00000  Uiso   1.00
N180   N     0.43364   0.42667   0.63528   0.00000  Uiso   1.00
N181   N     0.68411   0.77970   0.84656   0.00000  Uiso   1.00
N182   N     0.49806   0.82588   0.51728   0.00000  Uiso   1.00
N183   N     0.51263   0.45943   0.57096   0.00000  Uiso   1.00
N184   N     0.76310   0.81246   0.78224   0.00000  Uiso   1.00
C185   C     0.33635   0.84168   0.69348   0.00000  Uiso   1.00
C186   C     0.29265   0.79352   0.64693   0.00000  Uiso   1.00
C187   C     0.27417   0.72728   0.64362   0.00000  Uiso   1.00
C188   C     0.23397   0.69157   0.59771   0.00000  Uiso   1.00
C189   C     0.16933   0.61230   0.53167   0.00000  Uiso   1.00
C190   C     0.39365   0.89853   0.66172   0.00000  Uiso   1.00
C191   C     0.46009   0.92058   0.67085   0.00000  Uiso   1.00
C192   C     0.50491   0.97327   0.63739   0.00000  Uiso   1.00
C193   C     0.59707   0.05706   0.59433   0.00000  Uiso   1.00
C194   C     0.29635   0.87025   0.71994   0.00000  Uiso   1.00
C195   C     0.28099   0.86854   0.77803   0.00000  Uiso   1.00
C196   C     0.24390   0.89744   0.79360   0.00000  Uiso   1.00
C197   C     0.18499   0.93733   0.84095   0.00000  Uiso   1.00
C198   C     0.29783   0.89605   0.61784   0.00000  Uiso   1.00
C199   C     0.27173   0.82305   0.60585   0.00000  Uiso   1.00
C200   C     0.23155   0.78743   0.55993   0.00000  Uiso   1.00
C201   C     0.21301   0.72115   0.55656   0.00000  Uiso   1.00
C202   C     0.37273   0.92806   0.62063   0.00000  Uiso   1.00
C203   C     0.41746   0.98073   0.58716   0.00000  Uiso   1.00
C204   C     0.48395   0.00285   0.59623   0.00000  Uiso   1.00
C205   C     0.27542   0.89978   0.67886   0.00000  Uiso   1.00
C206   C     0.23836   0.92869   0.69434   0.00000  Uiso   1.00
C207   C     0.22294   0.92702   0.75244   0.00000  Uiso   1.00
H208   H     0.35265   0.81869   0.72546   0.00000  Uiso   1.00
H209   H     0.29038   0.70445   0.67542   0.00000  Uiso   1.00
H210   H     0.47627   0.89772   0.70265   0.00000  Uiso   1.00
H211   H     0.29719   0.84569   0.80981   0.00000  Uiso   1.00
H212   H     0.21214   0.59081   0.60181   0.00000  Uiso   1.00
H213   H     0.60409   0.99835   0.65923   0.00000  Uiso   1.00
H214   H     0.22647   0.88864   0.88521   0.00000  Uiso   1.00
H215   H     0.28154   0.91904   0.58585   0.00000  Uiso   1.00
H216   H     0.21536   0.81030   0.52815   0.00000  Uiso   1.00
H217   H     0.40125   0.00357   0.55537   0.00000  Uiso   1.00
H218   H     0.22217   0.95154   0.66254   0.00000  Uiso   1.00
H219   H     0.15125   0.67672   0.48228   0.00000  Uiso   1.00
H220   H     0.54321   0.08427   0.53970   0.00000  Uiso   1.00
H221   H     0.16559   0.97455   0.76568   0.00000  Uiso   1.00
O222   O     0.13947   0.56043   0.50659   0.00000  Uiso   1.00
O223   O     0.65369   0.09511   0.58193   0.00000  Uiso   1.00
O224   O     0.15826   0.95116   0.87842   0.00000  Uiso   1.00
N225   N     0.20688   0.62595   0.58160   0.00000  Uiso   1.00
N226   N     0.57333   0.00697   0.63528   0.00000  Uiso   1.00
N227   N     0.22030   0.90441   0.84656   0.00000  Uiso   1.00
N228   N     0.17412   0.67218   0.51728   0.00000  Uiso   1.00
N229   N     0.54057   0.05320   0.57096   0.00000  Uiso   1.00
N230   N     0.18754   0.95064   0.78224   0.00000  Uiso   1.00
C231   C     0.15832   0.49467   0.69348   0.00000  Uiso   1.00
C232   C     0.20648   0.49913   0.64693   0.00000  Uiso   1.00
C233   C     0.27272   0.54689   0.64362   0.00000  Uiso   1.00
C234   C     0.30843   0.54241   0.59771   0.00000  Uiso   1.00
C235   C     0.38770   0.55703   0.53167   0.00000  Uiso   1.00
C236   C     0.10147   0.49513   0.66172   0.00000  Uiso   1.00
C237   C     0.07942   0.53951   0.67085   0.00000  Uiso   1.00
C238   C     0.02673   0.53164   0.63739   0.00000  Uiso   1.00
C239   C     0.94294   0.54001   0.59433   0.00000  Uiso   1.00
C240   C     0.12975   0.42610   0.71994   0.00000  Uiso   1.00
C241   C     0.13146   0.41244   0.77803   0.00000  Uiso   1.00
C242   C     0.10256   0.34646   0.79360   0.00000  Uiso   1.00
C243   C     0.06267   0.24766   0.84095   0.00000  Uiso   1.00
C244   C     0.10395   0.40178   0.61784   0.00000  Uiso   1.00
C245   C     0.17695   0.44868   0.60585   0.00000  Uiso   1.00
C246   C     0.21257   0.44412   0.55993   0.00000  Uiso   1.00
C247   C     0.27885   0.49186   0.55656   0.00000  Uiso   1.00
C248   C     0.07194   0.44467   0.62063   0.00000  Uiso   1.00
C249   C     0.01927   0.43674   0.58716   0.00000  Uiso   1.00
C250   C     0.99715   0.48110   0.59623   0.00000  Uiso   1.00
C251   C     0.10022   0.37564   0.67886   0.00000  Uiso   1.00
C252   C     0.07131   0.30967   0.69434   0.00000  Uiso   1.00
C253   C     0.07298   0.29591   0.75244   0.00000  Uiso   1.00
H254   H     0.18131   0.53395   0.72546   0.00000  Uiso   1.00
H255   H     0.29555   0.58594   0.67542   0.00000  Uiso   1.00
H256   H     0.10228   0.57855   0.70265   0.00000  Uiso   1.00
H257   H     0.15431   0.45150   0.80981   0.00000  Uiso   1.00
H258   H     0.40919   0.62133   0.60181   0.00000  Uiso   1.00
H259   H     0.00165   0.60574   0.65923   0.00000  Uiso   1.00
H260   H     0.11136   0.33783   0.88521   0.00000  Uiso   1.00
H261   H     0.08096   0.36250   0.58585   0.00000  Uiso   1.00
H262   H     0.18970   0.40507   0.52815   0.00000  Uiso   1.00
H263   H     0.99643   0.39768   0.55537   0.00000  Uiso   1.00
H264   H     0.04846   0.27064   0.66254   0.00000  Uiso   1.00
H265   H     0.32328   0.47453   0.48228   0.00000  Uiso   1.00
H266   H     0.91573   0.45894   0.53970   0.00000  Uiso   1.00
H267   H     0.02545   0.19104   0.76568   0.00000  Uiso   1.00
O268   O     0.43957   0.57904   0.50659   0.00000  Uiso   1.00
O269   O     0.90489   0.55858   0.58193   0.00000  Uiso   1.00
O270   O     0.04884   0.20710   0.87842   0.00000  Uiso   1.00
N271   N     0.37405   0.58093   0.58160   0.00000  Uiso   1.00
N272   N     0.99303   0.56636   0.63528   0.00000  Uiso   1.00
N273   N     0.09559   0.31589   0.84656   0.00000  Uiso   1.00
N274   N     0.32782   0.50194   0.51728   0.00000  Uiso   1.00
N275   N     0.94680   0.48737   0.57096   0.00000  Uiso   1.00
N276   N     0.04936   0.23690   0.78224   0.00000  Uiso   1.00
C277   C     0.33635   0.49467   0.80652   0.00000  Uiso   1.00
C278   C     0.29265   0.49913   0.85307   0.00000  Uiso   1.00
C279   C     0.27417   0.54689   0.85638   0.00000  Uiso   1.00
C280   C     0.23397   0.54241   0.90229   0.00000  Uiso   1.00
C281   C     0.16933   0.55703   0.96833   0.00000  Uiso   1.00
C282   C     0.39365   0.49513   0.83828   0.00000  Uiso   1.00
C283   C     0.46009   0.53951   0.82915   0.00000  Uiso   1.00
C284   C     0.50491   0.53164   0.86261   0.00000  Uiso   1.00
C285   C     0.59707   0.54001   0.90567   0.00000  Uiso   1.00
C286   C     0.29635   0.42610   0.78006   0.00000  Uiso   1.00
C287   C     0.28099   0.41244   0.72197   0.00000  Uiso   1.00
C288   C     0.24390   0.34646   0.70640   0.00000  Uiso   1.00
C289   C     0.18499   0.24766   0.65905   0.00000  Uiso   1.00
C290   C     0.29783   0.40178   0.88216   0.00000  Uiso   1.00
C291   C     0.27173   0.44868   0.89415   0.00000  Uiso   1.00
C292   C     0.23155   0.44412   0.94007   0.00000  Uiso   1.00
C293   C     0.21301   0.49186   0.94344   0.00000  Uiso   1.00
C294   C     0.37273   0.44467   0.87937   0.00000  Uiso   1.00
C295   C     0.41746   0.43674   0.91284   0.00000  Uiso   1.00
C296   C     0.48395   0.48110   0.90377   0.00000  Uiso   1.00
C297   C     0.27542   0.37564   0.82114   0.00000  Uiso   1.00
C298   C     0.23836   0.30967   0.80566   0.00000  Uiso   1.00
C299   C     0.22294   0.29591   0.74756   0.00000  Uiso   1.00
H300   H     0.35265   0.53395   0.77454   0.00000  Uiso   1.00
H301   H     0.29038   0.58594   0.82458   0.00000  Uiso   1.00
H302   H     0.47627   0.57855   0.79735   0.00000  Uiso   1.00
H303   H     0.29719   0.45150   0.69019   0.00000  Uiso   1.00
H304   H     0.21214   0.62133   0.89819   0.00000  Uiso   1.00
H305   H     0.60409   0.60574   0.84077   0.00000  Uiso   1.00
H306   H     0.22647   0.33783   0.61479   0.00000  Uiso   1.00
H307   H     0.28154   0.36250   0.91415   0.00000  Uiso   1.00
H308   H     0.21536   0.40507   0.97185   0.00000  Uiso   1.00
H309   H     0.40125   0.39768   0.94463   0.00000  Uiso   1.00
H310   H     0.22217   0.27064   0.83746   0.00000  Uiso   1.00
H311   H     0.15125   0.47453   0.01772   0.00000  Uiso   1.00
H312   H     0.54321   0.45894   0.96030   0.00000  Uiso   1.00
H313   H     0.16559   0.19104   0.73432   0.00000  Uiso   1.00
O314   O     0.13947   0.57904   0.99341   0.00000  Uiso   1.00
O315   O     0.65369   0.55858   0.91807   0.00000  Uiso   1.00
O316   O     0.15826   0.20710   0.62158   0.00000  Uiso   1.00
N317   N     0.20688   0.58093   0.91840   0.00000  Uiso   1.00
N318   N     0.57333   0.56636   0.86472   0.00000  Uiso   1.00
N319   N     0.22030   0.31589   0.65344   0.00000  Uiso   1.00
N320   N     0.17412   0.50194   0.98272   0.00000  Uiso   1.00
N321   N     0.54057   0.48737   0.92904   0.00000  Uiso   1.00
N322   N     0.18754   0.23690   0.71776   0.00000  Uiso   1.00
C323   C     0.15832   0.66365   0.80652   0.00000  Uiso   1.00
C324   C     0.20648   0.70735   0.85307   0.00000  Uiso   1.00
C325   C     0.27272   0.72583   0.85638   0.00000  Uiso   1.00
C326   C     0.30843   0.76603   0.90229   0.00000  Uiso   1.00
C327   C     0.38770   0.83067   0.96833   0.00000  Uiso   1.00
C328   C     0.10147   0.60635   0.83828   0.00000  Uiso   1.00
C329   C     0.07942   0.53991   0.82915   0.00000  Uiso   1.00
C330   C     0.02673   0.49509   0.86261   0.00000  Uiso   1.00
C331   C     0.94294   0.40293   0.90567   0.00000  Uiso   1.00
C332   C     0.12975   0.70365   0.78006   0.00000  Uiso   1.00
C333   C     0.13146   0.71901   0.72197   0.00000  Uiso   1.00
C334   C     0.10256   0.75610   0.70640   0.00000  Uiso   1.00
C335   C     0.06267   0.81501   0.65905   0.00000  Uiso   1.00
C336   C     0.10395   0.70217   0.88216   0.00000  Uiso   1.00
C337   C     0.17695   0.72827   0.89415   0.00000  Uiso   1.00
C338   C     0.21257   0.76845   0.94007   0.00000  Uiso   1.00
C339   C     0.27885   0.78699   0.94344   0.00000  Uiso   1.00
C340   C     0.07194   0.62727   0.87937   0.00000  Uiso   1.00
C341   C     0.01927   0.58254   0.91284   0.00000  Uiso   1.00
C342   C     0.99715   0.51605   0.90377   0.00000  Uiso   1.00
C343   C     0.10022   0.72458   0.82114   0.00000  Uiso   1.00
C344   C     0.07131   0.76164   0.80566   0.00000  Uiso   1.00
C345   C     0.07298   0.77706   0.74756   0.00000  Uiso   1.00
H346   H     0.18131   0.64735   0.77454   0.00000  Uiso   1.00
H347   H     0.29555   0.70962   0.82458   0.00000  Uiso   1.00
H348   H     0.10228   0.52373   0.79735   0.00000  Uiso   1.00
H349   H     0.15431   0.70281   0.69019   0.00000  Uiso   1.00
H350   H     0.40919   0.78786   0.89819   0.00000  Uiso   1.00
H351   H     0.00165   0.39591   0.84077   0.00000  Uiso   1.00
H352   H     0.11136   0.77353   0.61479   0.00000  Uiso   1.00
H353   H     0.08096   0.71846   0.91415   0.00000  Uiso   1.00
H354   H     0.18970   0.78464   0.97185   0.00000  Uiso   1.00
H355   H     0.99643   0.59875   0.94463   0.00000  Uiso   1.00
H356   H     0.04846   0.77783   0.83746   0.00000  Uiso   1.00
H357   H     0.32328   0.84875   0.01772   0.00000  Uiso   1.00
H358   H     0.91573   0.45679   0.96030   0.00000  Uiso   1.00
H359   H     0.02545   0.83441   0.73432   0.00000  Uiso   1.00
O360   O     0.43957   0.86053   0.99341   0.00000  Uiso   1.00
O361   O     0.90489   0.34631   0.91807   0.00000  Uiso   1.00
O362   O     0.04884   0.84174   0.62158   0.00000  Uiso   1.00
N363   N     0.37405   0.79312   0.91840   0.00000  Uiso   1.00
N364   N     0.99303   0.42667   0.86472   0.00000  Uiso   1.00
N365   N     0.09559   0.77970   0.65344   0.00000  Uiso   1.00
N366   N     0.32782   0.82588   0.98272   0.00000  Uiso   1.00
N367   N     0.94680   0.45943   0.92904   0.00000  Uiso   1.00
N368   N     0.04936   0.81246   0.71776   0.00000  Uiso   1.00
C369   C     0.50533   0.84168   0.80652   0.00000  Uiso   1.00
C370   C     0.50087   0.79352   0.85307   0.00000  Uiso   1.00
C371   C     0.45311   0.72728   0.85638   0.00000  Uiso   1.00
C372   C     0.45759   0.69157   0.90229   0.00000  Uiso   1.00
C373   C     0.44297   0.61230   0.96833   0.00000  Uiso   1.00
C374   C     0.50487   0.89853   0.83828   0.00000  Uiso   1.00
C375   C     0.46049   0.92058   0.82915   0.00000  Uiso   1.00
C376   C     0.46836   0.97327   0.86261   0.00000  Uiso   1.00
C377   C     0.45999   0.05706   0.90567   0.00000  Uiso   1.00
C378   C     0.57390   0.87025   0.78006   0.00000  Uiso   1.00
C379   C     0.58756   0.86854   0.72197   0.00000  Uiso   1.00
C380   C     0.65354   0.89744   0.70640   0.00000  Uiso   1.00
C381   C     0.75234   0.93733   0.65905   0.00000  Uiso   1.00
C382   C     0.59822   0.89605   0.88216   0.00000  Uiso   1.00
C383   C     0.55132   0.82305   0.89415   0.00000  Uiso   1.00
C384   C     0.55588   0.78743   0.94007   0.00000  Uiso   1.00
C385   C     0.50814   0.72115   0.94344   0.00000  Uiso   1.00
C386   C     0.55533   0.92806   0.87937   0.00000  Uiso   1.00
C387   C     0.56326   0.98073   0.91284   0.00000  Uiso   1.00
C388   C     0.51890   0.00285   0.90377   0.00000  Uiso   1.00
C389   C     0.62436   0.89978   0.82114   0.00000  Uiso   1.00
C390   C     0.69033   0.92869   0.80566   0.00000  Uiso   1.00
C391   C     0.70409   0.92702   0.74756   0.00000  Uiso   1.00
H392   H     0.46605   0.81869   0.77454   0.00000  Uiso   1.00
H393   H     0.41406   0.70445   0.82458   0.00000  Uiso   1.00
H394   H     0.42145   0.89772   0.79735   0.00000  Uiso   1.00
H395   H     0.54850   0.84569   0.69019   0.00000  Uiso   1.00
H396   H     0.37867   0.59081   0.89819   0.00000  Uiso   1.00
H397   H     0.39426   0.99835   0.84077   0.00000  Uiso   1.00
H398   H     0.66217   0.88864   0.61479   0.00000  Uiso   1.00
H399   H     0.63750   0.91904   0.91415   0.00000  Uiso   1.00
H400   H     0.59493   0.81030   0.97185   0.00000  Uiso   1.00
H401   H     0.60232   0.00357   0.94463   0.00000  Uiso   1.00
H402   H     0.72936   0.95154   0.83746   0.00000  Uiso   1.00
H403   H     0.52547   0.67672   0.01772   0.00000  Uiso   1.00
H404   H     0.54106   0.08427   0.96030   0.00000  Uiso   1.00
H405   H     0.80896   0.97455   0.73432   0.00000  Uiso   1.00
O406   O     0.42096   0.56043   0.99341   0.00000  Uiso   1.00
O407   O     0.44142   0.09511   0.91807   0.00000  Uiso   1.00
O408   O     0.79290   0.95116   0.62158   0.00000  Uiso   1.00
N409   N     0.41907   0.62595   0.91840   0.00000  Uiso   1.00
N410   N     0.43364   0.00697   0.86472   0.00000  Uiso   1.00
N411   N     0.68411   0.90441   0.65344   0.00000  Uiso   1.00
N412   N     0.49806   0.67218   0.98272   0.00000  Uiso   1.00
N413   N     0.51263   0.05320   0.92904   0.00000  Uiso   1.00
N414   N     0.76310   0.95064   0.71776   0.00000  Uiso   1.00
C415   C     0.66365   0.50533   0.30652   0.00000  Uiso   1.00
C416   C     0.70735   0.50087   0.35307   0.00000  Uiso   1.00
C417   C     0.72583   0.45311   0.35638   0.00000  Uiso   1.00
C418   C     0.76603   0.45759   0.40229   0.00000  Uiso   1.00
C419   C     0.83067   0.44297   0.46833   0.00000  Uiso   1.00
C420   C     0.60635   0.50487   0.33828   0.00000  Uiso   1.00
C421   C     0.53991   0.46049   0.32915   0.00000  Uiso   1.00
C422   C     0.49509   0.46836   0.36261   0.00000  Uiso   1.00
C423   C     0.40293   0.45999   0.40567   0.00000  Uiso   1.00
C424   C     0.70365   0.57390   0.28006   0.00000  Uiso   1.00
C425   C     0.71901   0.58756   0.22197   0.00000  Uiso   1.00
C426   C     0.75610   0.65354   0.20640   0.00000  Uiso   1.00
C427   C     0.81501   0.75234   0.15905   0.00000  Uiso   1.00
C428   C     0.70217   0.59822   0.38216   0.00000  Uiso   1.00
C429   C     0.72827   0.55132   0.39415   0.00000  Uiso   1.00
C430   C     0.76845   0.55588   0.44007   0.00000  Uiso   1.00
C431   C     0.78699   0.50814   0.44344   0.00000  Uiso   1.00
C432   C     0.62727   0.55533   0.37937   0.00000  Uiso   1.00
C433   C     0.58254   0.56326   0.41284   0.00000  Uiso   1.00
C434   C     0.51605   0.51890   0.40377   0.00000  Uiso   1.00
C435   C     0.72458   0.62436   0.32114   0.00000  Uiso   1.00
C436   C     0.76164   0.69033   0.30566   0.00000  Uiso   1.00
C437   C     0.77706   0.70409   0.24756   0.00000  Uiso   1.00
H438   H     0.64735   0.46605   0.27454   0.00000  Uiso   1.00
H439   H     0.70962   0.41406   0.32458   0.00000  Uiso   1.00
H440   H     0.52373   0.42145   0.29735   0.00000  Uiso   1.00
H441   H     0.70281   0.54850   0.19019   0.00000  Uiso   1.00
H442   H     0.78786   0.37867   0.39819   0.00000  Uiso   1.00
H443   H     0.39591   0.39426   0.34077   0.00000  Uiso   1.00
H444   H     0.77353   0.66217   0.11479   0.00000  Uiso   1.00
H445   H     0.71846   0.63750   0.41415   0.00000  Uiso   1.00
H446   H     0.78464   0.59493   0.47185   0.00000  Uiso   1.00
H447   H     0.59875   0.60232   0.44463   0.00000  Uiso   1.00
H448   H     0.77783   0.72936   0.33746   0.00000  Uiso   1.00
H449   H     0.84875   0.52547   0.51772   0.00000  Uiso   1.00
H450   H     0.45679   0.54106   0.46030   0.00000  Uiso   1.00
H451   H     0.83441   0.80896   0.23432   0.00000  Uiso   1.00
O452   O     0.86053   0.42096   0.49341   0.00000  Uiso   1.00
O453   O     0.34631   0.44142   0.41807   0.00000  Uiso   1.00
O454   O     0.84174   0.79290   0.12158   0.00000  Uiso   1.00
N455   N     0.79312   0.41907   0.41840   0.00000  Uiso   1.00
N456   N     0.42667   0.43364   0.36472   0.00000  Uiso   1.00
N457   N     0.77970   0.68411   0.15344   0.00000  Uiso   1.00
N458   N     0.82588   0.49806   0.48272   0.00000  Uiso   1.00
N459   N     0.45943   0.51263   0.42904   0.00000  Uiso   1.00
N460   N     0.81246   0.76310   0.21776   0.00000  Uiso   1.00
C461   C     0.84168   0.33635   0.30652   0.00000  Uiso   1.00
C462   C     0.79352   0.29265   0.35307   0.00000  Uiso   1.00
C463   C     0.72728   0.27417   0.35638   0.00000  Uiso   1.00
C464   C     0.69157   0.23397   0.40229   0.00000  Uiso   1.00
C465   C     0.61230   0.16933   0.46833   0.00000  Uiso   1.00
C466   C     0.89853   0.39365   0.33828   0.00000  Uiso   1.00
C467   C     0.92058   0.46009   0.32915   0.00000  Uiso   1.00
C468   C     0.97327   0.50491   0.36261   0.00000  Uiso   1.00
C469   C     0.05706   0.59707   0.40567   0.00000  Uiso   1.00
C470   C     0.87025   0.29635   0.28006   0.00000  Uiso   1.00
C471   C     0.86854   0.28099   0.22197   0.00000  Uiso   1.00
C472   C     0.89744   0.24390   0.20640   0.00000  Uiso   1.00
C473   C     0.93733   0.18499   0.15905   0.00000  Uiso   1.00
C474   C     0.89605   0.29783   0.38216   0.00000  Uiso   1.00
C475   C     0.82305   0.27173   0.39415   0.00000  Uiso   1.00
C476   C     0.78743   0.23155   0.44007   0.00000  Uiso   1.00
C477   C     0.72115   0.21301   0.44344   0.00000  Uiso   1.00
C478   C     0.92806   0.37273   0.37937   0.00000  Uiso   1.00
C479   C     0.98073   0.41746   0.41284   0.00000  Uiso   1.00
C480   C     0.00285   0.48395   0.40377   0.00000  Uiso   1.00
C481   C     0.89978   0.27542   0.32114   0.00000  Uiso   1.00
C482   C     0.92869   0.23836   0.30566   0.00000  Uiso   1.00
C483   C     0.92702   0.22294   0.24756   0.00000  Uiso   1.00
H484   H     0.81869   0.35265   0.27454   0.00000  Uiso   1.00
H485   H     0.70445   0.29038   0.32458   0.00000  Uiso   1.00
H486   H     0.89772   0.47627   0.29735   0.00000  Uiso   1.00
H487   H     0.84569   0.29719   0.19019   0.00000  Uiso   1.00
H488   H     0.59081   0.21214   0.39819   0.00000  Uiso   1.00
H489   H     0.99835   0.60409   0.34077   0.00000  Uiso   1.00
H490   H     0.88864   0.22647   0.11479   0.00000  Uiso   1.00
H491   H     0.91904   0.28154   0.41415   0.00000  Uiso   1.00
H492   H     0.81030   0.21536   0.47185   0.00000  Uiso   1.00
H493   H     0.00357   0.40125   0.44463   0.00000  Uiso   1.00
H494   H     0.95154   0.22217   0.33746   0.00000  Uiso   1.00
H495   H     0.67672   0.15125   0.51772   0.00000  Uiso   1.00
H496   H     0.08427   0.54321   0.46030   0.00000  Uiso   1.00
H497   H     0.97455   0.16559   0.23432   0.00000  Uiso   1.00
O498   O     0.56043   0.13947   0.49341   0.00000  Uiso   1.00
O499   O     0.09511   0.65369   0.41807   0.00000  Uiso   1.00
O500   O     0.95116   0.15826   0.12158   0.00000  Uiso   1.00
N501   N     0.62595   0.20688   0.41840   0.00000  Uiso   1.00
N502   N     0.00697   0.57333   0.36472   0.00000  Uiso   1.00
N503   N     0.90441   0.22030   0.15344   0.00000  Uiso   1.00
N504   N     0.67218   0.17412   0.48272   0.00000  Uiso   1.00
N505   N     0.05320   0.54057   0.42904   0.00000  Uiso   1.00
N506   N     0.95064   0.18754   0.21776   0.00000  Uiso   1.00
C507   C     0.49467   0.15832   0.30652   0.00000  Uiso   1.00
C508   C     0.49913   0.20648   0.35307   0.00000  Uiso   1.00
C509   C     0.54689   0.27272   0.35638   0.00000  Uiso   1.00
C510   C     0.54241   0.30843   0.40229   0.00000  Uiso   1.00
C511   C     0.55703   0.38770   0.46833   0.00000  Uiso   1.00
C512   C     0.49513   0.10147   0.33828   0.00000  Uiso   1.00
C513   C     0.53951   0.07942   0.32915   0.00000  Uiso   1.00
C514   C     0.53164   0.02673   0.36261   0.00000  Uiso   1.00
C515   C     0.54001   0.94294   0.40567   0.00000  Uiso   1.00
C516   C     0.42610   0.12975   0.28006   0.00000  Uiso   1.00
C517   C     0.41244   0.13146   0.22197   0.00000  Uiso   1.00
C518   C     0.34646   0.10256   0.20640   0.00000  Uiso   1.00
C519   C     0.24766   0.06267   0.15905   0.00000  Uiso   1.00
C520   C     0.40178   0.10395   0.38216   0.00000  Uiso   1.00
C521   C     0.44868   0.17695   0.39415   0.00000  Uiso   1.00
C522   C     0.44412   0.21257   0.44007   0.00000  Uiso   1.00
C523   C     0.49186   0.27885   0.44344   0.00000  Uiso   1.00
C524   C     0.44467   0.07194   0.37937   0.00000  Uiso   1.00
C525   C     0.43674   0.01927   0.41284   0.00000  Uiso   1.00
C526   C     0.48110   0.99715   0.40377   0.00000  Uiso   1.00
C527   C     0.37564   0.10022   0.32114   0.00000  Uiso   1.00
C528   C     0.30967   0.07131   0.30566   0.00000  Uiso   1.00
C529   C     0.29591   0.07298   0.24756   0.00000  Uiso   1.00
H530   H     0.53395   0.18131   0.27454   0.00000  Uiso   1.00
H531   H     0.58594   0.29555   0.32458   0.00000  Uiso   1.00
H532   H     0.57855   0.10228   0.29735   0.00000  Uiso   1.00
H533   H     0.45150   0.15431   0.19019   0.00000  Uiso   1.00
H534   H     0.62133   0.40919   0.39819   0.00000  Uiso   1.00
H535   H     0.60574   0.00165   0.34077   0.00000  Uiso   1.00
H536   H     0.33783   0.11136   0.11479   0.00000  Uiso   1.00
H537   H     0.36250   0.08096   0.41415   0.00000  Uiso   1.00
H538   H     0.40507   0.18970   0.47185   0.00000  Uiso   1.00
H539   H     0.39768   0.99643   0.44463   0.00000  Uiso   1.00
H540   H     0.27064   0.04846   0.33746   0.00000  Uiso   1.00
H541   H     0.47453   0.32328   0.51772   0.00000  Uiso   1.00
H542   H     0.45894   0.91573   0.46030   0.00000  Uiso   1.00
H543   H     0.19104   0.02545   0.23432   0.00000  Uiso   1.00
O544   O     0.57904   0.43957   0.49341   0.00000  Uiso   1.00
O545   O     0.55858   0.90489   0.41807   0.00000  Uiso   1.00
O546   O     0.20710   0.04884   0.12158   0.00000  Uiso   1.00
N547   N     0.58093   0.37405   0.41840   0.00000  Uiso   1.00
N548   N     0.56636   0.99303   0.36472   0.00000  Uiso   1.00
N549   N     0.31589   0.09559   0.15344   0.00000  Uiso   1.00
N550   N     0.50194   0.32782   0.48272   0.00000  Uiso   1.00
N551   N     0.48737   0.94680   0.42904   0.00000  Uiso   1.00
N552   N     0.23690   0.04936   0.21776   0.00000  Uiso   1.00
