data_job_00385
_audit_creation_date              2018-12-19
_audit_creation_method            'Materials Studio'
_symmetry_space_group_name_H-M    'P1'
_symmetry_Int_Tables_number       1
_symmetry_cell_setting            triclinic
loop_
_symmetry_equiv_pos_as_xyz
  x,y,z
_cell_length_a                    9.6774
_cell_length_b                    12.7930
_cell_length_c                    19.1401
_cell_angle_alpha                 90.0000
_cell_angle_beta                  83.0072
_cell_angle_gamma                 90.0000
loop_
_atom_site_label
_atom_site_type_symbol
_atom_site_fract_x
_atom_site_fract_y
_atom_site_fract_z
_atom_site_U_iso_or_equiv
_atom_site_adp_type
_atom_site_occupancy
C1     C     0.00477   0.44593   0.75518   0.00000  Uiso   1.00
C2     C     0.92643   0.50461   0.70287   0.00000  Uiso   1.00
C3     C     0.90493   0.61181   0.70175   0.00000  Uiso   1.00
C4     C     0.83064   0.65036   0.64969   0.00000  Uiso   1.00
C5     C     0.71669   0.75156   0.57596   0.00000  Uiso   1.00
C6     C     0.90369   0.36417   0.78948   0.00000  Uiso   1.00
C7     C     0.86310   0.35330   0.86119   0.00000  Uiso   1.00
C8     C     0.76968   0.27362   0.88203   0.00000  Uiso   1.00
C9     C     0.62050   0.15675   0.94278   0.00000  Uiso   1.00
C10    C     0.11996   0.38527   0.71118   0.00000  Uiso   1.00
C11    C     0.26120   0.39212   0.71707   0.00000  Uiso   1.00
C12    C     0.34985   0.33018   0.67200   0.00000  Uiso   1.00
C13    C     0.53645   0.24607   0.61117   0.00000  Uiso   1.00
C14    C     0.91107   0.32374   0.66469   0.00000  Uiso   1.00
C15    C     0.87553   0.43823   0.65372   0.00000  Uiso   1.00
C16    C     0.80126   0.47663   0.60164   0.00000  Uiso   1.00
C17    C     0.77966   0.58387   0.60045   0.00000  Uiso   1.00
C18    C     0.85280   0.29781   0.74034   0.00000  Uiso   1.00
C19    C     0.75942   0.21812   0.76108   0.00000  Uiso   1.00
C20    C     0.71869   0.20713   0.83280   0.00000  Uiso   1.00
C21    C     0.06906   0.31890   0.66203   0.00000  Uiso   1.00
C22    C     0.15752   0.25694   0.61695   0.00000  Uiso   1.00
C23    C     0.29886   0.26369   0.62276   0.00000  Uiso   1.00
H24    H     0.04439   0.49760   0.79344   0.00000  Uiso   1.00
H25    H     0.94433   0.66315   0.73980   0.00000  Uiso   1.00
H26    H     0.90251   0.40467   0.89921   0.00000  Uiso   1.00
H27    H     0.30054   0.44349   0.75511   0.00000  Uiso   1.00
H28    H     0.81090   0.81742   0.65867   0.00000  Uiso   1.00
H29    H     0.72276   0.27239   0.99480   0.00000  Uiso   1.00
H30    H     0.56210   0.35423   0.69092   0.00000  Uiso   1.00
H31    H     0.87144   0.27206   0.62643   0.00000  Uiso   1.00
H32    H     0.76188   0.42525   0.56362   0.00000  Uiso   1.00
H33    H     0.72006   0.16677   0.72303   0.00000  Uiso   1.00
H34    H     0.11810   0.20558   0.57893   0.00000  Uiso   1.00
H35    H     0.66282   0.62433   0.51567   0.00000  Uiso   1.00
H36    H     0.57468   0.07929   0.85180   0.00000  Uiso   1.00
H37    H     0.41401   0.16114   0.54793   0.00000  Uiso   1.00
O38    O     0.66787   0.82571   0.54888   0.00000  Uiso   1.00
O39    O     0.55226   0.11063   0.98987   0.00000  Uiso   1.00
O40    O     0.65344   0.21802   0.59119   0.00000  Uiso   1.00
N41    N     0.79111   0.75096   0.63362   0.00000  Uiso   1.00
N42    N     0.70869   0.24139   0.94789   0.00000  Uiso   1.00
N43    N     0.49339   0.31789   0.66380   0.00000  Uiso   1.00
N44    N     0.71143   0.64706   0.55668   0.00000  Uiso   1.00
N45    N     0.62901   0.13749   0.87094   0.00000  Uiso   1.00
N46    N     0.41371   0.21399   0.58686   0.00000  Uiso   1.00
C47    C     0.99523   0.94593   0.74482   0.00000  Uiso   1.00
C48    C     0.07357   0.00461   0.79713   0.00000  Uiso   1.00
C49    C     0.09507   0.11181   0.79825   0.00000  Uiso   1.00
C50    C     0.16936   0.15036   0.85031   0.00000  Uiso   1.00
C51    C     0.28331   0.25156   0.92404   0.00000  Uiso   1.00
C52    C     0.09631   0.86417   0.71052   0.00000  Uiso   1.00
C53    C     0.13690   0.85330   0.63881   0.00000  Uiso   1.00
C54    C     0.23032   0.77362   0.61797   0.00000  Uiso   1.00
C55    C     0.37950   0.65675   0.55722   0.00000  Uiso   1.00
C56    C     0.88004   0.88527   0.78882   0.00000  Uiso   1.00
C57    C     0.73880   0.89212   0.78293   0.00000  Uiso   1.00
C58    C     0.65015   0.83018   0.82800   0.00000  Uiso   1.00
C59    C     0.46355   0.74607   0.88883   0.00000  Uiso   1.00
C60    C     0.08893   0.82374   0.83531   0.00000  Uiso   1.00
C61    C     0.12447   0.93823   0.84628   0.00000  Uiso   1.00
C62    C     0.19874   0.97663   0.89836   0.00000  Uiso   1.00
C63    C     0.22034   0.08387   0.89955   0.00000  Uiso   1.00
C64    C     0.14720   0.79781   0.75966   0.00000  Uiso   1.00
C65    C     0.24058   0.71812   0.73892   0.00000  Uiso   1.00
C66    C     0.28131   0.70713   0.66720   0.00000  Uiso   1.00
C67    C     0.93094   0.81890   0.83797   0.00000  Uiso   1.00
C68    C     0.84248   0.75694   0.88305   0.00000  Uiso   1.00
C69    C     0.70114   0.76369   0.87724   0.00000  Uiso   1.00
H70    H     0.95561   0.99760   0.70656   0.00000  Uiso   1.00
H71    H     0.05567   0.16315   0.76020   0.00000  Uiso   1.00
H72    H     0.09749   0.90467   0.60079   0.00000  Uiso   1.00
H73    H     0.69946   0.94349   0.74489   0.00000  Uiso   1.00
H74    H     0.18910   0.31742   0.84133   0.00000  Uiso   1.00
H75    H     0.27724   0.77239   0.50520   0.00000  Uiso   1.00
H76    H     0.43790   0.85423   0.80908   0.00000  Uiso   1.00
H77    H     0.12856   0.77206   0.87357   0.00000  Uiso   1.00
H78    H     0.23812   0.92525   0.93638   0.00000  Uiso   1.00
H79    H     0.27994   0.66677   0.77697   0.00000  Uiso   1.00
H80    H     0.88190   0.70558   0.92107   0.00000  Uiso   1.00
H81    H     0.33718   0.12433   0.98433   0.00000  Uiso   1.00
H82    H     0.42532   0.57929   0.64820   0.00000  Uiso   1.00
H83    H     0.58599   0.66114   0.95207   0.00000  Uiso   1.00
O84    O     0.33213   0.32571   0.95112   0.00000  Uiso   1.00
O85    O     0.44774   0.61063   0.51013   0.00000  Uiso   1.00
O86    O     0.34656   0.71802   0.90881   0.00000  Uiso   1.00
N87    N     0.20889   0.25096   0.86638   0.00000  Uiso   1.00
N88    N     0.29131   0.74139   0.55211   0.00000  Uiso   1.00
N89    N     0.50661   0.81789   0.83620   0.00000  Uiso   1.00
N90    N     0.28857   0.14706   0.94332   0.00000  Uiso   1.00
N91    N     0.37099   0.63749   0.62906   0.00000  Uiso   1.00
N92    N     0.58629   0.71399   0.91314   0.00000  Uiso   1.00
C93    C     0.99523   0.55407   0.24482   0.00000  Uiso   1.00
C94    C     0.07357   0.49539   0.29713   0.00000  Uiso   1.00
C95    C     0.09507   0.38819   0.29825   0.00000  Uiso   1.00
C96    C     0.16936   0.34964   0.35031   0.00000  Uiso   1.00
C97    C     0.28331   0.24844   0.42404   0.00000  Uiso   1.00
C98    C     0.09631   0.63583   0.21052   0.00000  Uiso   1.00
C99    C     0.13690   0.64670   0.13881   0.00000  Uiso   1.00
C100   C     0.23032   0.72638   0.11797   0.00000  Uiso   1.00
C101   C     0.37950   0.84325   0.05722   0.00000  Uiso   1.00
C102   C     0.88004   0.61473   0.28882   0.00000  Uiso   1.00
C103   C     0.73880   0.60788   0.28293   0.00000  Uiso   1.00
C104   C     0.65015   0.66982   0.32800   0.00000  Uiso   1.00
C105   C     0.46355   0.75393   0.38883   0.00000  Uiso   1.00
C106   C     0.08893   0.67626   0.33531   0.00000  Uiso   1.00
C107   C     0.12447   0.56177   0.34628   0.00000  Uiso   1.00
C108   C     0.19874   0.52337   0.39836   0.00000  Uiso   1.00
C109   C     0.22034   0.41613   0.39955   0.00000  Uiso   1.00
C110   C     0.14720   0.70219   0.25966   0.00000  Uiso   1.00
C111   C     0.24058   0.78188   0.23892   0.00000  Uiso   1.00
C112   C     0.28131   0.79287   0.16720   0.00000  Uiso   1.00
C113   C     0.93094   0.68110   0.33797   0.00000  Uiso   1.00
C114   C     0.84248   0.74306   0.38305   0.00000  Uiso   1.00
C115   C     0.70114   0.73631   0.37724   0.00000  Uiso   1.00
H116   H     0.95561   0.50240   0.20656   0.00000  Uiso   1.00
H117   H     0.05567   0.33685   0.26020   0.00000  Uiso   1.00
H118   H     0.09749   0.59533   0.10079   0.00000  Uiso   1.00
H119   H     0.69946   0.55651   0.24489   0.00000  Uiso   1.00
H120   H     0.18910   0.18258   0.34133   0.00000  Uiso   1.00
H121   H     0.27724   0.72761   0.00520   0.00000  Uiso   1.00
H122   H     0.43790   0.64577   0.30908   0.00000  Uiso   1.00
H123   H     0.12856   0.72794   0.37357   0.00000  Uiso   1.00
H124   H     0.23812   0.57475   0.43638   0.00000  Uiso   1.00
H125   H     0.27994   0.83323   0.27697   0.00000  Uiso   1.00
H126   H     0.88190   0.79442   0.42107   0.00000  Uiso   1.00
H127   H     0.33718   0.37567   0.48433   0.00000  Uiso   1.00
H128   H     0.42532   0.92071   0.14820   0.00000  Uiso   1.00
H129   H     0.58599   0.83886   0.45207   0.00000  Uiso   1.00
O130   O     0.33213   0.17429   0.45112   0.00000  Uiso   1.00
O131   O     0.44774   0.88937   0.01013   0.00000  Uiso   1.00
O132   O     0.34656   0.78198   0.40881   0.00000  Uiso   1.00
N133   N     0.20889   0.24904   0.36638   0.00000  Uiso   1.00
N134   N     0.29131   0.75861   0.05211   0.00000  Uiso   1.00
N135   N     0.50661   0.68211   0.33620   0.00000  Uiso   1.00
N136   N     0.28857   0.35294   0.44332   0.00000  Uiso   1.00
N137   N     0.37099   0.86251   0.12906   0.00000  Uiso   1.00
N138   N     0.58629   0.78601   0.41314   0.00000  Uiso   1.00
C139   C     0.00477   0.05407   0.25518   0.00000  Uiso   1.00
C140   C     0.92643   0.99539   0.20287   0.00000  Uiso   1.00
C141   C     0.90493   0.88819   0.20175   0.00000  Uiso   1.00
C142   C     0.83064   0.84964   0.14969   0.00000  Uiso   1.00
C143   C     0.71669   0.74844   0.07596   0.00000  Uiso   1.00
C144   C     0.90369   0.13583   0.28948   0.00000  Uiso   1.00
C145   C     0.86310   0.14670   0.36119   0.00000  Uiso   1.00
C146   C     0.76968   0.22638   0.38203   0.00000  Uiso   1.00
C147   C     0.62050   0.34325   0.44278   0.00000  Uiso   1.00
C148   C     0.11996   0.11473   0.21118   0.00000  Uiso   1.00
C149   C     0.26120   0.10788   0.21707   0.00000  Uiso   1.00
C150   C     0.34985   0.16982   0.17200   0.00000  Uiso   1.00
C151   C     0.53645   0.25393   0.11117   0.00000  Uiso   1.00
C152   C     0.91107   0.17626   0.16469   0.00000  Uiso   1.00
C153   C     0.87553   0.06177   0.15372   0.00000  Uiso   1.00
C154   C     0.80126   0.02337   0.10164   0.00000  Uiso   1.00
C155   C     0.77966   0.91613   0.10045   0.00000  Uiso   1.00
C156   C     0.85280   0.20219   0.24034   0.00000  Uiso   1.00
C157   C     0.75942   0.28188   0.26108   0.00000  Uiso   1.00
C158   C     0.71869   0.29287   0.33280   0.00000  Uiso   1.00
C159   C     0.06906   0.18110   0.16203   0.00000  Uiso   1.00
C160   C     0.15752   0.24306   0.11695   0.00000  Uiso   1.00
C161   C     0.29886   0.23631   0.12276   0.00000  Uiso   1.00
H162   H     0.04439   0.00240   0.29344   0.00000  Uiso   1.00
H163   H     0.94433   0.83685   0.23980   0.00000  Uiso   1.00
H164   H     0.90251   0.09533   0.39921   0.00000  Uiso   1.00
H165   H     0.30054   0.05651   0.25511   0.00000  Uiso   1.00
H166   H     0.81090   0.68258   0.15867   0.00000  Uiso   1.00
H167   H     0.72276   0.22761   0.49480   0.00000  Uiso   1.00
H168   H     0.56210   0.14577   0.19092   0.00000  Uiso   1.00
H169   H     0.87144   0.22794   0.12643   0.00000  Uiso   1.00
H170   H     0.76188   0.07475   0.06362   0.00000  Uiso   1.00
H171   H     0.72006   0.33323   0.22303   0.00000  Uiso   1.00
H172   H     0.11810   0.29442   0.07893   0.00000  Uiso   1.00
H173   H     0.66282   0.87567   0.01567   0.00000  Uiso   1.00
H174   H     0.57468   0.42071   0.35180   0.00000  Uiso   1.00
H175   H     0.41401   0.33886   0.04793   0.00000  Uiso   1.00
O176   O     0.66787   0.67429   0.04888   0.00000  Uiso   1.00
O177   O     0.55226   0.38937   0.48987   0.00000  Uiso   1.00
O178   O     0.65344   0.28198   0.09119   0.00000  Uiso   1.00
N179   N     0.79111   0.74904   0.13362   0.00000  Uiso   1.00
N180   N     0.70869   0.25861   0.44789   0.00000  Uiso   1.00
N181   N     0.49339   0.18211   0.16380   0.00000  Uiso   1.00
N182   N     0.71143   0.85294   0.05668   0.00000  Uiso   1.00
N183   N     0.62901   0.36251   0.37094   0.00000  Uiso   1.00
N184   N     0.41371   0.28601   0.08686   0.00000  Uiso   1.00
