data_job_05703
_audit_creation_date              2018-12-19
_audit_creation_method            'Materials Studio'
_symmetry_space_group_name_H-M    'P1'
_symmetry_Int_Tables_number       1
_symmetry_cell_setting            triclinic
loop_
_symmetry_equiv_pos_as_xyz
  x,y,z
_cell_length_a                    8.5217
_cell_length_b                    22.9923
_cell_length_c                    23.7167
_cell_angle_alpha                 90.0000
_cell_angle_beta                  119.8913
_cell_angle_gamma                 90.0000
loop_
_atom_site_label
_atom_site_type_symbol
_atom_site_fract_x
_atom_site_fract_y
_atom_site_fract_z
_atom_site_U_iso_or_equiv
_atom_site_adp_type
_atom_site_occupancy
C1     C     0.07794   0.36776   0.72970   0.00000  Uiso   1.00
C2     C     0.01341   0.31477   0.68511   0.00000  Uiso   1.00
C3     C     0.12259   0.27022   0.68460   0.00000  Uiso   1.00
C4     C     0.03764   0.22562   0.64012   0.00000  Uiso   1.00
C5     C     0.96596   0.14336   0.57731   0.00000  Uiso   1.00
C6     C     0.01340   0.42073   0.68509   0.00000  Uiso   1.00
C7     C     0.12257   0.46528   0.68457   0.00000  Uiso   1.00
C8     C     0.03758   0.50987   0.64008   0.00000  Uiso   1.00
C9     C     0.96587   0.59214   0.57727   0.00000  Uiso   1.00
C10    C     0.97057   0.36777   0.76538   0.00000  Uiso   1.00
C11    C     0.04372   0.36781   0.83238   0.00000  Uiso   1.00
C12    C     0.92267   0.36783   0.85549   0.00000  Uiso   1.00
C13    C     0.78446   0.36787   0.91735   0.00000  Uiso   1.00
C14    C     0.73291   0.36775   0.65161   0.00000  Uiso   1.00
C15    C     0.82601   0.31477   0.64269   0.00000  Uiso   1.00
C16    C     0.74086   0.27022   0.59820   0.00000  Uiso   1.00
C17    C     0.84989   0.22561   0.59763   0.00000  Uiso   1.00
C18    C     0.82600   0.42073   0.64267   0.00000  Uiso   1.00
C19    C     0.74083   0.46527   0.59817   0.00000  Uiso   1.00
C20    C     0.84984   0.50987   0.59758   0.00000  Uiso   1.00
C21    C     0.78316   0.36777   0.72297   0.00000  Uiso   1.00
C22    C     0.66198   0.36780   0.74598   0.00000  Uiso   1.00
C23    C     0.73493   0.36783   0.81300   0.00000  Uiso   1.00
H24    H     0.22384   0.36776   0.76272   0.00000  Uiso   1.00
H25    H     0.26763   0.27025   0.71743   0.00000  Uiso   1.00
H26    H     0.26759   0.46527   0.71741   0.00000  Uiso   1.00
H27    H     0.18875   0.36781   0.86519   0.00000  Uiso   1.00
H28    H     0.23352   0.16214   0.64849   0.00000  Uiso   1.00
H29    H     0.23344   0.57337   0.64846   0.00000  Uiso   1.00
H30    H     0.06719   0.36786   0.96009   0.00000  Uiso   1.00
H31    H     0.58700   0.36775   0.61859   0.00000  Uiso   1.00
H32    H     0.59583   0.27023   0.56538   0.00000  Uiso   1.00
H33    H     0.59580   0.46526   0.56536   0.00000  Uiso   1.00
H34    H     0.51696   0.36779   0.71314   0.00000  Uiso   1.00
H35    H     0.68827   0.16213   0.52509   0.00000  Uiso   1.00
H36    H     0.68819   0.57336   0.52505   0.00000  Uiso   1.00
H37    H     0.52194   0.36784   0.83668   0.00000  Uiso   1.00
O38    O     0.97821   0.09799   0.55438   0.00000  Uiso   1.00
O39    O     0.97809   0.63752   0.55434   0.00000  Uiso   1.00
O40    O     0.75999   0.36788   0.96319   0.00000  Uiso   1.00
N41    N     0.10398   0.17551   0.62676   0.00000  Uiso   1.00
N42    N     0.10391   0.55999   0.62672   0.00000  Uiso   1.00
N43    N     0.94848   0.36786   0.91807   0.00000  Uiso   1.00
N44    N     0.81058   0.17551   0.56036   0.00000  Uiso   1.00
N45    N     0.81051   0.55998   0.56031   0.00000  Uiso   1.00
N46    N     0.65509   0.36786   0.85166   0.00000  Uiso   1.00
C47    C     0.57794   0.86776   0.72970   0.00000  Uiso   1.00
C48    C     0.51341   0.81477   0.68511   0.00000  Uiso   1.00
C49    C     0.62259   0.77022   0.68460   0.00000  Uiso   1.00
C50    C     0.53764   0.72562   0.64012   0.00000  Uiso   1.00
C51    C     0.46596   0.64336   0.57731   0.00000  Uiso   1.00
C52    C     0.51340   0.92073   0.68509   0.00000  Uiso   1.00
C53    C     0.62257   0.96528   0.68457   0.00000  Uiso   1.00
C54    C     0.53758   0.00987   0.64008   0.00000  Uiso   1.00
C55    C     0.46587   0.09214   0.57727   0.00000  Uiso   1.00
C56    C     0.47057   0.86777   0.76538   0.00000  Uiso   1.00
C57    C     0.54372   0.86781   0.83238   0.00000  Uiso   1.00
C58    C     0.42267   0.86783   0.85549   0.00000  Uiso   1.00
C59    C     0.28446   0.86787   0.91735   0.00000  Uiso   1.00
C60    C     0.23291   0.86775   0.65161   0.00000  Uiso   1.00
C61    C     0.32601   0.81477   0.64269   0.00000  Uiso   1.00
C62    C     0.24086   0.77022   0.59820   0.00000  Uiso   1.00
C63    C     0.34989   0.72561   0.59763   0.00000  Uiso   1.00
C64    C     0.32600   0.92073   0.64267   0.00000  Uiso   1.00
C65    C     0.24083   0.96527   0.59817   0.00000  Uiso   1.00
C66    C     0.34984   0.00987   0.59758   0.00000  Uiso   1.00
C67    C     0.28316   0.86777   0.72297   0.00000  Uiso   1.00
C68    C     0.16198   0.86780   0.74598   0.00000  Uiso   1.00
C69    C     0.23493   0.86783   0.81300   0.00000  Uiso   1.00
H70    H     0.72384   0.86776   0.76272   0.00000  Uiso   1.00
H71    H     0.76763   0.77025   0.71743   0.00000  Uiso   1.00
H72    H     0.76759   0.96527   0.71741   0.00000  Uiso   1.00
H73    H     0.68875   0.86781   0.86519   0.00000  Uiso   1.00
H74    H     0.73352   0.66214   0.64849   0.00000  Uiso   1.00
H75    H     0.73344   0.07337   0.64846   0.00000  Uiso   1.00
H76    H     0.56719   0.86786   0.96009   0.00000  Uiso   1.00
H77    H     0.08700   0.86775   0.61859   0.00000  Uiso   1.00
H78    H     0.09583   0.77023   0.56538   0.00000  Uiso   1.00
H79    H     0.09580   0.96526   0.56536   0.00000  Uiso   1.00
H80    H     0.01696   0.86779   0.71314   0.00000  Uiso   1.00
H81    H     0.18827   0.66213   0.52509   0.00000  Uiso   1.00
H82    H     0.18819   0.07336   0.52505   0.00000  Uiso   1.00
H83    H     0.02194   0.86784   0.83668   0.00000  Uiso   1.00
O84    O     0.47821   0.59799   0.55438   0.00000  Uiso   1.00
O85    O     0.47809   0.13752   0.55434   0.00000  Uiso   1.00
O86    O     0.25999   0.86788   0.96319   0.00000  Uiso   1.00
N87    N     0.60398   0.67551   0.62676   0.00000  Uiso   1.00
N88    N     0.60391   0.05999   0.62672   0.00000  Uiso   1.00
N89    N     0.44848   0.86786   0.91807   0.00000  Uiso   1.00
N90    N     0.31058   0.67551   0.56036   0.00000  Uiso   1.00
N91    N     0.31051   0.05998   0.56031   0.00000  Uiso   1.00
N92    N     0.15509   0.86786   0.85166   0.00000  Uiso   1.00
C93    C     0.92206   0.36776   0.27030   0.00000  Uiso   1.00
C94    C     0.98659   0.31477   0.31489   0.00000  Uiso   1.00
C95    C     0.87741   0.27022   0.31540   0.00000  Uiso   1.00
C96    C     0.96236   0.22562   0.35988   0.00000  Uiso   1.00
C97    C     0.03404   0.14336   0.42269   0.00000  Uiso   1.00
C98    C     0.98660   0.42073   0.31491   0.00000  Uiso   1.00
C99    C     0.87743   0.46528   0.31543   0.00000  Uiso   1.00
C100   C     0.96242   0.50987   0.35992   0.00000  Uiso   1.00
C101   C     0.03413   0.59214   0.42273   0.00000  Uiso   1.00
C102   C     0.02943   0.36777   0.23462   0.00000  Uiso   1.00
C103   C     0.95628   0.36781   0.16762   0.00000  Uiso   1.00
C104   C     0.07733   0.36783   0.14451   0.00000  Uiso   1.00
C105   C     0.21554   0.36787   0.08265   0.00000  Uiso   1.00
C106   C     0.26709   0.36775   0.34839   0.00000  Uiso   1.00
C107   C     0.17399   0.31477   0.35731   0.00000  Uiso   1.00
C108   C     0.25914   0.27022   0.40180   0.00000  Uiso   1.00
C109   C     0.15011   0.22561   0.40237   0.00000  Uiso   1.00
C110   C     0.17400   0.42073   0.35733   0.00000  Uiso   1.00
C111   C     0.25917   0.46527   0.40183   0.00000  Uiso   1.00
C112   C     0.15016   0.50987   0.40242   0.00000  Uiso   1.00
C113   C     0.21684   0.36777   0.27703   0.00000  Uiso   1.00
C114   C     0.33802   0.36780   0.25402   0.00000  Uiso   1.00
C115   C     0.26507   0.36783   0.18700   0.00000  Uiso   1.00
H116   H     0.77616   0.36776   0.23728   0.00000  Uiso   1.00
H117   H     0.73237   0.27025   0.28257   0.00000  Uiso   1.00
H118   H     0.73241   0.46527   0.28259   0.00000  Uiso   1.00
H119   H     0.81125   0.36781   0.13481   0.00000  Uiso   1.00
H120   H     0.76648   0.16214   0.35151   0.00000  Uiso   1.00
H121   H     0.76656   0.57337   0.35154   0.00000  Uiso   1.00
H122   H     0.93281   0.36786   0.03991   0.00000  Uiso   1.00
H123   H     0.41300   0.36775   0.38141   0.00000  Uiso   1.00
H124   H     0.40417   0.27023   0.43462   0.00000  Uiso   1.00
H125   H     0.40420   0.46526   0.43464   0.00000  Uiso   1.00
H126   H     0.48304   0.36779   0.28686   0.00000  Uiso   1.00
H127   H     0.31173   0.16213   0.47491   0.00000  Uiso   1.00
H128   H     0.31181   0.57336   0.47495   0.00000  Uiso   1.00
H129   H     0.47806   0.36784   0.16332   0.00000  Uiso   1.00
O130   O     0.02179   0.09799   0.44562   0.00000  Uiso   1.00
O131   O     0.02191   0.63752   0.44566   0.00000  Uiso   1.00
O132   O     0.24001   0.36788   0.03681   0.00000  Uiso   1.00
N133   N     0.89602   0.17551   0.37324   0.00000  Uiso   1.00
N134   N     0.89609   0.55999   0.37328   0.00000  Uiso   1.00
N135   N     0.05152   0.36786   0.08193   0.00000  Uiso   1.00
N136   N     0.18942   0.17551   0.43964   0.00000  Uiso   1.00
N137   N     0.18949   0.55998   0.43969   0.00000  Uiso   1.00
N138   N     0.34491   0.36786   0.14834   0.00000  Uiso   1.00
C139   C     0.42206   0.86776   0.27030   0.00000  Uiso   1.00
C140   C     0.48659   0.81477   0.31489   0.00000  Uiso   1.00
C141   C     0.37741   0.77022   0.31540   0.00000  Uiso   1.00
C142   C     0.46236   0.72562   0.35988   0.00000  Uiso   1.00
C143   C     0.53404   0.64336   0.42269   0.00000  Uiso   1.00
C144   C     0.48660   0.92073   0.31491   0.00000  Uiso   1.00
C145   C     0.37743   0.96528   0.31543   0.00000  Uiso   1.00
C146   C     0.46242   0.00987   0.35992   0.00000  Uiso   1.00
C147   C     0.53413   0.09214   0.42273   0.00000  Uiso   1.00
C148   C     0.52943   0.86777   0.23462   0.00000  Uiso   1.00
C149   C     0.45628   0.86781   0.16762   0.00000  Uiso   1.00
C150   C     0.57733   0.86783   0.14451   0.00000  Uiso   1.00
C151   C     0.71554   0.86787   0.08265   0.00000  Uiso   1.00
C152   C     0.76709   0.86775   0.34839   0.00000  Uiso   1.00
C153   C     0.67399   0.81477   0.35731   0.00000  Uiso   1.00
C154   C     0.75914   0.77022   0.40180   0.00000  Uiso   1.00
C155   C     0.65011   0.72561   0.40237   0.00000  Uiso   1.00
C156   C     0.67400   0.92073   0.35733   0.00000  Uiso   1.00
C157   C     0.75917   0.96527   0.40183   0.00000  Uiso   1.00
C158   C     0.65016   0.00987   0.40242   0.00000  Uiso   1.00
C159   C     0.71684   0.86777   0.27703   0.00000  Uiso   1.00
C160   C     0.83802   0.86780   0.25402   0.00000  Uiso   1.00
C161   C     0.76507   0.86783   0.18700   0.00000  Uiso   1.00
H162   H     0.27616   0.86776   0.23728   0.00000  Uiso   1.00
H163   H     0.23237   0.77025   0.28257   0.00000  Uiso   1.00
H164   H     0.23241   0.96527   0.28259   0.00000  Uiso   1.00
H165   H     0.31125   0.86781   0.13481   0.00000  Uiso   1.00
H166   H     0.26648   0.66214   0.35151   0.00000  Uiso   1.00
H167   H     0.26656   0.07337   0.35154   0.00000  Uiso   1.00
H168   H     0.43281   0.86786   0.03991   0.00000  Uiso   1.00
H169   H     0.91300   0.86775   0.38141   0.00000  Uiso   1.00
H170   H     0.90417   0.77023   0.43462   0.00000  Uiso   1.00
H171   H     0.90420   0.96526   0.43464   0.00000  Uiso   1.00
H172   H     0.98304   0.86779   0.28686   0.00000  Uiso   1.00
H173   H     0.81173   0.66213   0.47491   0.00000  Uiso   1.00
H174   H     0.81181   0.07336   0.47495   0.00000  Uiso   1.00
H175   H     0.97806   0.86784   0.16332   0.00000  Uiso   1.00
O176   O     0.52179   0.59799   0.44562   0.00000  Uiso   1.00
O177   O     0.52191   0.13752   0.44566   0.00000  Uiso   1.00
O178   O     0.74001   0.86788   0.03681   0.00000  Uiso   1.00
N179   N     0.39602   0.67551   0.37324   0.00000  Uiso   1.00
N180   N     0.39609   0.05999   0.37328   0.00000  Uiso   1.00
N181   N     0.55152   0.86786   0.08193   0.00000  Uiso   1.00
N182   N     0.68942   0.67551   0.43964   0.00000  Uiso   1.00
N183   N     0.68949   0.05998   0.43969   0.00000  Uiso   1.00
N184   N     0.84491   0.86786   0.14834   0.00000  Uiso   1.00
