data_job_03950
_audit_creation_date              2018-12-19
_audit_creation_method            'Materials Studio'
_symmetry_space_group_name_H-M    'P1'
_symmetry_Int_Tables_number       1
_symmetry_cell_setting            triclinic
loop_
_symmetry_equiv_pos_as_xyz
  x,y,z
_cell_length_a                    27.5203
_cell_length_b                    12.5029
_cell_length_c                    15.4202
_cell_angle_alpha                 90.0000
_cell_angle_beta                  90.0000
_cell_angle_gamma                 90.0000
loop_
_atom_site_label
_atom_site_type_symbol
_atom_site_fract_x
_atom_site_fract_y
_atom_site_fract_z
_atom_site_U_iso_or_equiv
_atom_site_adp_type
_atom_site_occupancy
C1     C     0.63180   0.60961   0.71895   0.00000  Uiso   1.00
C2     C     0.68601   0.59037   0.70558   0.00000  Uiso   1.00
C3     C     0.72174   0.60066   0.76853   0.00000  Uiso   1.00
C4     C     0.76922   0.57952   0.74336   0.00000  Uiso   1.00
C5     C     0.85167   0.55431   0.73553   0.00000  Uiso   1.00
C6     C     0.61716   0.69371   0.65227   0.00000  Uiso   1.00
C7     C     0.59500   0.79089   0.67040   0.00000  Uiso   1.00
C8     C     0.58451   0.85674   0.60035   0.00000  Uiso   1.00
C9     C     0.56004   0.99194   0.50976   0.00000  Uiso   1.00
C10    C     0.60648   0.50648   0.69165   0.00000  Uiso   1.00
C11    C     0.57534   0.44624   0.74288   0.00000  Uiso   1.00
C12    C     0.55585   0.35446   0.70599   0.00000  Uiso   1.00
C13    C     0.51481   0.19896   0.67654   0.00000  Uiso   1.00
C14    C     0.65257   0.55376   0.56232   0.00000  Uiso   1.00
C15    C     0.69729   0.56004   0.62050   0.00000  Uiso   1.00
C16    C     0.74472   0.53887   0.59523   0.00000  Uiso   1.00
C17    C     0.78052   0.54913   0.65813   0.00000  Uiso   1.00
C18    C     0.62844   0.66339   0.56720   0.00000  Uiso   1.00
C19    C     0.61798   0.72910   0.49711   0.00000  Uiso   1.00
C20    C     0.59581   0.82635   0.51513   0.00000  Uiso   1.00
C21    C     0.61776   0.47615   0.60658   0.00000  Uiso   1.00
C22    C     0.59832   0.38445   0.56959   0.00000  Uiso   1.00
C23    C     0.56715   0.32408   0.62076   0.00000  Uiso   1.00
H24    H     0.62302   0.63323   0.78518   0.00000  Uiso   1.00
H25    H     0.71300   0.62415   0.83436   0.00000  Uiso   1.00
H26    H     0.58627   0.81434   0.73624   0.00000  Uiso   1.00
H27    H     0.56662   0.46974   0.80872   0.00000  Uiso   1.00
H28    H     0.81773   0.60074   0.85135   0.00000  Uiso   1.00
H29    H     0.55050   0.00175   0.64447   0.00000  Uiso   1.00
H30    H     0.50906   0.27510   0.79730   0.00000  Uiso   1.00
H31    H     0.66136   0.53015   0.49608   0.00000  Uiso   1.00
H32    H     0.75344   0.51540   0.52939   0.00000  Uiso   1.00
H33    H     0.62671   0.70560   0.43128   0.00000  Uiso   1.00
H34    H     0.60706   0.36100   0.50376   0.00000  Uiso   1.00
H35    H     0.85056   0.51248   0.60383   0.00000  Uiso   1.00
H36    H     0.58333   0.91350   0.39695   0.00000  Uiso   1.00
H37    H     0.54188   0.18685   0.54978   0.00000  Uiso   1.00
O38    O     0.89403   0.54880   0.75472   0.00000  Uiso   1.00
O39    O     0.54343   0.07491   0.48330   0.00000  Uiso   1.00
O40    O     0.48906   0.12156   0.68380   0.00000  Uiso   1.00
N41    N     0.81282   0.58197   0.78853   0.00000  Uiso   1.00
N42    N     0.56298   0.95690   0.59511   0.00000  Uiso   1.00
N43    N     0.52422   0.27756   0.73798   0.00000  Uiso   1.00
N44    N     0.83048   0.53448   0.65534   0.00000  Uiso   1.00
N45    N     0.58065   0.90941   0.46192   0.00000  Uiso   1.00
N46    N     0.54189   0.23007   0.60480   0.00000  Uiso   1.00
C47    C     0.86820   0.39039   0.21895   0.00000  Uiso   1.00
C48    C     0.81399   0.40963   0.20558   0.00000  Uiso   1.00
C49    C     0.77826   0.39934   0.26853   0.00000  Uiso   1.00
C50    C     0.73078   0.42048   0.24336   0.00000  Uiso   1.00
C51    C     0.64833   0.44569   0.23553   0.00000  Uiso   1.00
C52    C     0.88284   0.30629   0.15227   0.00000  Uiso   1.00
C53    C     0.90500   0.20911   0.17040   0.00000  Uiso   1.00
C54    C     0.91549   0.14326   0.10035   0.00000  Uiso   1.00
C55    C     0.93996   0.00806   0.00976   0.00000  Uiso   1.00
C56    C     0.89352   0.49352   0.19165   0.00000  Uiso   1.00
C57    C     0.92466   0.55376   0.24288   0.00000  Uiso   1.00
C58    C     0.94415   0.64554   0.20599   0.00000  Uiso   1.00
C59    C     0.98519   0.80104   0.17654   0.00000  Uiso   1.00
C60    C     0.84743   0.44624   0.06232   0.00000  Uiso   1.00
C61    C     0.80271   0.43996   0.12050   0.00000  Uiso   1.00
C62    C     0.75528   0.46113   0.09523   0.00000  Uiso   1.00
C63    C     0.71948   0.45087   0.15813   0.00000  Uiso   1.00
C64    C     0.87156   0.33661   0.06720   0.00000  Uiso   1.00
C65    C     0.88202   0.27090   0.99711   0.00000  Uiso   1.00
C66    C     0.90419   0.17365   0.01513   0.00000  Uiso   1.00
C67    C     0.88224   0.52385   0.10658   0.00000  Uiso   1.00
C68    C     0.90168   0.61555   0.06959   0.00000  Uiso   1.00
C69    C     0.93285   0.67592   0.12076   0.00000  Uiso   1.00
H70    H     0.87698   0.36677   0.28518   0.00000  Uiso   1.00
H71    H     0.78700   0.37585   0.33436   0.00000  Uiso   1.00
H72    H     0.91373   0.18566   0.23624   0.00000  Uiso   1.00
H73    H     0.93338   0.53026   0.30872   0.00000  Uiso   1.00
H74    H     0.68227   0.39926   0.35135   0.00000  Uiso   1.00
H75    H     0.94950   0.99825   0.14447   0.00000  Uiso   1.00
H76    H     0.99094   0.72490   0.29730   0.00000  Uiso   1.00
H77    H     0.83864   0.46985   0.99608   0.00000  Uiso   1.00
H78    H     0.74656   0.48460   0.02939   0.00000  Uiso   1.00
H79    H     0.87329   0.29440   0.93128   0.00000  Uiso   1.00
H80    H     0.89294   0.63900   0.00376   0.00000  Uiso   1.00
H81    H     0.64944   0.48752   0.10383   0.00000  Uiso   1.00
H82    H     0.91667   0.08650   0.89695   0.00000  Uiso   1.00
H83    H     0.95812   0.81315   0.04978   0.00000  Uiso   1.00
O84    O     0.60597   0.45120   0.25472   0.00000  Uiso   1.00
O85    O     0.95657   0.92509   0.98330   0.00000  Uiso   1.00
O86    O     0.01094   0.87844   0.18380   0.00000  Uiso   1.00
N87    N     0.68718   0.41803   0.28853   0.00000  Uiso   1.00
N88    N     0.93702   0.04310   0.09511   0.00000  Uiso   1.00
N89    N     0.97578   0.72244   0.23798   0.00000  Uiso   1.00
N90    N     0.66952   0.46552   0.15534   0.00000  Uiso   1.00
N91    N     0.91935   0.09059   0.96192   0.00000  Uiso   1.00
N92    N     0.95811   0.76993   0.10480   0.00000  Uiso   1.00
C93    C     0.36820   0.10961   0.78105   0.00000  Uiso   1.00
C94    C     0.31399   0.09037   0.79442   0.00000  Uiso   1.00
C95    C     0.27826   0.10066   0.73147   0.00000  Uiso   1.00
C96    C     0.23078   0.07952   0.75664   0.00000  Uiso   1.00
C97    C     0.14833   0.05431   0.76447   0.00000  Uiso   1.00
C98    C     0.38284   0.19371   0.84773   0.00000  Uiso   1.00
C99    C     0.40500   0.29089   0.82960   0.00000  Uiso   1.00
C100   C     0.41549   0.35674   0.89965   0.00000  Uiso   1.00
C101   C     0.43996   0.49194   0.99024   0.00000  Uiso   1.00
C102   C     0.39352   0.00648   0.80835   0.00000  Uiso   1.00
C103   C     0.42466   0.94624   0.75712   0.00000  Uiso   1.00
C104   C     0.44415   0.85446   0.79401   0.00000  Uiso   1.00
C105   C     0.48519   0.69896   0.82346   0.00000  Uiso   1.00
C106   C     0.34743   0.05376   0.93768   0.00000  Uiso   1.00
C107   C     0.30271   0.06004   0.87950   0.00000  Uiso   1.00
C108   C     0.25528   0.03887   0.90477   0.00000  Uiso   1.00
C109   C     0.21948   0.04913   0.84187   0.00000  Uiso   1.00
C110   C     0.37156   0.16339   0.93280   0.00000  Uiso   1.00
C111   C     0.38202   0.22910   0.00289   0.00000  Uiso   1.00
C112   C     0.40419   0.32635   0.98487   0.00000  Uiso   1.00
C113   C     0.38224   0.97615   0.89342   0.00000  Uiso   1.00
C114   C     0.40168   0.88445   0.93041   0.00000  Uiso   1.00
C115   C     0.43285   0.82408   0.87924   0.00000  Uiso   1.00
H116   H     0.37698   0.13323   0.71482   0.00000  Uiso   1.00
H117   H     0.28700   0.12415   0.66564   0.00000  Uiso   1.00
H118   H     0.41373   0.31434   0.76376   0.00000  Uiso   1.00
H119   H     0.43338   0.96974   0.69128   0.00000  Uiso   1.00
H120   H     0.18227   0.10074   0.64865   0.00000  Uiso   1.00
H121   H     0.44950   0.50175   0.85553   0.00000  Uiso   1.00
H122   H     0.49094   0.77510   0.70270   0.00000  Uiso   1.00
H123   H     0.33864   0.03015   0.00392   0.00000  Uiso   1.00
H124   H     0.24656   0.01540   0.97061   0.00000  Uiso   1.00
H125   H     0.37329   0.20560   0.06872   0.00000  Uiso   1.00
H126   H     0.39294   0.86100   0.99624   0.00000  Uiso   1.00
H127   H     0.14944   0.01248   0.89617   0.00000  Uiso   1.00
H128   H     0.41667   0.41350   0.10305   0.00000  Uiso   1.00
H129   H     0.45812   0.68685   0.95022   0.00000  Uiso   1.00
O130   O     0.10597   0.04880   0.74528   0.00000  Uiso   1.00
O131   O     0.45657   0.57491   0.01670   0.00000  Uiso   1.00
O132   O     0.51094   0.62156   0.81620   0.00000  Uiso   1.00
N133   N     0.18718   0.08197   0.71147   0.00000  Uiso   1.00
N134   N     0.43702   0.45690   0.90489   0.00000  Uiso   1.00
N135   N     0.47578   0.77756   0.76202   0.00000  Uiso   1.00
N136   N     0.16952   0.03448   0.84466   0.00000  Uiso   1.00
N137   N     0.41935   0.40941   0.03808   0.00000  Uiso   1.00
N138   N     0.45811   0.73007   0.89520   0.00000  Uiso   1.00
C139   C     0.13180   0.89039   0.28105   0.00000  Uiso   1.00
C140   C     0.18601   0.90963   0.29442   0.00000  Uiso   1.00
C141   C     0.22174   0.89934   0.23147   0.00000  Uiso   1.00
C142   C     0.26922   0.92048   0.25664   0.00000  Uiso   1.00
C143   C     0.35167   0.94569   0.26447   0.00000  Uiso   1.00
C144   C     0.11716   0.80629   0.34773   0.00000  Uiso   1.00
C145   C     0.09500   0.70911   0.32960   0.00000  Uiso   1.00
C146   C     0.08451   0.64326   0.39965   0.00000  Uiso   1.00
C147   C     0.06004   0.50806   0.49024   0.00000  Uiso   1.00
C148   C     0.10648   0.99352   0.30835   0.00000  Uiso   1.00
C149   C     0.07534   0.05376   0.25712   0.00000  Uiso   1.00
C150   C     0.05585   0.14554   0.29401   0.00000  Uiso   1.00
C151   C     0.01481   0.30104   0.32346   0.00000  Uiso   1.00
C152   C     0.15257   0.94624   0.43768   0.00000  Uiso   1.00
C153   C     0.19729   0.93996   0.37950   0.00000  Uiso   1.00
C154   C     0.24472   0.96113   0.40477   0.00000  Uiso   1.00
C155   C     0.28052   0.95087   0.34187   0.00000  Uiso   1.00
C156   C     0.12844   0.83661   0.43280   0.00000  Uiso   1.00
C157   C     0.11798   0.77090   0.50289   0.00000  Uiso   1.00
C158   C     0.09581   0.67365   0.48487   0.00000  Uiso   1.00
C159   C     0.11776   0.02385   0.39342   0.00000  Uiso   1.00
C160   C     0.09832   0.11555   0.43041   0.00000  Uiso   1.00
C161   C     0.06715   0.17592   0.37924   0.00000  Uiso   1.00
H162   H     0.12302   0.86677   0.21482   0.00000  Uiso   1.00
H163   H     0.21300   0.87585   0.16564   0.00000  Uiso   1.00
H164   H     0.08627   0.68566   0.26376   0.00000  Uiso   1.00
H165   H     0.06662   0.03026   0.19128   0.00000  Uiso   1.00
H166   H     0.31773   0.89926   0.14865   0.00000  Uiso   1.00
H167   H     0.05050   0.49825   0.35553   0.00000  Uiso   1.00
H168   H     0.00906   0.22490   0.20270   0.00000  Uiso   1.00
H169   H     0.16136   0.96985   0.50392   0.00000  Uiso   1.00
H170   H     0.25344   0.98460   0.47061   0.00000  Uiso   1.00
H171   H     0.12671   0.79440   0.56872   0.00000  Uiso   1.00
H172   H     0.10706   0.13900   0.49624   0.00000  Uiso   1.00
H173   H     0.35056   0.98752   0.39617   0.00000  Uiso   1.00
H174   H     0.08333   0.58650   0.60305   0.00000  Uiso   1.00
H175   H     0.04188   0.31315   0.45022   0.00000  Uiso   1.00
O176   O     0.39403   0.95120   0.24528   0.00000  Uiso   1.00
O177   O     0.04343   0.42509   0.51670   0.00000  Uiso   1.00
O178   O     0.98906   0.37844   0.31620   0.00000  Uiso   1.00
N179   N     0.31282   0.91803   0.21147   0.00000  Uiso   1.00
N180   N     0.06298   0.54310   0.40489   0.00000  Uiso   1.00
N181   N     0.02422   0.22244   0.26202   0.00000  Uiso   1.00
N182   N     0.33048   0.96552   0.34466   0.00000  Uiso   1.00
N183   N     0.08065   0.59059   0.53808   0.00000  Uiso   1.00
N184   N     0.04189   0.26993   0.39520   0.00000  Uiso   1.00
C185   C     0.36820   0.39039   0.28105   0.00000  Uiso   1.00
C186   C     0.31399   0.40963   0.29442   0.00000  Uiso   1.00
C187   C     0.27826   0.39934   0.23147   0.00000  Uiso   1.00
C188   C     0.23078   0.42048   0.25664   0.00000  Uiso   1.00
C189   C     0.14833   0.44569   0.26447   0.00000  Uiso   1.00
C190   C     0.38284   0.30629   0.34773   0.00000  Uiso   1.00
C191   C     0.40500   0.20911   0.32960   0.00000  Uiso   1.00
C192   C     0.41549   0.14326   0.39965   0.00000  Uiso   1.00
C193   C     0.43996   0.00806   0.49024   0.00000  Uiso   1.00
C194   C     0.39352   0.49352   0.30835   0.00000  Uiso   1.00
C195   C     0.42466   0.55376   0.25712   0.00000  Uiso   1.00
C196   C     0.44415   0.64554   0.29401   0.00000  Uiso   1.00
C197   C     0.48519   0.80104   0.32346   0.00000  Uiso   1.00
C198   C     0.34743   0.44624   0.43768   0.00000  Uiso   1.00
C199   C     0.30271   0.43996   0.37950   0.00000  Uiso   1.00
C200   C     0.25528   0.46113   0.40477   0.00000  Uiso   1.00
C201   C     0.21948   0.45087   0.34187   0.00000  Uiso   1.00
C202   C     0.37156   0.33661   0.43280   0.00000  Uiso   1.00
C203   C     0.38202   0.27090   0.50289   0.00000  Uiso   1.00
C204   C     0.40419   0.17365   0.48487   0.00000  Uiso   1.00
C205   C     0.38224   0.52385   0.39342   0.00000  Uiso   1.00
C206   C     0.40168   0.61555   0.43041   0.00000  Uiso   1.00
C207   C     0.43285   0.67592   0.37924   0.00000  Uiso   1.00
H208   H     0.37698   0.36677   0.21482   0.00000  Uiso   1.00
H209   H     0.28700   0.37585   0.16564   0.00000  Uiso   1.00
H210   H     0.41373   0.18566   0.26376   0.00000  Uiso   1.00
H211   H     0.43338   0.53026   0.19128   0.00000  Uiso   1.00
H212   H     0.18227   0.39926   0.14865   0.00000  Uiso   1.00
H213   H     0.44950   0.99825   0.35553   0.00000  Uiso   1.00
H214   H     0.49094   0.72490   0.20270   0.00000  Uiso   1.00
H215   H     0.33864   0.46985   0.50392   0.00000  Uiso   1.00
H216   H     0.24656   0.48460   0.47061   0.00000  Uiso   1.00
H217   H     0.37329   0.29440   0.56872   0.00000  Uiso   1.00
H218   H     0.39294   0.63900   0.49624   0.00000  Uiso   1.00
H219   H     0.14944   0.48752   0.39617   0.00000  Uiso   1.00
H220   H     0.41667   0.08650   0.60305   0.00000  Uiso   1.00
H221   H     0.45812   0.81315   0.45022   0.00000  Uiso   1.00
O222   O     0.10597   0.45120   0.24528   0.00000  Uiso   1.00
O223   O     0.45657   0.92509   0.51670   0.00000  Uiso   1.00
O224   O     0.51094   0.87844   0.31620   0.00000  Uiso   1.00
N225   N     0.18718   0.41803   0.21147   0.00000  Uiso   1.00
N226   N     0.43702   0.04310   0.40489   0.00000  Uiso   1.00
N227   N     0.47578   0.72244   0.26202   0.00000  Uiso   1.00
N228   N     0.16952   0.46552   0.34466   0.00000  Uiso   1.00
N229   N     0.41935   0.09059   0.53808   0.00000  Uiso   1.00
N230   N     0.45811   0.76993   0.39520   0.00000  Uiso   1.00
C231   C     0.13180   0.60961   0.78105   0.00000  Uiso   1.00
C232   C     0.18601   0.59037   0.79442   0.00000  Uiso   1.00
C233   C     0.22174   0.60066   0.73147   0.00000  Uiso   1.00
C234   C     0.26922   0.57952   0.75664   0.00000  Uiso   1.00
C235   C     0.35167   0.55431   0.76447   0.00000  Uiso   1.00
C236   C     0.11716   0.69371   0.84773   0.00000  Uiso   1.00
C237   C     0.09500   0.79089   0.82960   0.00000  Uiso   1.00
C238   C     0.08451   0.85674   0.89965   0.00000  Uiso   1.00
C239   C     0.06004   0.99194   0.99024   0.00000  Uiso   1.00
C240   C     0.10648   0.50648   0.80835   0.00000  Uiso   1.00
C241   C     0.07534   0.44624   0.75712   0.00000  Uiso   1.00
C242   C     0.05585   0.35446   0.79401   0.00000  Uiso   1.00
C243   C     0.01481   0.19896   0.82346   0.00000  Uiso   1.00
C244   C     0.15257   0.55376   0.93768   0.00000  Uiso   1.00
C245   C     0.19729   0.56004   0.87950   0.00000  Uiso   1.00
C246   C     0.24472   0.53887   0.90477   0.00000  Uiso   1.00
C247   C     0.28052   0.54913   0.84187   0.00000  Uiso   1.00
C248   C     0.12844   0.66339   0.93280   0.00000  Uiso   1.00
C249   C     0.11798   0.72910   0.00289   0.00000  Uiso   1.00
C250   C     0.09581   0.82635   0.98487   0.00000  Uiso   1.00
C251   C     0.11776   0.47615   0.89342   0.00000  Uiso   1.00
C252   C     0.09832   0.38445   0.93041   0.00000  Uiso   1.00
C253   C     0.06715   0.32408   0.87924   0.00000  Uiso   1.00
H254   H     0.12302   0.63323   0.71482   0.00000  Uiso   1.00
H255   H     0.21300   0.62415   0.66564   0.00000  Uiso   1.00
H256   H     0.08627   0.81434   0.76376   0.00000  Uiso   1.00
H257   H     0.06662   0.46974   0.69128   0.00000  Uiso   1.00
H258   H     0.31773   0.60074   0.64865   0.00000  Uiso   1.00
H259   H     0.05050   0.00175   0.85553   0.00000  Uiso   1.00
H260   H     0.00906   0.27510   0.70270   0.00000  Uiso   1.00
H261   H     0.16136   0.53015   0.00392   0.00000  Uiso   1.00
H262   H     0.25344   0.51540   0.97061   0.00000  Uiso   1.00
H263   H     0.12671   0.70560   0.06872   0.00000  Uiso   1.00
H264   H     0.10706   0.36100   0.99624   0.00000  Uiso   1.00
H265   H     0.35056   0.51248   0.89617   0.00000  Uiso   1.00
H266   H     0.08333   0.91350   0.10305   0.00000  Uiso   1.00
H267   H     0.04188   0.18685   0.95022   0.00000  Uiso   1.00
O268   O     0.39403   0.54880   0.74528   0.00000  Uiso   1.00
O269   O     0.04343   0.07491   0.01670   0.00000  Uiso   1.00
O270   O     0.98906   0.12156   0.81620   0.00000  Uiso   1.00
N271   N     0.31282   0.58197   0.71147   0.00000  Uiso   1.00
N272   N     0.06298   0.95690   0.90489   0.00000  Uiso   1.00
N273   N     0.02422   0.27756   0.76202   0.00000  Uiso   1.00
N274   N     0.33048   0.53448   0.84466   0.00000  Uiso   1.00
N275   N     0.08065   0.90941   0.03808   0.00000  Uiso   1.00
N276   N     0.04189   0.23007   0.89520   0.00000  Uiso   1.00
C277   C     0.63180   0.89039   0.21895   0.00000  Uiso   1.00
C278   C     0.68601   0.90963   0.20558   0.00000  Uiso   1.00
C279   C     0.72174   0.89934   0.26853   0.00000  Uiso   1.00
C280   C     0.76922   0.92048   0.24336   0.00000  Uiso   1.00
C281   C     0.85167   0.94569   0.23553   0.00000  Uiso   1.00
C282   C     0.61716   0.80629   0.15227   0.00000  Uiso   1.00
C283   C     0.59500   0.70911   0.17040   0.00000  Uiso   1.00
C284   C     0.58451   0.64326   0.10035   0.00000  Uiso   1.00
C285   C     0.56004   0.50806   0.00976   0.00000  Uiso   1.00
C286   C     0.60648   0.99352   0.19165   0.00000  Uiso   1.00
C287   C     0.57534   0.05376   0.24288   0.00000  Uiso   1.00
C288   C     0.55585   0.14554   0.20599   0.00000  Uiso   1.00
C289   C     0.51481   0.30104   0.17654   0.00000  Uiso   1.00
C290   C     0.65257   0.94624   0.06232   0.00000  Uiso   1.00
C291   C     0.69729   0.93996   0.12050   0.00000  Uiso   1.00
C292   C     0.74472   0.96113   0.09523   0.00000  Uiso   1.00
C293   C     0.78052   0.95087   0.15813   0.00000  Uiso   1.00
C294   C     0.62844   0.83661   0.06720   0.00000  Uiso   1.00
C295   C     0.61798   0.77090   0.99711   0.00000  Uiso   1.00
C296   C     0.59581   0.67365   0.01513   0.00000  Uiso   1.00
C297   C     0.61776   0.02385   0.10658   0.00000  Uiso   1.00
C298   C     0.59832   0.11555   0.06959   0.00000  Uiso   1.00
C299   C     0.56715   0.17592   0.12076   0.00000  Uiso   1.00
H300   H     0.62302   0.86677   0.28518   0.00000  Uiso   1.00
H301   H     0.71300   0.87585   0.33436   0.00000  Uiso   1.00
H302   H     0.58627   0.68566   0.23624   0.00000  Uiso   1.00
H303   H     0.56662   0.03026   0.30872   0.00000  Uiso   1.00
H304   H     0.81773   0.89926   0.35135   0.00000  Uiso   1.00
H305   H     0.55050   0.49825   0.14447   0.00000  Uiso   1.00
H306   H     0.50906   0.22490   0.29730   0.00000  Uiso   1.00
H307   H     0.66136   0.96985   0.99608   0.00000  Uiso   1.00
H308   H     0.75344   0.98460   0.02939   0.00000  Uiso   1.00
H309   H     0.62671   0.79440   0.93128   0.00000  Uiso   1.00
H310   H     0.60706   0.13900   0.00376   0.00000  Uiso   1.00
H311   H     0.85056   0.98752   0.10383   0.00000  Uiso   1.00
H312   H     0.58333   0.58650   0.89695   0.00000  Uiso   1.00
H313   H     0.54188   0.31315   0.04978   0.00000  Uiso   1.00
O314   O     0.89403   0.95120   0.25472   0.00000  Uiso   1.00
O315   O     0.54343   0.42509   0.98330   0.00000  Uiso   1.00
O316   O     0.48906   0.37844   0.18380   0.00000  Uiso   1.00
N317   N     0.81282   0.91803   0.28853   0.00000  Uiso   1.00
N318   N     0.56298   0.54310   0.09511   0.00000  Uiso   1.00
N319   N     0.52422   0.22244   0.23798   0.00000  Uiso   1.00
N320   N     0.83048   0.96552   0.15534   0.00000  Uiso   1.00
N321   N     0.58065   0.59059   0.96192   0.00000  Uiso   1.00
N322   N     0.54189   0.26993   0.10480   0.00000  Uiso   1.00
C323   C     0.86820   0.10961   0.71895   0.00000  Uiso   1.00
C324   C     0.81399   0.09037   0.70558   0.00000  Uiso   1.00
C325   C     0.77826   0.10066   0.76853   0.00000  Uiso   1.00
C326   C     0.73078   0.07952   0.74336   0.00000  Uiso   1.00
C327   C     0.64833   0.05431   0.73553   0.00000  Uiso   1.00
C328   C     0.88284   0.19371   0.65227   0.00000  Uiso   1.00
C329   C     0.90500   0.29089   0.67040   0.00000  Uiso   1.00
C330   C     0.91549   0.35674   0.60035   0.00000  Uiso   1.00
C331   C     0.93996   0.49194   0.50976   0.00000  Uiso   1.00
C332   C     0.89352   0.00648   0.69165   0.00000  Uiso   1.00
C333   C     0.92466   0.94624   0.74288   0.00000  Uiso   1.00
C334   C     0.94415   0.85446   0.70599   0.00000  Uiso   1.00
C335   C     0.98519   0.69896   0.67654   0.00000  Uiso   1.00
C336   C     0.84743   0.05376   0.56232   0.00000  Uiso   1.00
C337   C     0.80271   0.06004   0.62050   0.00000  Uiso   1.00
C338   C     0.75528   0.03887   0.59523   0.00000  Uiso   1.00
C339   C     0.71948   0.04913   0.65813   0.00000  Uiso   1.00
C340   C     0.87156   0.16339   0.56720   0.00000  Uiso   1.00
C341   C     0.88202   0.22910   0.49711   0.00000  Uiso   1.00
C342   C     0.90419   0.32635   0.51513   0.00000  Uiso   1.00
C343   C     0.88224   0.97615   0.60658   0.00000  Uiso   1.00
C344   C     0.90168   0.88445   0.56959   0.00000  Uiso   1.00
C345   C     0.93285   0.82408   0.62076   0.00000  Uiso   1.00
H346   H     0.87698   0.13323   0.78518   0.00000  Uiso   1.00
H347   H     0.78700   0.12415   0.83436   0.00000  Uiso   1.00
H348   H     0.91373   0.31434   0.73624   0.00000  Uiso   1.00
H349   H     0.93338   0.96974   0.80872   0.00000  Uiso   1.00
H350   H     0.68227   0.10074   0.85135   0.00000  Uiso   1.00
H351   H     0.94950   0.50175   0.64447   0.00000  Uiso   1.00
H352   H     0.99094   0.77510   0.79730   0.00000  Uiso   1.00
H353   H     0.83864   0.03015   0.49608   0.00000  Uiso   1.00
H354   H     0.74656   0.01540   0.52939   0.00000  Uiso   1.00
H355   H     0.87329   0.20560   0.43128   0.00000  Uiso   1.00
H356   H     0.89294   0.86100   0.50376   0.00000  Uiso   1.00
H357   H     0.64944   0.01248   0.60383   0.00000  Uiso   1.00
H358   H     0.91667   0.41350   0.39695   0.00000  Uiso   1.00
H359   H     0.95812   0.68685   0.54978   0.00000  Uiso   1.00
O360   O     0.60597   0.04880   0.75472   0.00000  Uiso   1.00
O361   O     0.95657   0.57491   0.48330   0.00000  Uiso   1.00
O362   O     0.01094   0.62156   0.68380   0.00000  Uiso   1.00
N363   N     0.68718   0.08197   0.78853   0.00000  Uiso   1.00
N364   N     0.93702   0.45690   0.59511   0.00000  Uiso   1.00
N365   N     0.97578   0.77756   0.73798   0.00000  Uiso   1.00
N366   N     0.66952   0.03448   0.65534   0.00000  Uiso   1.00
N367   N     0.91935   0.40941   0.46192   0.00000  Uiso   1.00
N368   N     0.95811   0.73007   0.60480   0.00000  Uiso   1.00
