data_job_06179
_audit_creation_date              2018-12-19
_audit_creation_method            'Materials Studio'
_symmetry_space_group_name_H-M    'P1'
_symmetry_Int_Tables_number       1
_symmetry_cell_setting            triclinic
loop_
_symmetry_equiv_pos_as_xyz
  x,y,z
_cell_length_a                    16.6214
_cell_length_b                    16.2055
_cell_length_c                    15.3684
_cell_angle_alpha                 103.3460
_cell_angle_beta                  103.3300
_cell_angle_gamma                 101.9270
loop_
_atom_site_label
_atom_site_type_symbol
_atom_site_fract_x
_atom_site_fract_y
_atom_site_fract_z
_atom_site_U_iso_or_equiv
_atom_site_adp_type
_atom_site_occupancy
C1     C     0.16809   0.69135   0.46302   0.00000  Uiso   1.00
C2     C     0.08648   0.68311   0.49354   0.00000  Uiso   1.00
C3     C     0.01769   0.60805   0.46469   0.00000  Uiso   1.00
C4     C     0.94900   0.61389   0.50058   0.00000  Uiso   1.00
C5     C     0.82223   0.58922   0.53842   0.00000  Uiso   1.00
C6     C     0.17540   0.76861   0.42170   0.00000  Uiso   1.00
C7     C     0.18139   0.76544   0.33246   0.00000  Uiso   1.00
C8     C     0.18757   0.84326   0.30789   0.00000  Uiso   1.00
C9     C     0.19891   0.95136   0.23423   0.00000  Uiso   1.00
C10    C     0.24263   0.72091   0.55266   0.00000  Uiso   1.00
C11    C     0.30516   0.67764   0.57352   0.00000  Uiso   1.00
C12    C     0.36796   0.71532   0.65920   0.00000  Uiso   1.00
C13    C     0.48369   0.74934   0.78887   0.00000  Uiso   1.00
C14    C     0.16844   0.83520   0.57807   0.00000  Uiso   1.00
C15    C     0.08667   0.76124   0.55603   0.00000  Uiso   1.00
C16    C     0.01807   0.76720   0.59198   0.00000  Uiso   1.00
C17    C     0.94919   0.69216   0.56319   0.00000  Uiso   1.00
C18    C     0.17559   0.84674   0.48419   0.00000  Uiso   1.00
C19    C     0.18177   0.92459   0.45975   0.00000  Uiso   1.00
C20    C     0.18776   0.92154   0.37050   0.00000  Uiso   1.00
C21    C     0.24282   0.79904   0.61515   0.00000  Uiso   1.00
C22    C     0.30554   0.83679   0.70081   0.00000  Uiso   1.00
C23    C     0.36815   0.79359   0.72180   0.00000  Uiso   1.00
H24    H     0.16795   0.63053   0.41436   0.00000  Uiso   1.00
H25    H     0.01757   0.54760   0.41631   0.00000  Uiso   1.00
H26    H     0.18125   0.70497   0.28412   0.00000  Uiso   1.00
H27    H     0.30500   0.61718   0.52514   0.00000  Uiso   1.00
H28    H     0.85091   0.49012   0.44601   0.00000  Uiso   1.00
H29    H     0.19607   0.82196   0.16727   0.00000  Uiso   1.00
H30    H     0.45703   0.63684   0.67552   0.00000  Uiso   1.00
H31    H     0.16858   0.89603   0.62673   0.00000  Uiso   1.00
H32    H     0.01823   0.82767   0.64034   0.00000  Uiso   1.00
H33    H     0.18192   0.98504   0.50813   0.00000  Uiso   1.00
H34    H     0.30566   0.89726   0.74916   0.00000  Uiso   1.00
H35    H     0.85145   0.71744   0.62784   0.00000  Uiso   1.00
H36    H     0.19662   0.04928   0.34909   0.00000  Uiso   1.00
H37    H     0.45757   0.86416   0.85734   0.00000  Uiso   1.00
O38    O     0.75225   0.55403   0.54202   0.00000  Uiso   1.00
O39    O     0.20511   0.98939   0.17633   0.00000  Uiso   1.00
O40    O     0.54747   0.74652   0.84314   0.00000  Uiso   1.00
N41    N     0.87167   0.55300   0.48695   0.00000  Uiso   1.00
N42    N     0.19437   0.86324   0.22634   0.00000  Uiso   1.00
N43    N     0.43835   0.69019   0.70150   0.00000  Uiso   1.00
N44    N     0.87197   0.67532   0.58479   0.00000  Uiso   1.00
N45    N     0.19466   0.98556   0.32418   0.00000  Uiso   1.00
N46    N     0.43864   0.81251   0.79933   0.00000  Uiso   1.00
C47    C     0.47923   0.16740   0.68689   0.00000  Uiso   1.00
C48    C     0.50819   0.08322   0.67716   0.00000  Uiso   1.00
C49    C     0.48222   0.01208   0.59702   0.00000  Uiso   1.00
C50    C     0.51602   0.94128   0.60233   0.00000  Uiso   1.00
C51    C     0.55218   0.81049   0.57468   0.00000  Uiso   1.00
C52    C     0.44116   0.17629   0.76875   0.00000  Uiso   1.00
C53    C     0.35882   0.18342   0.76562   0.00000  Uiso   1.00
C54    C     0.33620   0.19097   0.84803   0.00000  Uiso   1.00
C55    C     0.26830   0.20473   0.96260   0.00000  Uiso   1.00
C56    C     0.56114   0.24319   0.71888   0.00000  Uiso   1.00
C57    C     0.57968   0.30659   0.67382   0.00000  Uiso   1.00
C58    C     0.65807   0.37048   0.71426   0.00000  Uiso   1.00
C59    C     0.77647   0.48813   0.75139   0.00000  Uiso   1.00
C60    C     0.58546   0.16814   0.83883   0.00000  Uiso   1.00
C61    C     0.56589   0.08362   0.75970   0.00000  Uiso   1.00
C62    C     0.59975   0.01290   0.76513   0.00000  Uiso   1.00
C63    C     0.57382   0.94168   0.68500   0.00000  Uiso   1.00
C64    C     0.49885   0.17669   0.85128   0.00000  Uiso   1.00
C65    C     0.47635   0.18424   0.93373   0.00000  Uiso   1.00
C66    C     0.39400   0.19137   0.93071   0.00000  Uiso   1.00
C67    C     0.61884   0.24359   0.80141   0.00000  Uiso   1.00
C68    C     0.69721   0.30741   0.84193   0.00000  Uiso   1.00
C69    C     0.71587   0.37089   0.79694   0.00000  Uiso   1.00
H70    H     0.43431   0.16708   0.62264   0.00000  Uiso   1.00
H71    H     0.43756   0.01179   0.53316   0.00000  Uiso   1.00
H72    H     0.31419   0.18311   0.70174   0.00000  Uiso   1.00
H73    H     0.53502   0.30626   0.60996   0.00000  Uiso   1.00
H74    H     0.46658   0.83979   0.47037   0.00000  Uiso   1.00
H75    H     0.20645   0.20105   0.82583   0.00000  Uiso   1.00
H76    H     0.67211   0.46074   0.63229   0.00000  Uiso   1.00
H77    H     0.63038   0.16845   0.90309   0.00000  Uiso   1.00
H78    H     0.64439   0.01324   0.82900   0.00000  Uiso   1.00
H79    H     0.52102   0.18455   0.99758   0.00000  Uiso   1.00
H80    H     0.74185   0.30770   0.90580   0.00000  Uiso   1.00
H81    H     0.63445   0.84096   0.71049   0.00000  Uiso   1.00
H82    H     0.37432   0.20222   0.06595   0.00000  Uiso   1.00
H83    H     0.83999   0.46190   0.87241   0.00000  Uiso   1.00
O84    O     0.55617   0.73823   0.53664   0.00000  Uiso   1.00
O85    O     0.21490   0.21221   0.00299   0.00000  Uiso   1.00
O86    O     0.82584   0.55290   0.74907   0.00000  Uiso   1.00
N87    N     0.50418   0.86138   0.53704   0.00000  Uiso   1.00
N88    N     0.26097   0.19912   0.86937   0.00000  Uiso   1.00
N89    N     0.69631   0.44191   0.68845   0.00000  Uiso   1.00
N90    N     0.59451   0.86200   0.66625   0.00000  Uiso   1.00
N91    N     0.35130   0.19974   0.99858   0.00000  Uiso   1.00
N92    N     0.78665   0.44254   0.81765   0.00000  Uiso   1.00
C93    C     0.69431   0.47439   0.16044   0.00000  Uiso   1.00
C94    C     0.68495   0.50321   0.07177   0.00000  Uiso   1.00
C95    C     0.61125   0.47664   0.99637   0.00000  Uiso   1.00
C96    C     0.61572   0.51041   0.92187   0.00000  Uiso   1.00
C97    C     0.58972   0.54627   0.78402   0.00000  Uiso   1.00
C98    C     0.77018   0.43449   0.16926   0.00000  Uiso   1.00
C99    C     0.76814   0.35014   0.17584   0.00000  Uiso   1.00
C100   C     0.84436   0.32607   0.18342   0.00000  Uiso   1.00
C101   C     0.95069   0.25526   0.19699   0.00000  Uiso   1.00
C102   C     0.72305   0.55895   0.24151   0.00000  Uiso   1.00
C103   C     0.68139   0.57925   0.30886   0.00000  Uiso   1.00
C104   C     0.71795   0.65996   0.37728   0.00000  Uiso   1.00
C105   C     0.75110   0.78240   0.50304   0.00000  Uiso   1.00
C106   C     0.83330   0.58164   0.16223   0.00000  Uiso   1.00
C107   C     0.76045   0.56146   0.07275   0.00000  Uiso   1.00
C108   C     0.76503   0.59529   0.99834   0.00000  Uiso   1.00
C109   C     0.69135   0.56877   0.92284   0.00000  Uiso   1.00
C110   C     0.84567   0.49274   0.17023   0.00000  Uiso   1.00
C111   C     0.92191   0.46880   0.17781   0.00000  Uiso   1.00
C112   C     0.91999   0.38443   0.18439   0.00000  Uiso   1.00
C113   C     0.79854   0.61721   0.24248   0.00000  Uiso   1.00
C114   C     0.83517   0.69790   0.31082   0.00000  Uiso   1.00
C115   C     0.79358   0.71832   0.37825   0.00000  Uiso   1.00
H116   H     0.63554   0.42903   0.15969   0.00000  Uiso   1.00
H117   H     0.55284   0.43155   0.99564   0.00000  Uiso   1.00
H118   H     0.70971   0.30508   0.17509   0.00000  Uiso   1.00
H119   H     0.62298   0.53415   0.30808   0.00000  Uiso   1.00
H120   H     0.49446   0.46000   0.81418   0.00000  Uiso   1.00
H121   H     0.82523   0.19334   0.19259   0.00000  Uiso   1.00
H122   H     0.64234   0.67638   0.47303   0.00000  Uiso   1.00
H123   H     0.89208   0.62699   0.16298   0.00000  Uiso   1.00
H124   H     0.82346   0.64037   0.99911   0.00000  Uiso   1.00
H125   H     0.98032   0.51389   0.17857   0.00000  Uiso   1.00
H126   H     0.89359   0.74297   0.31155   0.00000  Uiso   1.00
H127   H     0.71410   0.62948   0.81699   0.00000  Uiso   1.00
H128   H     0.04488   0.36282   0.19542   0.00000  Uiso   1.00
H129   H     0.86198   0.84587   0.47585   0.00000  Uiso   1.00
O130   O     0.55452   0.54994   0.70772   0.00000  Uiso   1.00
O131   O     0.98848   0.20011   0.20420   0.00000  Uiso   1.00
O132   O     0.74852   0.83385   0.57212   0.00000  Uiso   1.00
N133   N     0.55557   0.49806   0.83734   0.00000  Uiso   1.00
N134   N     0.86481   0.24875   0.19112   0.00000  Uiso   1.00
N135   N     0.69383   0.70034   0.45332   0.00000  Uiso   1.00
N136   N     0.67375   0.58926   0.83885   0.00000  Uiso   1.00
N137   N     0.98300   0.33995   0.19264   0.00000  Uiso   1.00
N138   N     0.81202   0.79154   0.45484   0.00000  Uiso   1.00
C139   C     0.83191   0.30865   0.53698   0.00000  Uiso   1.00
C140   C     0.91352   0.31689   0.50646   0.00000  Uiso   1.00
C141   C     0.98231   0.39195   0.53531   0.00000  Uiso   1.00
C142   C     0.05100   0.38611   0.49942   0.00000  Uiso   1.00
C143   C     0.17777   0.41078   0.46158   0.00000  Uiso   1.00
C144   C     0.82460   0.23139   0.57830   0.00000  Uiso   1.00
C145   C     0.81861   0.23456   0.66754   0.00000  Uiso   1.00
C146   C     0.81243   0.15674   0.69211   0.00000  Uiso   1.00
C147   C     0.80109   0.04864   0.76577   0.00000  Uiso   1.00
C148   C     0.75737   0.27909   0.44734   0.00000  Uiso   1.00
C149   C     0.69484   0.32236   0.42648   0.00000  Uiso   1.00
C150   C     0.63204   0.28468   0.34080   0.00000  Uiso   1.00
C151   C     0.51631   0.25066   0.21113   0.00000  Uiso   1.00
C152   C     0.83156   0.16480   0.42193   0.00000  Uiso   1.00
C153   C     0.91334   0.23876   0.44397   0.00000  Uiso   1.00
C154   C     0.98193   0.23280   0.40802   0.00000  Uiso   1.00
C155   C     0.05081   0.30784   0.43681   0.00000  Uiso   1.00
C156   C     0.82441   0.15326   0.51581   0.00000  Uiso   1.00
C157   C     0.81823   0.07541   0.54025   0.00000  Uiso   1.00
C158   C     0.81224   0.07846   0.62950   0.00000  Uiso   1.00
C159   C     0.75718   0.20096   0.38485   0.00000  Uiso   1.00
C160   C     0.69446   0.16321   0.29919   0.00000  Uiso   1.00
C161   C     0.63185   0.20641   0.27820   0.00000  Uiso   1.00
H162   H     0.83205   0.36947   0.58564   0.00000  Uiso   1.00
H163   H     0.98244   0.45240   0.58369   0.00000  Uiso   1.00
H164   H     0.81875   0.29503   0.71588   0.00000  Uiso   1.00
H165   H     0.69500   0.38282   0.47486   0.00000  Uiso   1.00
H166   H     0.14909   0.50988   0.55399   0.00000  Uiso   1.00
H167   H     0.80393   0.17804   0.83273   0.00000  Uiso   1.00
H168   H     0.54297   0.36316   0.32448   0.00000  Uiso   1.00
H169   H     0.83142   0.10397   0.37327   0.00000  Uiso   1.00
H170   H     0.98177   0.17233   0.35966   0.00000  Uiso   1.00
H171   H     0.81808   0.01496   0.49187   0.00000  Uiso   1.00
H172   H     0.69434   0.10274   0.25084   0.00000  Uiso   1.00
H173   H     0.14855   0.28256   0.37216   0.00000  Uiso   1.00
H174   H     0.80338   0.95072   0.65091   0.00000  Uiso   1.00
H175   H     0.54243   0.13584   0.14266   0.00000  Uiso   1.00
O176   O     0.24775   0.44597   0.45798   0.00000  Uiso   1.00
O177   O     0.79489   0.01061   0.82367   0.00000  Uiso   1.00
O178   O     0.45253   0.25348   0.15686   0.00000  Uiso   1.00
N179   N     0.12833   0.44700   0.51305   0.00000  Uiso   1.00
N180   N     0.80563   0.13676   0.77366   0.00000  Uiso   1.00
N181   N     0.56165   0.30981   0.29850   0.00000  Uiso   1.00
N182   N     0.12803   0.32468   0.41521   0.00000  Uiso   1.00
N183   N     0.80534   0.01444   0.67582   0.00000  Uiso   1.00
N184   N     0.56136   0.18749   0.20067   0.00000  Uiso   1.00
C185   C     0.52077   0.83260   0.31311   0.00000  Uiso   1.00
C186   C     0.49181   0.91678   0.32284   0.00000  Uiso   1.00
C187   C     0.51778   0.98792   0.40298   0.00000  Uiso   1.00
C188   C     0.48398   0.05872   0.39768   0.00000  Uiso   1.00
C189   C     0.44782   0.18951   0.42532   0.00000  Uiso   1.00
C190   C     0.55884   0.82371   0.23125   0.00000  Uiso   1.00
C191   C     0.64118   0.81658   0.23438   0.00000  Uiso   1.00
C192   C     0.66380   0.80903   0.15197   0.00000  Uiso   1.00
C193   C     0.73170   0.79527   0.03740   0.00000  Uiso   1.00
C194   C     0.43886   0.75681   0.28112   0.00000  Uiso   1.00
C195   C     0.42032   0.69341   0.32618   0.00000  Uiso   1.00
C196   C     0.34193   0.62952   0.28574   0.00000  Uiso   1.00
C197   C     0.22353   0.51187   0.24861   0.00000  Uiso   1.00
C198   C     0.41454   0.83186   0.16117   0.00000  Uiso   1.00
C199   C     0.43411   0.91638   0.24030   0.00000  Uiso   1.00
C200   C     0.40025   0.98710   0.23487   0.00000  Uiso   1.00
C201   C     0.42618   0.05832   0.31500   0.00000  Uiso   1.00
C202   C     0.50115   0.82331   0.14872   0.00000  Uiso   1.00
C203   C     0.52365   0.81576   0.06627   0.00000  Uiso   1.00
C204   C     0.60600   0.80863   0.06929   0.00000  Uiso   1.00
C205   C     0.38116   0.75641   0.19859   0.00000  Uiso   1.00
C206   C     0.30279   0.69259   0.15807   0.00000  Uiso   1.00
C207   C     0.28413   0.62911   0.20306   0.00000  Uiso   1.00
H208   H     0.56569   0.83292   0.37736   0.00000  Uiso   1.00
H209   H     0.56244   0.98821   0.46684   0.00000  Uiso   1.00
H210   H     0.68581   0.81689   0.29826   0.00000  Uiso   1.00
H211   H     0.46498   0.69374   0.39004   0.00000  Uiso   1.00
H212   H     0.53342   0.16021   0.52963   0.00000  Uiso   1.00
H213   H     0.79355   0.79895   0.17417   0.00000  Uiso   1.00
H214   H     0.32789   0.53926   0.36771   0.00000  Uiso   1.00
H215   H     0.36962   0.83155   0.09691   0.00000  Uiso   1.00
H216   H     0.35561   0.98676   0.17100   0.00000  Uiso   1.00
H217   H     0.47898   0.81545   0.00242   0.00000  Uiso   1.00
H218   H     0.25815   0.69230   0.09420   0.00000  Uiso   1.00
H219   H     0.36555   0.15904   0.28951   0.00000  Uiso   1.00
H220   H     0.62568   0.79778   0.93405   0.00000  Uiso   1.00
H221   H     0.16001   0.53810   0.12759   0.00000  Uiso   1.00
O222   O     0.44383   0.26177   0.46336   0.00000  Uiso   1.00
O223   O     0.78510   0.78779   0.99701   0.00000  Uiso   1.00
O224   O     0.17416   0.44710   0.25093   0.00000  Uiso   1.00
N225   N     0.49582   0.13862   0.46296   0.00000  Uiso   1.00
N226   N     0.73903   0.80088   0.13063   0.00000  Uiso   1.00
N227   N     0.30369   0.55809   0.31155   0.00000  Uiso   1.00
N228   N     0.40549   0.13800   0.33375   0.00000  Uiso   1.00
N229   N     0.64870   0.80026   0.00142   0.00000  Uiso   1.00
N230   N     0.21335   0.55746   0.18235   0.00000  Uiso   1.00
C231   C     0.30569   0.52561   0.83956   0.00000  Uiso   1.00
C232   C     0.31505   0.49679   0.92823   0.00000  Uiso   1.00
C233   C     0.38875   0.52336   0.00363   0.00000  Uiso   1.00
C234   C     0.38428   0.48959   0.07813   0.00000  Uiso   1.00
C235   C     0.41028   0.45373   0.21598   0.00000  Uiso   1.00
C236   C     0.22982   0.56551   0.83074   0.00000  Uiso   1.00
C237   C     0.23186   0.64986   0.82416   0.00000  Uiso   1.00
C238   C     0.15564   0.67393   0.81658   0.00000  Uiso   1.00
C239   C     0.04931   0.74474   0.80301   0.00000  Uiso   1.00
C240   C     0.27695   0.44105   0.75849   0.00000  Uiso   1.00
C241   C     0.31861   0.42075   0.69114   0.00000  Uiso   1.00
C242   C     0.28205   0.34004   0.62272   0.00000  Uiso   1.00
C243   C     0.24890   0.21760   0.49696   0.00000  Uiso   1.00
C244   C     0.16670   0.41836   0.83777   0.00000  Uiso   1.00
C245   C     0.23955   0.43854   0.92725   0.00000  Uiso   1.00
C246   C     0.23497   0.40471   0.00166   0.00000  Uiso   1.00
C247   C     0.30865   0.43123   0.07716   0.00000  Uiso   1.00
C248   C     0.15433   0.50726   0.82977   0.00000  Uiso   1.00
C249   C     0.07809   0.53120   0.82219   0.00000  Uiso   1.00
C250   C     0.08001   0.61557   0.81561   0.00000  Uiso   1.00
C251   C     0.20146   0.38279   0.75752   0.00000  Uiso   1.00
C252   C     0.16483   0.30210   0.68918   0.00000  Uiso   1.00
C253   C     0.20642   0.28168   0.62175   0.00000  Uiso   1.00
H254   H     0.36446   0.57097   0.84031   0.00000  Uiso   1.00
H255   H     0.44716   0.56845   0.00436   0.00000  Uiso   1.00
H256   H     0.29029   0.69492   0.82491   0.00000  Uiso   1.00
H257   H     0.37702   0.46585   0.69192   0.00000  Uiso   1.00
H258   H     0.50554   0.54000   0.18582   0.00000  Uiso   1.00
H259   H     0.17477   0.80666   0.80741   0.00000  Uiso   1.00
H260   H     0.35766   0.32362   0.52697   0.00000  Uiso   1.00
H261   H     0.10792   0.37301   0.83702   0.00000  Uiso   1.00
H262   H     0.17654   0.35963   0.00089   0.00000  Uiso   1.00
H263   H     0.01968   0.48611   0.82143   0.00000  Uiso   1.00
H264   H     0.10641   0.25703   0.68845   0.00000  Uiso   1.00
H265   H     0.28590   0.37052   0.18301   0.00000  Uiso   1.00
H266   H     0.95512   0.63718   0.80458   0.00000  Uiso   1.00
H267   H     0.13802   0.15413   0.52415   0.00000  Uiso   1.00
O268   O     0.44548   0.45006   0.29228   0.00000  Uiso   1.00
O269   O     0.01152   0.79989   0.79580   0.00000  Uiso   1.00
O270   O     0.25148   0.16615   0.42788   0.00000  Uiso   1.00
N271   N     0.44443   0.50194   0.16266   0.00000  Uiso   1.00
N272   N     0.13519   0.75125   0.80888   0.00000  Uiso   1.00
N273   N     0.30617   0.29966   0.54668   0.00000  Uiso   1.00
N274   N     0.32625   0.41074   0.16115   0.00000  Uiso   1.00
N275   N     0.01700   0.66005   0.80736   0.00000  Uiso   1.00
N276   N     0.18798   0.20846   0.54516   0.00000  Uiso   1.00
