data_job_06761
_audit_creation_date              2018-12-19
_audit_creation_method            'Materials Studio'
_symmetry_space_group_name_H-M    'P1'
_symmetry_Int_Tables_number       1
_symmetry_cell_setting            triclinic
loop_
_symmetry_equiv_pos_as_xyz
  x,y,z
_cell_length_a                    21.2283
_cell_length_b                    22.1018
_cell_length_c                    24.7328
_cell_angle_alpha                 90.9810
_cell_angle_beta                  111.5813
_cell_angle_gamma                 61.8750
loop_
_atom_site_label
_atom_site_type_symbol
_atom_site_fract_x
_atom_site_fract_y
_atom_site_fract_z
_atom_site_U_iso_or_equiv
_atom_site_adp_type
_atom_site_occupancy
C1     C     0.09057   0.79486   0.65154   0.00000  Uiso   1.00
C2     C     0.01877   0.86613   0.61930   0.00000  Uiso   1.00
C3     C     0.99077   0.92400   0.64498   0.00000  Uiso   1.00
C4     C     0.92424   0.98437   0.60795   0.00000  Uiso   1.00
C5     C     0.81837   0.09466   0.56711   0.00000  Uiso   1.00
C6     C     0.06221   0.74215   0.63970   0.00000  Uiso   1.00
C7     C     0.07074   0.69578   0.68252   0.00000  Uiso   1.00
C8     C     0.04079   0.65179   0.66265   0.00000  Uiso   1.00
C9     C     0.00242   0.56957   0.65347   0.00000  Uiso   1.00
C10    C     0.14390   0.77926   0.61926   0.00000  Uiso   1.00
C11    C     0.22112   0.76407   0.64490   0.00000  Uiso   1.00
C12    C     0.25995   0.75131   0.60783   0.00000  Uiso   1.00
C13    C     0.34841   0.72671   0.56691   0.00000  Uiso   1.00
C14    C     0.02222   0.79917   0.54010   0.00000  Uiso   1.00
C15    C     0.98164   0.86846   0.55877   0.00000  Uiso   1.00
C16    C     0.91514   0.92877   0.52169   0.00000  Uiso   1.00
C17    C     0.88704   0.98672   0.54731   0.00000  Uiso   1.00
C18    C     0.02508   0.74449   0.57917   0.00000  Uiso   1.00
C19    C     0.99512   0.70056   0.55923   0.00000  Uiso   1.00
C20    C     0.00360   0.65414   0.60202   0.00000  Uiso   1.00
C21    C     0.10677   0.78160   0.55873   0.00000  Uiso   1.00
C22    C     0.14549   0.76885   0.52161   0.00000  Uiso   1.00
C23    C     0.22276   0.75365   0.54719   0.00000  Uiso   1.00
H24    H     0.11948   0.79303   0.69866   0.00000  Uiso   1.00
H25    H     0.01951   0.92216   0.69183   0.00000  Uiso   1.00
H26    H     0.09948   0.69398   0.72936   0.00000  Uiso   1.00
H27    H     0.24983   0.76227   0.69174   0.00000  Uiso   1.00
H28    H     0.89229   0.06635   0.65756   0.00000  Uiso   1.00
H29    H     0.06094   0.58520   0.73670   0.00000  Uiso   1.00
H30    H     0.37798   0.72919   0.65738   0.00000  Uiso   1.00
H31    H     0.99331   0.80100   0.49298   0.00000  Uiso   1.00
H32    H     0.88642   0.93057   0.47485   0.00000  Uiso   1.00
H33    H     0.96639   0.70238   0.51239   0.00000  Uiso   1.00
H34    H     0.11674   0.77067   0.47477   0.00000  Uiso   1.00
H35    H     0.78427   0.07317   0.48146   0.00000  Uiso   1.00
H36    H     0.95292   0.59201   0.56060   0.00000  Uiso   1.00
H37    H     0.26996   0.73601   0.48127   0.00000  Uiso   1.00
O38    O     0.77022   0.15484   0.56130   0.00000  Uiso   1.00
O39    O     0.99150   0.52358   0.66513   0.00000  Uiso   1.00
O40    O     0.40745   0.71250   0.56106   0.00000  Uiso   1.00
N41    N     0.88154   0.05018   0.61860   0.00000  Uiso   1.00
N42    N     0.03921   0.60034   0.69259   0.00000  Uiso   1.00
N43    N     0.33563   0.73494   0.61843   0.00000  Uiso   1.00
N44    N     0.82342   0.05385   0.52384   0.00000  Uiso   1.00
N45    N     0.98109   0.60401   0.59783   0.00000  Uiso   1.00
N46    N     0.27750   0.73861   0.52367   0.00000  Uiso   1.00
C47    C     0.86708   0.38504   0.72791   0.00000  Uiso   1.00
C48    C     0.85205   0.32426   0.72977   0.00000  Uiso   1.00
C49    C     0.88483   0.27331   0.77912   0.00000  Uiso   1.00
C50    C     0.86368   0.22210   0.77173   0.00000  Uiso   1.00
C51    C     0.84830   0.12773   0.78295   0.00000  Uiso   1.00
C52    C     0.89645   0.37940   0.67926   0.00000  Uiso   1.00
C53    C     0.96656   0.37483   0.68615   0.00000  Uiso   1.00
C54    C     0.98277   0.37005   0.63624   0.00000  Uiso   1.00
C55    C     0.03629   0.36134   0.56904   0.00000  Uiso   1.00
C56    C     0.78705   0.45122   0.70554   0.00000  Uiso   1.00
C57    C     0.76517   0.50704   0.73452   0.00000  Uiso   1.00
C58    C     0.68928   0.56273   0.70672   0.00000  Uiso   1.00
C59    C     0.57294   0.66553   0.68031   0.00000  Uiso   1.00
C60    C     0.77122   0.38469   0.62699   0.00000  Uiso   1.00
C61    C     0.79999   0.32407   0.67495   0.00000  Uiso   1.00
C62    C     0.77877   0.27293   0.66748   0.00000  Uiso   1.00
C63    C     0.81152   0.22192   0.71682   0.00000  Uiso   1.00
C64    C     0.84439   0.37921   0.62445   0.00000  Uiso   1.00
C65    C     0.86050   0.37445   0.57451   0.00000  Uiso   1.00
C66    C     0.93061   0.36986   0.58133   0.00000  Uiso   1.00
C67    C     0.73498   0.45103   0.65073   0.00000  Uiso   1.00
C68    C     0.65911   0.50665   0.62287   0.00000  Uiso   1.00
C69    C     0.63712   0.56255   0.65181   0.00000  Uiso   1.00
H70    H     0.90761   0.38518   0.77057   0.00000  Uiso   1.00
H71    H     0.92513   0.27347   0.82153   0.00000  Uiso   1.00
H72    H     0.00683   0.37498   0.72857   0.00000  Uiso   1.00
H73    H     0.80547   0.50716   0.77693   0.00000  Uiso   1.00
H74    H     0.92160   0.14952   0.85385   0.00000  Uiso   1.00
H75    H     0.09387   0.36358   0.65784   0.00000  Uiso   1.00
H76    H     0.66927   0.64232   0.75981   0.00000  Uiso   1.00
H77    H     0.73068   0.38455   0.58432   0.00000  Uiso   1.00
H78    H     0.73848   0.27280   0.62506   0.00000  Uiso   1.00
H79    H     0.82019   0.37431   0.53210   0.00000  Uiso   1.00
H80    H     0.61884   0.50649   0.58046   0.00000  Uiso   1.00
H81    H     0.77012   0.14897   0.69439   0.00000  Uiso   1.00
H82    H     0.94239   0.36304   0.49837   0.00000  Uiso   1.00
H83    H     0.51779   0.64177   0.60034   0.00000  Uiso   1.00
O84    O     0.85420   0.07573   0.80427   0.00000  Uiso   1.00
O85    O     0.08021   0.35659   0.54711   0.00000  Uiso   1.00
O86    O     0.52315   0.72228   0.68090   0.00000  Uiso   1.00
N87    N     0.88487   0.16473   0.81073   0.00000  Uiso   1.00
N88    N     0.04594   0.36486   0.62748   0.00000  Uiso   1.00
N89    N     0.64898   0.62547   0.72280   0.00000  Uiso   1.00
N90    N     0.80335   0.16444   0.72493   0.00000  Uiso   1.00
N91    N     0.96442   0.36456   0.54167   0.00000  Uiso   1.00
N92    N     0.56747   0.62517   0.63700   0.00000  Uiso   1.00
C93    C     0.52511   0.02736   0.73978   0.00000  Uiso   1.00
C94    C     0.56193   0.02199   0.69605   0.00000  Uiso   1.00
C95    C     0.64038   0.99895   0.71079   0.00000  Uiso   1.00
C96    C     0.66248   0.99793   0.66431   0.00000  Uiso   1.00
C97    C     0.72793   0.98640   0.60539   0.00000  Uiso   1.00
C98    C     0.45972   0.10309   0.72594   0.00000  Uiso   1.00
C99    C     0.45224   0.14824   0.76583   0.00000  Uiso   1.00
C100   C     0.38828   0.21548   0.74452   0.00000  Uiso   1.00
C101   C     0.29502   0.32984   0.73202   0.00000  Uiso   1.00
C102   C     0.48496   0.98381   0.72283   0.00000  Uiso   1.00
C103   C     0.49868   0.92867   0.76009   0.00000  Uiso   1.00
C104   C     0.45595   0.89550   0.73616   0.00000  Uiso   1.00
C105   C     0.40188   0.82466   0.71882   0.00000  Uiso   1.00
C106   C     0.42484   0.06650   0.63101   0.00000  Uiso   1.00
C107   C     0.50746   0.04325   0.63697   0.00000  Uiso   1.00
C108   C     0.52944   0.04226   0.59045   0.00000  Uiso   1.00
C109   C     0.60791   0.01922   0.60513   0.00000  Uiso   1.00
C110   C     0.40526   0.12435   0.66687   0.00000  Uiso   1.00
C111   C     0.34130   0.19154   0.64549   0.00000  Uiso   1.00
C112   C     0.33372   0.23678   0.68533   0.00000  Uiso   1.00
C113   C     0.43050   0.00507   0.66374   0.00000  Uiso   1.00
C114   C     0.38774   0.97197   0.63975   0.00000  Uiso   1.00
C115   C     0.40139   0.91679   0.67697   0.00000  Uiso   1.00
H116   H     0.56751   0.01081   0.78578   0.00000  Uiso   1.00
H117   H     0.68252   0.98251   0.75652   0.00000  Uiso   1.00
H118   H     0.49439   0.13177   0.81155   0.00000  Uiso   1.00
H119   H     0.54083   0.91224   0.80581   0.00000  Uiso   1.00
H120   H     0.78599   0.96054   0.69803   0.00000  Uiso   1.00
H121   H     0.38931   0.27525   0.81406   0.00000  Uiso   1.00
H122   H     0.48723   0.81232   0.80196   0.00000  Uiso   1.00
H123   H     0.38243   0.08305   0.58502   0.00000  Uiso   1.00
H124   H     0.48728   0.05871   0.54474   0.00000  Uiso   1.00
H125   H     0.29916   0.20797   0.59977   0.00000  Uiso   1.00
H126   H     0.34560   0.98844   0.59403   0.00000  Uiso   1.00
H127   H     0.62753   0.02239   0.52614   0.00000  Uiso   1.00
H128   H     0.23085   0.33710   0.64217   0.00000  Uiso   1.00
H129   H     0.32877   0.87417   0.63007   0.00000  Uiso   1.00
O130   O     0.77907   0.97417   0.58921   0.00000  Uiso   1.00
O131   O     0.25864   0.38705   0.74144   0.00000  Uiso   1.00
O132   O     0.38711   0.77971   0.72557   0.00000  Uiso   1.00
N133   N     0.73431   0.97842   0.66310   0.00000  Uiso   1.00
N134   N     0.36345   0.27266   0.77158   0.00000  Uiso   1.00
N135   N     0.45498   0.83988   0.76028   0.00000  Uiso   1.00
N136   N     0.64905   0.01170   0.57061   0.00000  Uiso   1.00
N137   N     0.27818   0.30594   0.67909   0.00000  Uiso   1.00
N138   N     0.36971   0.87315   0.66778   0.00000  Uiso   1.00
C139   C     0.45484   0.89165   0.22024   0.00000  Uiso   1.00
C140   C     0.51974   0.85044   0.19923   0.00000  Uiso   1.00
C141   C     0.59529   0.79823   0.23455   0.00000  Uiso   1.00
C142   C     0.64600   0.76682   0.20692   0.00000  Uiso   1.00
C143   C     0.75042   0.69974   0.18353   0.00000  Uiso   1.00
C144   C     0.38672   0.88141   0.18231   0.00000  Uiso   1.00
C145   C     0.35043   0.85525   0.20341   0.00000  Uiso   1.00
C146   C     0.28915   0.84993   0.16154   0.00000  Uiso   1.00
C147   C     0.18703   0.83098   0.11188   0.00000  Uiso   1.00
C148   C     0.42769   0.96849   0.20253   0.00000  Uiso   1.00
C149   C     0.42582   0.01555   0.24061   0.00000  Uiso   1.00
C150   C     0.39901   0.08354   0.21576   0.00000  Uiso   1.00
C151   C     0.36049   0.19980   0.19749   0.00000  Uiso   1.00
C152   C     0.41054   0.92871   0.10838   0.00000  Uiso   1.00
C153   C     0.49568   0.87057   0.13847   0.00000  Uiso   1.00
C154   C     0.54628   0.83923   0.11078   0.00000  Uiso   1.00
C155   C     0.62189   0.78698   0.14605   0.00000  Uiso   1.00
C156   C     0.36266   0.90154   0.12155   0.00000  Uiso   1.00
C157   C     0.30142   0.89625   0.07964   0.00000  Uiso   1.00
C158   C     0.26504   0.87009   0.10067   0.00000  Uiso   1.00
C159   C     0.40363   0.98862   0.14176   0.00000  Uiso   1.00
C160   C     0.37681   0.05655   0.11684   0.00000  Uiso   1.00
C161   C     0.37490   0.10371   0.15489   0.00000  Uiso   1.00
H162   H     0.47357   0.87598   0.26755   0.00000  Uiso   1.00
H163   H     0.61389   0.78266   0.28157   0.00000  Uiso   1.00
H164   H     0.36906   0.83969   0.25043   0.00000  Uiso   1.00
H165   H     0.44444   0.99996   0.28763   0.00000  Uiso   1.00
H166   H     0.75884   0.68806   0.27031   0.00000  Uiso   1.00
H167   H     0.24259   0.80832   0.20466   0.00000  Uiso   1.00
H168   H     0.40154   0.14629   0.28310   0.00000  Uiso   1.00
H169   H     0.39180   0.94438   0.06107   0.00000  Uiso   1.00
H170   H     0.52764   0.85482   0.06376   0.00000  Uiso   1.00
H171   H     0.28281   0.91184   0.03262   0.00000  Uiso   1.00
H172   H     0.35819   0.07211   0.06982   0.00000  Uiso   1.00
H173   H     0.68884   0.74662   0.09353   0.00000  Uiso   1.00
H174   H     0.17258   0.86689   0.02788   0.00000  Uiso   1.00
H175   H     0.33154   0.20485   0.10632   0.00000  Uiso   1.00
O176   O     0.81466   0.65717   0.18741   0.00000  Uiso   1.00
O177   O     0.13735   0.81497   0.10128   0.00000  Uiso   1.00
O178   O     0.34590   0.25836   0.20420   0.00000  Uiso   1.00
N179   N     0.72373   0.71414   0.22834   0.00000  Uiso   1.00
N180   N     0.24107   0.82657   0.16696   0.00000  Uiso   1.00
N181   N     0.38966   0.14255   0.24030   0.00000  Uiso   1.00
N182   N     0.68606   0.74566   0.13321   0.00000  Uiso   1.00
N183   N     0.20340   0.85808   0.07184   0.00000  Uiso   1.00
N184   N     0.35199   0.17406   0.14517   0.00000  Uiso   1.00
C185   C     0.19448   0.52634   0.28436   0.00000  Uiso   1.00
C186   C     0.12046   0.52225   0.25184   0.00000  Uiso   1.00
C187   C     0.08319   0.50342   0.27825   0.00000  Uiso   1.00
C188   C     0.01619   0.50288   0.24079   0.00000  Uiso   1.00
C189   C     0.90560   0.49388   0.19967   0.00000  Uiso   1.00
C190   C     0.17369   0.60050   0.26358   0.00000  Uiso   1.00
C191   C     0.18119   0.64744   0.29986   0.00000  Uiso   1.00
C192   C     0.15901   0.71277   0.27229   0.00000  Uiso   1.00
C193   C     0.13111   0.82522   0.24940   0.00000  Uiso   1.00
C194   C     0.25315   0.47856   0.25989   0.00000  Uiso   1.00
C195   C     0.32747   0.42300   0.29308   0.00000  Uiso   1.00
C196   C     0.37220   0.38567   0.26240   0.00000  Uiso   1.00
C197   C     0.46767   0.30882   0.23379   0.00000  Uiso   1.00
C198   C     0.14177   0.55886   0.17087   0.00000  Uiso   1.00
C199   C     0.09184   0.53992   0.19019   0.00000  Uiso   1.00
C200   C     0.02488   0.53940   0.15269   0.00000  Uiso   1.00
C201   C     0.98752   0.52057   0.17904   0.00000  Uiso   1.00
C202   C     0.14507   0.61816   0.20194   0.00000  Uiso   1.00
C203   C     0.12287   0.68343   0.17430   0.00000  Uiso   1.00
C204   C     0.13033   0.73047   0.21054   0.00000  Uiso   1.00
C205   C     0.22453   0.49623   0.19825   0.00000  Uiso   1.00
C206   C     0.26915   0.45898   0.16752   0.00000  Uiso   1.00
C207   C     0.34352   0.40337   0.20065   0.00000  Uiso   1.00
H208   H     0.21677   0.51259   0.33235   0.00000  Uiso   1.00
H209   H     0.10536   0.48976   0.32595   0.00000  Uiso   1.00
H210   H     0.20335   0.63376   0.34757   0.00000  Uiso   1.00
H211   H     0.34960   0.40935   0.34078   0.00000  Uiso   1.00
H212   H     0.96921   0.47226   0.29168   0.00000  Uiso   1.00
H213   H     0.17585   0.77588   0.33725   0.00000  Uiso   1.00
H214   H     0.48426   0.30267   0.32294   0.00000  Uiso   1.00
H215   H     0.11948   0.57262   0.12288   0.00000  Uiso   1.00
H216   H     0.00274   0.55308   0.10499   0.00000  Uiso   1.00
H217   H     0.10073   0.69708   0.12660   0.00000  Uiso   1.00
H218   H     0.24698   0.47267   0.11982   0.00000  Uiso   1.00
H219   H     0.88591   0.52366   0.11233   0.00000  Uiso   1.00
H220   H     0.09256   0.82728   0.15791   0.00000  Uiso   1.00
H221   H     0.40096   0.35407   0.14360   0.00000  Uiso   1.00
O222   O     0.85250   0.48405   0.19401   0.00000  Uiso   1.00
O223   O     0.12362   0.88238   0.25381   0.00000  Uiso   1.00
O224   O     0.52824   0.26153   0.23504   0.00000  Uiso   1.00
N225   N     0.96564   0.48703   0.25192   0.00000  Uiso   1.00
N226   N     0.15882   0.77090   0.29453   0.00000  Uiso   1.00
N227   N     0.44716   0.32850   0.28116   0.00000  Uiso   1.00
N228   N     0.92082   0.51468   0.15542   0.00000  Uiso   1.00
N229   N     0.11400   0.79855   0.19803   0.00000  Uiso   1.00
N230   N     0.40234   0.35615   0.18465   0.00000  Uiso   1.00
C231   C     0.74534   0.28051   0.13896   0.00000  Uiso   1.00
C232   C     0.71548   0.35282   0.10615   0.00000  Uiso   1.00
C233   C     0.71274   0.40966   0.13216   0.00000  Uiso   1.00
C234   C     0.68342   0.47127   0.09450   0.00000  Uiso   1.00
C235   C     0.64099   0.58286   0.05291   0.00000  Uiso   1.00
C236   C     0.80974   0.22934   0.12082   0.00000  Uiso   1.00
C237   C     0.88625   0.18234   0.15916   0.00000  Uiso   1.00
C238   C     0.93628   0.14001   0.13384   0.00000  Uiso   1.00
C239   C     0.04017   0.05984   0.11502   0.00000  Uiso   1.00
C240   C     0.67847   0.26509   0.11237   0.00000  Uiso   1.00
C241   C     0.64461   0.24814   0.14361   0.00000  Uiso   1.00
C242   C     0.58413   0.23590   0.11119   0.00000  Uiso   1.00
C243   C     0.48420   0.21125   0.07926   0.00000  Uiso   1.00
C244   C     0.69815   0.28887   0.02583   0.00000  Uiso   1.00
C245   C     0.68985   0.35736   0.04471   0.00000  Uiso   1.00
C246   C     0.66052   0.41891   0.00699   0.00000  Uiso   1.00
C247   C     0.65774   0.47583   0.03294   0.00000  Uiso   1.00
C248   C     0.78411   0.23388   0.05937   0.00000  Uiso   1.00
C249   C     0.83403   0.19160   0.03399   0.00000  Uiso   1.00
C250   C     0.91060   0.14456   0.07228   0.00000  Uiso   1.00
C251   C     0.65283   0.26964   0.05093   0.00000  Uiso   1.00
C252   C     0.59239   0.25741   0.01845   0.00000  Uiso   1.00
C253   C     0.55845   0.24045   0.04963   0.00000  Uiso   1.00
H254   H     0.76530   0.27696   0.18680   0.00000  Uiso   1.00
H255   H     0.73259   0.40612   0.17971   0.00000  Uiso   1.00
H256   H     0.90607   0.17883   0.20671   0.00000  Uiso   1.00
H257   H     0.66447   0.24463   0.19116   0.00000  Uiso   1.00
H258   H     0.68504   0.55130   0.14477   0.00000  Uiso   1.00
H259   H     0.05083   0.07205   0.20168   0.00000  Uiso   1.00
H260   H     0.54136   0.21079   0.16891   0.00000  Uiso   1.00
H261   H     0.67819   0.29241   0.97799   0.00000  Uiso   1.00
H262   H     0.64069   0.42241   0.95944   0.00000  Uiso   1.00
H263   H     0.81417   0.19513   0.98644   0.00000  Uiso   1.00
H264   H     0.57257   0.26093   0.97090   0.00000  Uiso   1.00
H265   H     0.61046   0.56453   0.96599   0.00000  Uiso   1.00
H266   H     0.97624   0.08527   0.02290   0.00000  Uiso   1.00
H267   H     0.46677   0.22402   0.99013   0.00000  Uiso   1.00
O268   O     0.62468   0.64315   0.04695   0.00000  Uiso   1.00
O269   O     0.10457   0.01438   0.12162   0.00000  Uiso   1.00
O270   O     0.43616   0.19641   0.07862   0.00000  Uiso   1.00
N271   N     0.67262   0.53658   0.10523   0.00000  Uiso   1.00
N272   N     0.01461   0.08851   0.15845   0.00000  Uiso   1.00
N273   N     0.53832   0.21821   0.12781   0.00000  Uiso   1.00
N274   N     0.63248   0.54369   0.00903   0.00000  Uiso   1.00
N275   N     0.97448   0.09563   0.06225   0.00000  Uiso   1.00
N276   N     0.49818   0.22533   0.03161   0.00000  Uiso   1.00
C277   C     0.90137   0.17176   0.33315   0.00000  Uiso   1.00
C278   C     0.97061   0.09827   0.36205   0.00000  Uiso   1.00
C279   C     0.99984   0.04502   0.33237   0.00000  Uiso   1.00
C280   C     0.06358   0.98156   0.36682   0.00000  Uiso   1.00
C281   C     0.16606   0.86896   0.40229   0.00000  Uiso   1.00
C282   C     0.93192   0.22159   0.35530   0.00000  Uiso   1.00
C283   C     0.92860   0.27203   0.31995   0.00000  Uiso   1.00
C284   C     0.95976   0.31239   0.34873   0.00000  Uiso   1.00
C285   C     0.00211   0.39128   0.37372   0.00000  Uiso   1.00
C286   C     0.84355   0.18307   0.36018   0.00000  Uiso   1.00
C287   C     0.76591   0.20113   0.32893   0.00000  Uiso   1.00
C288   C     0.72265   0.20907   0.36181   0.00000  Uiso   1.00
C289   C     0.62779   0.22814   0.39436   0.00000  Uiso   1.00
C290   C     0.96260   0.15375   0.44710   0.00000  Uiso   1.00
C291   C     0.00387   0.08849   0.42395   0.00000  Uiso   1.00
C292   C     0.06758   0.02510   0.45845   0.00000  Uiso   1.00
C293   C     0.09689   0.97176   0.42883   0.00000  Uiso   1.00
C294   C     0.96518   0.21181   0.41720   0.00000  Uiso   1.00
C295   C     0.99634   0.25211   0.44603   0.00000  Uiso   1.00
C296   C     0.99307   0.30259   0.41074   0.00000  Uiso   1.00
C297   C     0.87680   0.17329   0.42208   0.00000  Uiso   1.00
C298   C     0.83365   0.18121   0.45501   0.00000  Uiso   1.00
C299   C     0.75597   0.19928   0.42382   0.00000  Uiso   1.00
H300   H     0.87548   0.17937   0.28496   0.00000  Uiso   1.00
H301   H     0.97409   0.05261   0.28447   0.00000  Uiso   1.00
H302   H     0.90286   0.27959   0.27205   0.00000  Uiso   1.00
H303   H     0.74020   0.20870   0.28103   0.00000  Uiso   1.00
H304   H     0.09810   0.90777   0.31122   0.00000  Uiso   1.00
H305   H     0.94787   0.38638   0.28505   0.00000  Uiso   1.00
H306   H     0.60487   0.23689   0.30397   0.00000  Uiso   1.00
H307   H     0.98849   0.14614   0.49530   0.00000  Uiso   1.00
H308   H     0.09330   0.01754   0.50635   0.00000  Uiso   1.00
H309   H     0.02206   0.24453   0.49394   0.00000  Uiso   1.00
H310   H     0.85940   0.17363   0.50291   0.00000  Uiso   1.00
H311   H     0.19486   0.87931   0.49131   0.00000  Uiso   1.00
H312   H     0.04463   0.35793   0.46513   0.00000  Uiso   1.00
H313   H     0.70162   0.20843   0.48406   0.00000  Uiso   1.00
O314   O     0.21340   0.80955   0.40475   0.00000  Uiso   1.00
O315   O     0.01630   0.43749   0.37040   0.00000  Uiso   1.00
O316   O     0.56629   0.24136   0.39523   0.00000  Uiso   1.00
N317   N     0.10648   0.91871   0.35209   0.00000  Uiso   1.00
N318   N     0.96604   0.36618   0.32762   0.00000  Uiso   1.00
N319   N     0.64535   0.22644   0.34531   0.00000  Uiso   1.00
N320   N     0.15854   0.90340   0.44900   0.00000  Uiso   1.00
N321   N     0.01810   0.35087   0.42452   0.00000  Uiso   1.00
N322   N     0.69741   0.21113   0.44221   0.00000  Uiso   1.00
C323   C     0.34959   0.43508   0.46008   0.00000  Uiso   1.00
C324   C     0.36093   0.49777   0.45596   0.00000  Uiso   1.00
C325   C     0.35629   0.52978   0.40577   0.00000  Uiso   1.00
C326   C     0.36848   0.58644   0.41106   0.00000  Uiso   1.00
C327   C     0.38358   0.68019   0.39650   0.00000  Uiso   1.00
C328   C     0.28441   0.45800   0.48160   0.00000  Uiso   1.00
C329   C     0.21545   0.45656   0.45296   0.00000  Uiso   1.00
C330   C     0.16324   0.47974   0.47983   0.00000  Uiso   1.00
C331   C     0.05958   0.51170   0.50510   0.00000  Uiso   1.00
C332   C     0.42390   0.37943   0.51029   0.00000  Uiso   1.00
C333   C     0.47220   0.31192   0.50578   0.00000  Uiso   1.00
C334   C     0.53742   0.26895   0.55682   0.00000  Uiso   1.00
C335   C     0.65032   0.17892   0.62664   0.00000  Uiso   1.00
C336   C     0.37948   0.47879   0.55873   0.00000  Uiso   1.00
C337   C     0.37716   0.52151   0.50955   0.00000  Uiso   1.00
C338   C     0.38937   0.57814   0.51492   0.00000  Uiso   1.00
C339   C     0.38475   0.61023   0.46474   0.00000  Uiso   1.00
C340   C     0.30065   0.48174   0.53518   0.00000  Uiso   1.00
C341   C     0.24853   0.50492   0.56211   0.00000  Uiso   1.00
C342   C     0.17951   0.50352   0.53351   0.00000  Uiso   1.00
C343   C     0.44014   0.40317   0.56388   0.00000  Uiso   1.00
C344   C     0.50528   0.36029   0.61493   0.00000  Uiso   1.00
C345   C     0.55368   0.29273   0.61050   0.00000  Uiso   1.00
H346   H     0.33694   0.41660   0.41837   0.00000  Uiso   1.00
H347   H     0.34372   0.51139   0.36431   0.00000  Uiso   1.00
H348   H     0.20291   0.43818   0.41150   0.00000  Uiso   1.00
H349   H     0.45962   0.29357   0.46431   0.00000  Uiso   1.00
H350   H     0.35836   0.62698   0.32800   0.00000  Uiso   1.00
H351   H     0.06147   0.47258   0.42751   0.00000  Uiso   1.00
H352   H     0.60279   0.16764   0.53888   0.00000  Uiso   1.00
H353   H     0.39212   0.49728   0.60045   0.00000  Uiso   1.00
H354   H     0.40193   0.59650   0.55639   0.00000  Uiso   1.00
H355   H     0.26112   0.52329   0.60357   0.00000  Uiso   1.00
H356   H     0.51783   0.37868   0.65639   0.00000  Uiso   1.00
H357   H     0.40561   0.69606   0.48390   0.00000  Uiso   1.00
H358   H     0.10871   0.54166   0.58340   0.00000  Uiso   1.00
H359   H     0.65004   0.23672   0.69478   0.00000  Uiso   1.00
O360   O     0.38742   0.72535   0.37367   0.00000  Uiso   1.00
O361   O     0.99791   0.52277   0.50422   0.00000  Uiso   1.00
O362   O     0.70812   0.12271   0.65034   0.00000  Uiso   1.00
N363   N     0.36815   0.62961   0.37074   0.00000  Uiso   1.00
N364   N     0.09057   0.48527   0.46377   0.00000  Uiso   1.00
N365   N     0.59665   0.20017   0.56790   0.00000  Uiso   1.00
N366   N     0.39358   0.66678   0.45463   0.00000  Uiso   1.00
N367   N     0.11599   0.52244   0.54766   0.00000  Uiso   1.00
N368   N     0.62207   0.23734   0.65178   0.00000  Uiso   1.00
C369   C     0.57809   0.80184   0.40622   0.00000  Uiso   1.00
C370   C     0.53684   0.81188   0.44751   0.00000  Uiso   1.00
C371   C     0.45778   0.83532   0.42998   0.00000  Uiso   1.00
C372   C     0.43138   0.84095   0.47453   0.00000  Uiso   1.00
C373   C     0.35960   0.85913   0.52953   0.00000  Uiso   1.00
C374   C     0.64407   0.72592   0.42476   0.00000  Uiso   1.00
C375   C     0.65516   0.67709   0.38811   0.00000  Uiso   1.00
C376   C     0.71903   0.61037   0.41351   0.00000  Uiso   1.00
C377   C     0.81375   0.49511   0.43318   0.00000  Uiso   1.00
C378   C     0.61758   0.84600   0.42197   0.00000  Uiso   1.00
C379   C     0.60642   0.89812   0.38297   0.00000  Uiso   1.00
C380   C     0.64800   0.93248   0.40603   0.00000  Uiso   1.00
C381   C     0.70158   0.00367   0.42137   0.00000  Uiso   1.00
C382   C     0.67179   0.77018   0.51650   0.00000  Uiso   1.00
C383   C     0.58774   0.79468   0.50741   0.00000  Uiso   1.00
C384   C     0.56145   0.80029   0.55200   0.00000  Uiso   1.00
C385   C     0.48236   0.82372   0.53454   0.00000  Uiso   1.00
C386   C     0.69496   0.70872   0.48466   0.00000  Uiso   1.00
C387   C     0.75883   0.64206   0.51012   0.00000  Uiso   1.00
C388   C     0.77002   0.59313   0.47352   0.00000  Uiso   1.00
C389   C     0.66847   0.82881   0.48187   0.00000  Uiso   1.00
C390   C     0.71008   0.86309   0.50499   0.00000  Uiso   1.00
C391   C     0.69898   0.91525   0.46603   0.00000  Uiso   1.00
H392   H     0.53848   0.81522   0.35959   0.00000  Uiso   1.00
H393   H     0.41842   0.84861   0.38362   0.00000  Uiso   1.00
H394   H     0.61578   0.69042   0.34175   0.00000  Uiso   1.00
H395   H     0.56703   0.91142   0.33662   0.00000  Uiso   1.00
H396   H     0.30776   0.87803   0.43669   0.00000  Uiso   1.00
H397   H     0.72391   0.54446   0.34840   0.00000  Uiso   1.00
H398   H     0.62113   0.01048   0.33758   0.00000  Uiso   1.00
H399   H     0.71141   0.75678   0.56314   0.00000  Uiso   1.00
H400   H     0.60084   0.78697   0.59835   0.00000  Uiso   1.00
H401   H     0.79820   0.62877   0.55647   0.00000  Uiso   1.00
H402   H     0.74946   0.84977   0.55134   0.00000  Uiso   1.00
H403   H     0.45583   0.82799   0.61096   0.00000  Uiso   1.00
H404   H     0.87198   0.49442   0.52267   0.00000  Uiso   1.00
H405   H     0.76919   0.96044   0.51186   0.00000  Uiso   1.00
O406   O     0.30594   0.87390   0.54331   0.00000  Uiso   1.00
O407   O     0.85192   0.43628   0.42748   0.00000  Uiso   1.00
O408   O     0.71707   0.04768   0.41328   0.00000  Uiso   1.00
N409   N     0.35778   0.86212   0.47287   0.00000  Uiso   1.00
N410   N     0.74685   0.55025   0.39033   0.00000  Uiso   1.00
N411   N     0.65077   0.98593   0.38021   0.00000  Uiso   1.00
N412   N     0.43745   0.83520   0.56665   0.00000  Uiso   1.00
N413   N     0.82652   0.52333   0.48410   0.00000  Uiso   1.00
N414   N     0.73044   0.95901   0.47399   0.00000  Uiso   1.00
C415   C     0.65255   0.94300   0.91612   0.00000  Uiso   1.00
C416   C     0.58576   0.99211   0.93285   0.00000  Uiso   1.00
C417   C     0.50757   0.03145   0.89417   0.00000  Uiso   1.00
C418   C     0.45547   0.07318   0.91815   0.00000  Uiso   1.00
C419   C     0.34793   0.14912   0.93494   0.00000  Uiso   1.00
C420   C     0.71195   0.96791   0.93670   0.00000  Uiso   1.00
C421   C     0.73988   0.98690   0.90124   0.00000  Uiso   1.00
C422   C     0.79403   0.00824   0.92847   0.00000  Uiso   1.00
C423   C     0.88245   0.04656   0.95123   0.00000  Uiso   1.00
C424   C     0.69181   0.87181   0.95512   0.00000  Uiso   1.00
C425   C     0.70281   0.80998   0.93516   0.00000  Uiso   1.00
C426   C     0.74001   0.75041   0.97789   0.00000  Uiso   1.00
C427   C     0.79714   0.63952   0.02926   0.00000  Uiso   1.00
C428   C     0.69906   0.94712   0.02750   0.00000  Uiso   1.00
C429   C     0.61102   0.99435   0.99335   0.00000  Uiso   1.00
C430   C     0.55903   0.03602   0.01740   0.00000  Uiso   1.00
C431   C     0.48078   0.07542   0.97876   0.00000  Uiso   1.00
C432   C     0.73722   0.97015   0.99720   0.00000  Uiso   1.00
C433   C     0.79134   0.99146   0.02448   0.00000  Uiso   1.00
C434   C     0.81933   0.01048   0.98907   0.00000  Uiso   1.00
C435   C     0.71707   0.87404   0.01562   0.00000  Uiso   1.00
C436   C     0.75426   0.81455   0.05839   0.00000  Uiso   1.00
C437   C     0.76532   0.75265   0.03850   0.00000  Uiso   1.00
H438   H     0.63289   0.94125   0.86901   0.00000  Uiso   1.00
H439   H     0.48805   0.02971   0.84735   0.00000  Uiso   1.00
H440   H     0.72033   0.98515   0.85443   0.00000  Uiso   1.00
H441   H     0.68326   0.80827   0.88834   0.00000  Uiso   1.00
H442   H     0.33861   0.12879   0.85001   0.00000  Uiso   1.00
H443   H     0.82841   0.03481   0.86494   0.00000  Uiso   1.00
H444   H     0.75024   0.66182   0.93644   0.00000  Uiso   1.00
H445   H     0.71873   0.94887   0.07460   0.00000  Uiso   1.00
H446   H     0.57859   0.03774   0.06422   0.00000  Uiso   1.00
H447   H     0.81087   0.99318   0.07130   0.00000  Uiso   1.00
H448   H     0.77380   0.81630   0.10521   0.00000  Uiso   1.00
H449   H     0.41210   0.13531   0.02603   0.00000  Uiso   1.00
H450   H     0.90190   0.04133   0.04096   0.00000  Uiso   1.00
H451   H     0.82373   0.66834   0.11246   0.00000  Uiso   1.00
O452   O     0.28163   0.19040   0.92748   0.00000  Uiso   1.00
O453   O     0.92423   0.06709   0.94706   0.00000  Uiso   1.00
O454   O     0.82167   0.57774   0.04088   0.00000  Uiso   1.00
N455   N     0.37514   0.11812   0.89286   0.00000  Uiso   1.00
N456   N     0.83306   0.03027   0.90682   0.00000  Uiso   1.00
N457   N     0.76000   0.68155   0.97367   0.00000  Uiso   1.00
N458   N     0.41468   0.12163   0.98758   0.00000  Uiso   1.00
N459   N     0.87260   0.03377   0.00153   0.00000  Uiso   1.00
N460   N     0.79954   0.68505   0.06838   0.00000  Uiso   1.00
C461   C     0.03368   0.29543   0.92148   0.00000  Uiso   1.00
C462   C     0.09955   0.30602   0.96365   0.00000  Uiso   1.00
C463   C     0.14476   0.32498   0.94742   0.00000  Uiso   1.00
C464   C     0.20213   0.33199   0.99261   0.00000  Uiso   1.00
C465   C     0.30267   0.35016   0.04908   0.00000  Uiso   1.00
C466   C     0.05490   0.22142   0.94327   0.00000  Uiso   1.00
C467   C     0.06254   0.16926   0.90990   0.00000  Uiso   1.00
C468   C     0.08232   0.10507   0.93794   0.00000  Uiso   1.00
C469   C     0.11347   0.99192   0.96275   0.00000  Uiso   1.00
C470   C     0.96133   0.34427   0.93231   0.00000  Uiso   1.00
C471   C     0.89029   0.39539   0.88971   0.00000  Uiso   1.00
C472   C     0.83128   0.43461   0.90851   0.00000  Uiso   1.00
C473   C     0.71715   0.51220   0.91629   0.00000  Uiso   1.00
C474   C     0.05518   0.27418   0.03060   0.00000  Uiso   1.00
C475   C     0.11123   0.29447   0.02292   0.00000  Uiso   1.00
C476   C     0.16855   0.30147   0.06815   0.00000  Uiso   1.00
C477   C     0.21383   0.32044   0.05199   0.00000  Uiso   1.00
C478   C     0.06658   0.20988   0.00254   0.00000  Uiso   1.00
C479   C     0.08634   0.14576   0.03063   0.00000  Uiso   1.00
C480   C     0.09402   0.09351   0.99731   0.00000  Uiso   1.00
C481   C     0.97301   0.33273   0.99158   0.00000  Uiso   1.00
C482   C     0.91409   0.37188   0.01044   0.00000  Uiso   1.00
C483   C     0.84298   0.42305   0.96789   0.00000  Uiso   1.00
H484   H     0.02458   0.30441   0.87534   0.00000  Uiso   1.00
H485   H     0.13570   0.33389   0.90155   0.00000  Uiso   1.00
H486   H     0.05349   0.17821   0.86403   0.00000  Uiso   1.00
H487   H     0.88127   0.40430   0.84385   0.00000  Uiso   1.00
H488   H     0.26407   0.36148   0.95675   0.00000  Uiso   1.00
H489   H     0.09071   0.03321   0.87764   0.00000  Uiso   1.00
H490   H     0.72754   0.50997   0.83507   0.00000  Uiso   1.00
H491   H     0.06428   0.26519   0.07675   0.00000  Uiso   1.00
H492   H     0.17758   0.29254   0.11402   0.00000  Uiso   1.00
H493   H     0.09537   0.13685   0.07650   0.00000  Uiso   1.00
H494   H     0.92315   0.36294   0.05631   0.00000  Uiso   1.00
H495   H     0.29806   0.32790   0.12919   0.00000  Uiso   1.00
H496   H     0.12469   0.99964   0.05008   0.00000  Uiso   1.00
H497   H     0.76153   0.47640   0.00752   0.00000  Uiso   1.00
O498   O     0.35490   0.36336   0.06385   0.00000  Uiso   1.00
O499   O     0.12744   0.93270   0.96006   0.00000  Uiso   1.00
O500   O     0.65098   0.55819   0.90422   0.00000  Uiso   1.00
N501   N     0.25651   0.34984   0.99222   0.00000  Uiso   1.00
N502   N     0.09444   0.04293   0.91826   0.00000  Uiso   1.00
N503   N     0.75490   0.48864   0.87846   0.00000  Uiso   1.00
N504   N     0.27480   0.33177   0.08501   0.00000  Uiso   1.00
N505   N     0.11273   0.02486   0.01105   0.00000  Uiso   1.00
N506   N     0.77319   0.47058   0.97125   0.00000  Uiso   1.00
C507   C     0.25218   0.65682   0.85318   0.00000  Uiso   1.00
C508   C     0.28810   0.57953   0.87717   0.00000  Uiso   1.00
C509   C     0.27998   0.53048   0.84384   0.00000  Uiso   1.00
C510   C     0.31739   0.46243   0.87407   0.00000  Uiso   1.00
C511   C     0.36645   0.34521   0.90200   0.00000  Uiso   1.00
C512   C     0.20370   0.69685   0.88758   0.00000  Uiso   1.00
C513   C     0.12463   0.74644   0.86298   0.00000  Uiso   1.00
C514   C     0.09100   0.77715   0.90198   0.00000  Uiso   1.00
C515   C     0.00905   0.84209   0.94606   0.00000  Uiso   1.00
C516   C     0.32015   0.67104   0.87221   0.00000  Uiso   1.00
C517   C     0.33897   0.69895   0.83469   0.00000  Uiso   1.00
C518   C     0.40338   0.70795   0.86075   0.00000  Uiso   1.00
C519   C     0.50223   0.73283   0.88096   0.00000  Uiso   1.00
C520   C     0.33306   0.62319   0.96616   0.00000  Uiso   1.00
C521   C     0.33203   0.56127   0.93854   0.00000  Uiso   1.00
C522   C     0.36947   0.49327   0.96884   0.00000  Uiso   1.00
C523   C     0.36141   0.44413   0.93555   0.00000  Uiso   1.00
C524   C     0.24763   0.67858   0.94894   0.00000  Uiso   1.00
C525   C     0.21412   0.70923   0.98799   0.00000  Uiso   1.00
C526   C     0.13501   0.75885   0.96346   0.00000  Uiso   1.00
C527   C     0.36408   0.65277   0.93357   0.00000  Uiso   1.00
C528   C     0.42846   0.66174   0.95969   0.00000  Uiso   1.00
C529   C     0.44739   0.68965   0.92223   0.00000  Uiso   1.00
H530   H     0.21797   0.67105   0.80540   0.00000  Uiso   1.00
H531   H     0.24597   0.54464   0.79634   0.00000  Uiso   1.00
H532   H     0.09065   0.76057   0.81549   0.00000  Uiso   1.00
H533   H     0.30496   0.71308   0.78720   0.00000  Uiso   1.00
H534   H     0.29636   0.39645   0.81337   0.00000  Uiso   1.00
H535   H     0.96887   0.85175   0.85374   0.00000  Uiso   1.00
H536   H     0.42079   0.75163   0.79409   0.00000  Uiso   1.00
H537   H     0.36726   0.60897   0.01394   0.00000  Uiso   1.00
H538   H     0.40346   0.47915   0.01633   0.00000  Uiso   1.00
H539   H     0.24813   0.69508   0.03548   0.00000  Uiso   1.00
H540   H     0.46245   0.64760   0.00719   0.00000  Uiso   1.00
H541   H     0.42418   0.34329   0.99192   0.00000  Uiso   1.00
H542   H     0.09669   0.79861   0.03229   0.00000  Uiso   1.00
H543   H     0.54861   0.69848   0.97264   0.00000  Uiso   1.00
O544   O     0.38137   0.28560   0.90046   0.00000  Uiso   1.00
O545   O     0.95171   0.88295   0.95342   0.00000  Uiso   1.00
O546   O     0.54462   0.75158   0.87516   0.00000  Uiso   1.00
N547   N     0.32149   0.40175   0.85506   0.00000  Uiso   1.00
N548   N     0.01530   0.82743   0.89281   0.00000  Uiso   1.00
N549   N     0.43780   0.73383   0.83704   0.00000  Uiso   1.00
N550   N     0.39027   0.37315   0.95114   0.00000  Uiso   1.00
N551   N     0.08408   0.79883   0.98888   0.00000  Uiso   1.00
N552   N     0.50658   0.70523   0.93311   0.00000  Uiso   1.00
