data_job_02863
_audit_creation_date              2018-12-19
_audit_creation_method            'Materials Studio'
_symmetry_space_group_name_H-M    'P1'
_symmetry_Int_Tables_number       1
_symmetry_cell_setting            triclinic
loop_
_symmetry_equiv_pos_as_xyz
  x,y,z
_cell_length_a                    20.1279
_cell_length_b                    14.5965
_cell_length_c                    23.5355
_cell_angle_alpha                 90.0000
_cell_angle_beta                  94.7152
_cell_angle_gamma                 90.0000
loop_
_atom_site_label
_atom_site_type_symbol
_atom_site_fract_x
_atom_site_fract_y
_atom_site_fract_z
_atom_site_U_iso_or_equiv
_atom_site_adp_type
_atom_site_occupancy
C1     C     0.69911   0.50349   0.85467   0.00000  Uiso   1.00
C2     C     0.63129   0.48505   0.87685   0.00000  Uiso   1.00
C3     C     0.56999   0.50879   0.84952   0.00000  Uiso   1.00
C4     C     0.51370   0.48592   0.87683   0.00000  Uiso   1.00
C5     C     0.40765   0.46417   0.90327   0.00000  Uiso   1.00
C6     C     0.73872   0.55804   0.90120   0.00000  Uiso   1.00
C7     C     0.76775   0.64314   0.89433   0.00000  Uiso   1.00
C8     C     0.80191   0.68171   0.94213   0.00000  Uiso   1.00
C9     C     0.86269   0.77324   0.00635   0.00000  Uiso   1.00
C10    C     0.73351   0.41063   0.85249   0.00000  Uiso   1.00
C11    C     0.75817   0.37180   0.80467   0.00000  Uiso   1.00
C12    C     0.78795   0.28626   0.81146   0.00000  Uiso   1.00
C13    C     0.84064   0.14893   0.80005   0.00000  Uiso   1.00
C14    C     0.70816   0.42066   0.95175   0.00000  Uiso   1.00
C15    C     0.63621   0.44006   0.92959   0.00000  Uiso   1.00
C16    C     0.58000   0.41714   0.95694   0.00000  Uiso   1.00
C17    C     0.51862   0.44084   0.92965   0.00000  Uiso   1.00
C18    C     0.74364   0.51305   0.95393   0.00000  Uiso   1.00
C19    C     0.77776   0.55149   0.00175   0.00000  Uiso   1.00
C20    C     0.80683   0.63664   0.99496   0.00000  Uiso   1.00
C21    C     0.73843   0.36563   0.90522   0.00000  Uiso   1.00
C22    C     0.76818   0.28015   0.91208   0.00000  Uiso   1.00
C23    C     0.79288   0.24119   0.86429   0.00000  Uiso   1.00
H24    H     0.69528   0.53852   0.81362   0.00000  Uiso   1.00
H25    H     0.56620   0.54362   0.80872   0.00000  Uiso   1.00
H26    H     0.76394   0.67794   0.85352   0.00000  Uiso   1.00
H27    H     0.75436   0.40664   0.76387   0.00000  Uiso   1.00
H28    H     0.42527   0.52945   0.82655   0.00000  Uiso   1.00
H29    H     0.84223   0.81267   0.92101   0.00000  Uiso   1.00
H30    H     0.82203   0.24057   0.73197   0.00000  Uiso   1.00
H31    H     0.71199   0.38563   0.99281   0.00000  Uiso   1.00
H32    H     0.58382   0.38232   0.99774   0.00000  Uiso   1.00
H33    H     0.78156   0.51665   0.04255   0.00000  Uiso   1.00
H34    H     0.77198   0.24535   0.95290   0.00000  Uiso   1.00
H35    H     0.43956   0.39854   0.97998   0.00000  Uiso   1.00
H36    H     0.85653   0.68176   0.07444   0.00000  Uiso   1.00
H37    H     0.83632   0.10966   0.88539   0.00000  Uiso   1.00
O38    O     0.34780   0.46461   0.90329   0.00000  Uiso   1.00
O39    O     0.89485   0.83617   0.02721   0.00000  Uiso   1.00
O40    O     0.86834   0.08560   0.77919   0.00000  Uiso   1.00
N41    N     0.44622   0.49908   0.86198   0.00000  Uiso   1.00
N42    N     0.83604   0.76388   0.95030   0.00000  Uiso   1.00
N43    N     0.81717   0.22903   0.77356   0.00000  Uiso   1.00
N44    N     0.45391   0.42864   0.94453   0.00000  Uiso   1.00
N45    N     0.84374   0.69344   0.03285   0.00000  Uiso   1.00
N46    N     0.82487   0.15858   0.85612   0.00000  Uiso   1.00
C47    C     0.19911   0.00349   0.85467   0.00000  Uiso   1.00
C48    C     0.13129   0.98505   0.87685   0.00000  Uiso   1.00
C49    C     0.06999   0.00879   0.84952   0.00000  Uiso   1.00
C50    C     0.01370   0.98592   0.87683   0.00000  Uiso   1.00
C51    C     0.90765   0.96417   0.90327   0.00000  Uiso   1.00
C52    C     0.23872   0.05804   0.90120   0.00000  Uiso   1.00
C53    C     0.26775   0.14314   0.89433   0.00000  Uiso   1.00
C54    C     0.30191   0.18171   0.94213   0.00000  Uiso   1.00
C55    C     0.36269   0.27324   0.00635   0.00000  Uiso   1.00
C56    C     0.23351   0.91063   0.85249   0.00000  Uiso   1.00
C57    C     0.25817   0.87180   0.80467   0.00000  Uiso   1.00
C58    C     0.28795   0.78626   0.81146   0.00000  Uiso   1.00
C59    C     0.34064   0.64893   0.80005   0.00000  Uiso   1.00
C60    C     0.20816   0.92066   0.95175   0.00000  Uiso   1.00
C61    C     0.13621   0.94006   0.92959   0.00000  Uiso   1.00
C62    C     0.08000   0.91714   0.95694   0.00000  Uiso   1.00
C63    C     0.01862   0.94084   0.92965   0.00000  Uiso   1.00
C64    C     0.24364   0.01305   0.95393   0.00000  Uiso   1.00
C65    C     0.27776   0.05149   0.00175   0.00000  Uiso   1.00
C66    C     0.30683   0.13664   0.99496   0.00000  Uiso   1.00
C67    C     0.23843   0.86563   0.90522   0.00000  Uiso   1.00
C68    C     0.26818   0.78015   0.91208   0.00000  Uiso   1.00
C69    C     0.29288   0.74119   0.86429   0.00000  Uiso   1.00
H70    H     0.19528   0.03852   0.81362   0.00000  Uiso   1.00
H71    H     0.06620   0.04362   0.80872   0.00000  Uiso   1.00
H72    H     0.26394   0.17794   0.85352   0.00000  Uiso   1.00
H73    H     0.25436   0.90664   0.76387   0.00000  Uiso   1.00
H74    H     0.92527   0.02945   0.82655   0.00000  Uiso   1.00
H75    H     0.34223   0.31267   0.92101   0.00000  Uiso   1.00
H76    H     0.32203   0.74057   0.73197   0.00000  Uiso   1.00
H77    H     0.21199   0.88563   0.99281   0.00000  Uiso   1.00
H78    H     0.08382   0.88232   0.99774   0.00000  Uiso   1.00
H79    H     0.28156   0.01665   0.04255   0.00000  Uiso   1.00
H80    H     0.27198   0.74535   0.95290   0.00000  Uiso   1.00
H81    H     0.93956   0.89854   0.97998   0.00000  Uiso   1.00
H82    H     0.35653   0.18176   0.07444   0.00000  Uiso   1.00
H83    H     0.33632   0.60966   0.88539   0.00000  Uiso   1.00
O84    O     0.84780   0.96461   0.90329   0.00000  Uiso   1.00
O85    O     0.39485   0.33617   0.02721   0.00000  Uiso   1.00
O86    O     0.36834   0.58560   0.77919   0.00000  Uiso   1.00
N87    N     0.94622   0.99908   0.86198   0.00000  Uiso   1.00
N88    N     0.33604   0.26388   0.95030   0.00000  Uiso   1.00
N89    N     0.31717   0.72903   0.77356   0.00000  Uiso   1.00
N90    N     0.95391   0.92864   0.94453   0.00000  Uiso   1.00
N91    N     0.34374   0.19344   0.03285   0.00000  Uiso   1.00
N92    N     0.32487   0.65858   0.85612   0.00000  Uiso   1.00
C93    C     0.30089   0.50349   0.64533   0.00000  Uiso   1.00
C94    C     0.36871   0.48505   0.62315   0.00000  Uiso   1.00
C95    C     0.43001   0.50879   0.65048   0.00000  Uiso   1.00
C96    C     0.48630   0.48592   0.62317   0.00000  Uiso   1.00
C97    C     0.59235   0.46417   0.59673   0.00000  Uiso   1.00
C98    C     0.26128   0.55804   0.59880   0.00000  Uiso   1.00
C99    C     0.23225   0.64314   0.60567   0.00000  Uiso   1.00
C100   C     0.19809   0.68171   0.55787   0.00000  Uiso   1.00
C101   C     0.13731   0.77324   0.49365   0.00000  Uiso   1.00
C102   C     0.26649   0.41063   0.64751   0.00000  Uiso   1.00
C103   C     0.24183   0.37180   0.69533   0.00000  Uiso   1.00
C104   C     0.21205   0.28626   0.68854   0.00000  Uiso   1.00
C105   C     0.15936   0.14893   0.69995   0.00000  Uiso   1.00
C106   C     0.29184   0.42066   0.54825   0.00000  Uiso   1.00
C107   C     0.36379   0.44006   0.57041   0.00000  Uiso   1.00
C108   C     0.42000   0.41714   0.54306   0.00000  Uiso   1.00
C109   C     0.48138   0.44084   0.57035   0.00000  Uiso   1.00
C110   C     0.25636   0.51305   0.54607   0.00000  Uiso   1.00
C111   C     0.22224   0.55149   0.49825   0.00000  Uiso   1.00
C112   C     0.19317   0.63664   0.50504   0.00000  Uiso   1.00
C113   C     0.26157   0.36563   0.59478   0.00000  Uiso   1.00
C114   C     0.23182   0.28015   0.58792   0.00000  Uiso   1.00
C115   C     0.20712   0.24119   0.63571   0.00000  Uiso   1.00
H116   H     0.30472   0.53852   0.68638   0.00000  Uiso   1.00
H117   H     0.43380   0.54362   0.69128   0.00000  Uiso   1.00
H118   H     0.23606   0.67794   0.64648   0.00000  Uiso   1.00
H119   H     0.24564   0.40664   0.73613   0.00000  Uiso   1.00
H120   H     0.57473   0.52945   0.67345   0.00000  Uiso   1.00
H121   H     0.15777   0.81267   0.57899   0.00000  Uiso   1.00
H122   H     0.17797   0.24057   0.76803   0.00000  Uiso   1.00
H123   H     0.28801   0.38563   0.50719   0.00000  Uiso   1.00
H124   H     0.41618   0.38232   0.50226   0.00000  Uiso   1.00
H125   H     0.21844   0.51665   0.45745   0.00000  Uiso   1.00
H126   H     0.22802   0.24535   0.54710   0.00000  Uiso   1.00
H127   H     0.56044   0.39854   0.52002   0.00000  Uiso   1.00
H128   H     0.14347   0.68176   0.42556   0.00000  Uiso   1.00
H129   H     0.16368   0.10966   0.61461   0.00000  Uiso   1.00
O130   O     0.65220   0.46461   0.59671   0.00000  Uiso   1.00
O131   O     0.10515   0.83617   0.47279   0.00000  Uiso   1.00
O132   O     0.13166   0.08560   0.72081   0.00000  Uiso   1.00
N133   N     0.55378   0.49908   0.63802   0.00000  Uiso   1.00
N134   N     0.16396   0.76388   0.54970   0.00000  Uiso   1.00
N135   N     0.18283   0.22903   0.72644   0.00000  Uiso   1.00
N136   N     0.54609   0.42864   0.55547   0.00000  Uiso   1.00
N137   N     0.15626   0.69344   0.46715   0.00000  Uiso   1.00
N138   N     0.17513   0.15858   0.64388   0.00000  Uiso   1.00
C139   C     0.80089   0.00349   0.64533   0.00000  Uiso   1.00
C140   C     0.86871   0.98505   0.62315   0.00000  Uiso   1.00
C141   C     0.93001   0.00879   0.65048   0.00000  Uiso   1.00
C142   C     0.98630   0.98592   0.62317   0.00000  Uiso   1.00
C143   C     0.09235   0.96417   0.59673   0.00000  Uiso   1.00
C144   C     0.76128   0.05804   0.59880   0.00000  Uiso   1.00
C145   C     0.73225   0.14314   0.60567   0.00000  Uiso   1.00
C146   C     0.69809   0.18171   0.55787   0.00000  Uiso   1.00
C147   C     0.63731   0.27324   0.49365   0.00000  Uiso   1.00
C148   C     0.76649   0.91063   0.64751   0.00000  Uiso   1.00
C149   C     0.74183   0.87180   0.69533   0.00000  Uiso   1.00
C150   C     0.71205   0.78626   0.68854   0.00000  Uiso   1.00
C151   C     0.65936   0.64893   0.69995   0.00000  Uiso   1.00
C152   C     0.79184   0.92066   0.54825   0.00000  Uiso   1.00
C153   C     0.86379   0.94006   0.57041   0.00000  Uiso   1.00
C154   C     0.92000   0.91714   0.54306   0.00000  Uiso   1.00
C155   C     0.98138   0.94084   0.57035   0.00000  Uiso   1.00
C156   C     0.75636   0.01305   0.54607   0.00000  Uiso   1.00
C157   C     0.72224   0.05149   0.49825   0.00000  Uiso   1.00
C158   C     0.69317   0.13664   0.50504   0.00000  Uiso   1.00
C159   C     0.76157   0.86563   0.59478   0.00000  Uiso   1.00
C160   C     0.73182   0.78015   0.58792   0.00000  Uiso   1.00
C161   C     0.70712   0.74119   0.63571   0.00000  Uiso   1.00
H162   H     0.80472   0.03852   0.68638   0.00000  Uiso   1.00
H163   H     0.93380   0.04362   0.69128   0.00000  Uiso   1.00
H164   H     0.73606   0.17794   0.64648   0.00000  Uiso   1.00
H165   H     0.74564   0.90664   0.73613   0.00000  Uiso   1.00
H166   H     0.07473   0.02945   0.67345   0.00000  Uiso   1.00
H167   H     0.65777   0.31267   0.57899   0.00000  Uiso   1.00
H168   H     0.67797   0.74057   0.76803   0.00000  Uiso   1.00
H169   H     0.78801   0.88563   0.50719   0.00000  Uiso   1.00
H170   H     0.91618   0.88232   0.50226   0.00000  Uiso   1.00
H171   H     0.71844   0.01665   0.45745   0.00000  Uiso   1.00
H172   H     0.72802   0.74535   0.54710   0.00000  Uiso   1.00
H173   H     0.06044   0.89854   0.52002   0.00000  Uiso   1.00
H174   H     0.64347   0.18176   0.42556   0.00000  Uiso   1.00
H175   H     0.66368   0.60966   0.61461   0.00000  Uiso   1.00
O176   O     0.15220   0.96461   0.59671   0.00000  Uiso   1.00
O177   O     0.60515   0.33617   0.47279   0.00000  Uiso   1.00
O178   O     0.63166   0.58560   0.72081   0.00000  Uiso   1.00
N179   N     0.05378   0.99908   0.63802   0.00000  Uiso   1.00
N180   N     0.66396   0.26388   0.54970   0.00000  Uiso   1.00
N181   N     0.68283   0.72903   0.72644   0.00000  Uiso   1.00
N182   N     0.04609   0.92864   0.55547   0.00000  Uiso   1.00
N183   N     0.65626   0.19344   0.46715   0.00000  Uiso   1.00
N184   N     0.67513   0.65858   0.64388   0.00000  Uiso   1.00
C185   C     0.30089   0.49651   0.14533   0.00000  Uiso   1.00
C186   C     0.36871   0.51495   0.12315   0.00000  Uiso   1.00
C187   C     0.43001   0.49121   0.15048   0.00000  Uiso   1.00
C188   C     0.48630   0.51408   0.12317   0.00000  Uiso   1.00
C189   C     0.59235   0.53583   0.09673   0.00000  Uiso   1.00
C190   C     0.26128   0.44196   0.09880   0.00000  Uiso   1.00
C191   C     0.23225   0.35686   0.10567   0.00000  Uiso   1.00
C192   C     0.19809   0.31829   0.05787   0.00000  Uiso   1.00
C193   C     0.13731   0.22676   0.99365   0.00000  Uiso   1.00
C194   C     0.26649   0.58937   0.14751   0.00000  Uiso   1.00
C195   C     0.24183   0.62820   0.19533   0.00000  Uiso   1.00
C196   C     0.21205   0.71374   0.18854   0.00000  Uiso   1.00
C197   C     0.15936   0.85107   0.19995   0.00000  Uiso   1.00
C198   C     0.29184   0.57934   0.04825   0.00000  Uiso   1.00
C199   C     0.36379   0.55994   0.07041   0.00000  Uiso   1.00
C200   C     0.42000   0.58286   0.04306   0.00000  Uiso   1.00
C201   C     0.48138   0.55916   0.07035   0.00000  Uiso   1.00
C202   C     0.25636   0.48695   0.04607   0.00000  Uiso   1.00
C203   C     0.22224   0.44851   0.99825   0.00000  Uiso   1.00
C204   C     0.19317   0.36336   0.00504   0.00000  Uiso   1.00
C205   C     0.26157   0.63437   0.09478   0.00000  Uiso   1.00
C206   C     0.23182   0.71985   0.08792   0.00000  Uiso   1.00
C207   C     0.20712   0.75881   0.13571   0.00000  Uiso   1.00
H208   H     0.30472   0.46148   0.18638   0.00000  Uiso   1.00
H209   H     0.43380   0.45638   0.19128   0.00000  Uiso   1.00
H210   H     0.23606   0.32206   0.14648   0.00000  Uiso   1.00
H211   H     0.24564   0.59336   0.23613   0.00000  Uiso   1.00
H212   H     0.57473   0.47055   0.17345   0.00000  Uiso   1.00
H213   H     0.15777   0.18733   0.07899   0.00000  Uiso   1.00
H214   H     0.17797   0.75943   0.26803   0.00000  Uiso   1.00
H215   H     0.28801   0.61437   0.00719   0.00000  Uiso   1.00
H216   H     0.41618   0.61768   0.00226   0.00000  Uiso   1.00
H217   H     0.21844   0.48335   0.95745   0.00000  Uiso   1.00
H218   H     0.22802   0.75465   0.04710   0.00000  Uiso   1.00
H219   H     0.56044   0.60146   0.02002   0.00000  Uiso   1.00
H220   H     0.14347   0.31824   0.92556   0.00000  Uiso   1.00
H221   H     0.16368   0.89034   0.11461   0.00000  Uiso   1.00
O222   O     0.65220   0.53539   0.09671   0.00000  Uiso   1.00
O223   O     0.10515   0.16383   0.97279   0.00000  Uiso   1.00
O224   O     0.13166   0.91440   0.22081   0.00000  Uiso   1.00
N225   N     0.55378   0.50092   0.13802   0.00000  Uiso   1.00
N226   N     0.16396   0.23612   0.04970   0.00000  Uiso   1.00
N227   N     0.18283   0.77097   0.22644   0.00000  Uiso   1.00
N228   N     0.54609   0.57136   0.05547   0.00000  Uiso   1.00
N229   N     0.15626   0.30656   0.96715   0.00000  Uiso   1.00
N230   N     0.17513   0.84142   0.14388   0.00000  Uiso   1.00
C231   C     0.80089   0.99651   0.14533   0.00000  Uiso   1.00
C232   C     0.86871   0.01495   0.12315   0.00000  Uiso   1.00
C233   C     0.93001   0.99121   0.15048   0.00000  Uiso   1.00
C234   C     0.98630   0.01408   0.12317   0.00000  Uiso   1.00
C235   C     0.09235   0.03583   0.09673   0.00000  Uiso   1.00
C236   C     0.76128   0.94196   0.09880   0.00000  Uiso   1.00
C237   C     0.73225   0.85686   0.10567   0.00000  Uiso   1.00
C238   C     0.69809   0.81829   0.05787   0.00000  Uiso   1.00
C239   C     0.63731   0.72676   0.99365   0.00000  Uiso   1.00
C240   C     0.76649   0.08937   0.14751   0.00000  Uiso   1.00
C241   C     0.74183   0.12820   0.19533   0.00000  Uiso   1.00
C242   C     0.71205   0.21374   0.18854   0.00000  Uiso   1.00
C243   C     0.65936   0.35107   0.19995   0.00000  Uiso   1.00
C244   C     0.79184   0.07934   0.04825   0.00000  Uiso   1.00
C245   C     0.86379   0.05994   0.07041   0.00000  Uiso   1.00
C246   C     0.92000   0.08286   0.04306   0.00000  Uiso   1.00
C247   C     0.98138   0.05916   0.07035   0.00000  Uiso   1.00
C248   C     0.75636   0.98695   0.04607   0.00000  Uiso   1.00
C249   C     0.72224   0.94851   0.99825   0.00000  Uiso   1.00
C250   C     0.69317   0.86336   0.00504   0.00000  Uiso   1.00
C251   C     0.76157   0.13437   0.09478   0.00000  Uiso   1.00
C252   C     0.73182   0.21985   0.08792   0.00000  Uiso   1.00
C253   C     0.70712   0.25881   0.13571   0.00000  Uiso   1.00
H254   H     0.80472   0.96148   0.18638   0.00000  Uiso   1.00
H255   H     0.93380   0.95638   0.19128   0.00000  Uiso   1.00
H256   H     0.73606   0.82206   0.14648   0.00000  Uiso   1.00
H257   H     0.74564   0.09336   0.23613   0.00000  Uiso   1.00
H258   H     0.07473   0.97055   0.17345   0.00000  Uiso   1.00
H259   H     0.65777   0.68733   0.07899   0.00000  Uiso   1.00
H260   H     0.67797   0.25943   0.26803   0.00000  Uiso   1.00
H261   H     0.78801   0.11437   0.00719   0.00000  Uiso   1.00
H262   H     0.91618   0.11768   0.00226   0.00000  Uiso   1.00
H263   H     0.71844   0.98335   0.95745   0.00000  Uiso   1.00
H264   H     0.72802   0.25465   0.04710   0.00000  Uiso   1.00
H265   H     0.06044   0.10146   0.02002   0.00000  Uiso   1.00
H266   H     0.64347   0.81824   0.92556   0.00000  Uiso   1.00
H267   H     0.66368   0.39034   0.11461   0.00000  Uiso   1.00
O268   O     0.15220   0.03539   0.09671   0.00000  Uiso   1.00
O269   O     0.60515   0.66383   0.97279   0.00000  Uiso   1.00
O270   O     0.63166   0.41440   0.22081   0.00000  Uiso   1.00
N271   N     0.05378   0.00092   0.13802   0.00000  Uiso   1.00
N272   N     0.66396   0.73612   0.04970   0.00000  Uiso   1.00
N273   N     0.68283   0.27097   0.22644   0.00000  Uiso   1.00
N274   N     0.04609   0.07136   0.05547   0.00000  Uiso   1.00
N275   N     0.65626   0.80656   0.96715   0.00000  Uiso   1.00
N276   N     0.67513   0.34142   0.14388   0.00000  Uiso   1.00
C277   C     0.69911   0.49651   0.35467   0.00000  Uiso   1.00
C278   C     0.63129   0.51495   0.37685   0.00000  Uiso   1.00
C279   C     0.56999   0.49121   0.34952   0.00000  Uiso   1.00
C280   C     0.51370   0.51408   0.37683   0.00000  Uiso   1.00
C281   C     0.40765   0.53583   0.40327   0.00000  Uiso   1.00
C282   C     0.73872   0.44196   0.40120   0.00000  Uiso   1.00
C283   C     0.76775   0.35686   0.39433   0.00000  Uiso   1.00
C284   C     0.80191   0.31829   0.44213   0.00000  Uiso   1.00
C285   C     0.86269   0.22676   0.50635   0.00000  Uiso   1.00
C286   C     0.73351   0.58937   0.35249   0.00000  Uiso   1.00
C287   C     0.75817   0.62820   0.30467   0.00000  Uiso   1.00
C288   C     0.78795   0.71374   0.31146   0.00000  Uiso   1.00
C289   C     0.84064   0.85107   0.30005   0.00000  Uiso   1.00
C290   C     0.70816   0.57934   0.45175   0.00000  Uiso   1.00
C291   C     0.63621   0.55994   0.42959   0.00000  Uiso   1.00
C292   C     0.58000   0.58286   0.45694   0.00000  Uiso   1.00
C293   C     0.51862   0.55916   0.42965   0.00000  Uiso   1.00
C294   C     0.74364   0.48695   0.45393   0.00000  Uiso   1.00
C295   C     0.77776   0.44851   0.50175   0.00000  Uiso   1.00
C296   C     0.80683   0.36336   0.49496   0.00000  Uiso   1.00
C297   C     0.73843   0.63437   0.40522   0.00000  Uiso   1.00
C298   C     0.76818   0.71985   0.41208   0.00000  Uiso   1.00
C299   C     0.79288   0.75881   0.36429   0.00000  Uiso   1.00
H300   H     0.69528   0.46148   0.31362   0.00000  Uiso   1.00
H301   H     0.56620   0.45638   0.30872   0.00000  Uiso   1.00
H302   H     0.76394   0.32206   0.35352   0.00000  Uiso   1.00
H303   H     0.75436   0.59336   0.26387   0.00000  Uiso   1.00
H304   H     0.42527   0.47055   0.32655   0.00000  Uiso   1.00
H305   H     0.84223   0.18733   0.42101   0.00000  Uiso   1.00
H306   H     0.82203   0.75943   0.23197   0.00000  Uiso   1.00
H307   H     0.71199   0.61437   0.49281   0.00000  Uiso   1.00
H308   H     0.58382   0.61768   0.49774   0.00000  Uiso   1.00
H309   H     0.78156   0.48335   0.54255   0.00000  Uiso   1.00
H310   H     0.77198   0.75465   0.45290   0.00000  Uiso   1.00
H311   H     0.43956   0.60146   0.47998   0.00000  Uiso   1.00
H312   H     0.85653   0.31824   0.57444   0.00000  Uiso   1.00
H313   H     0.83632   0.89034   0.38539   0.00000  Uiso   1.00
O314   O     0.34780   0.53539   0.40329   0.00000  Uiso   1.00
O315   O     0.89485   0.16383   0.52721   0.00000  Uiso   1.00
O316   O     0.86834   0.91440   0.27919   0.00000  Uiso   1.00
N317   N     0.44622   0.50092   0.36198   0.00000  Uiso   1.00
N318   N     0.83604   0.23612   0.45030   0.00000  Uiso   1.00
N319   N     0.81717   0.77097   0.27356   0.00000  Uiso   1.00
N320   N     0.45391   0.57136   0.44453   0.00000  Uiso   1.00
N321   N     0.84374   0.30656   0.53285   0.00000  Uiso   1.00
N322   N     0.82487   0.84142   0.35612   0.00000  Uiso   1.00
C323   C     0.19911   0.99651   0.35467   0.00000  Uiso   1.00
C324   C     0.13129   0.01495   0.37685   0.00000  Uiso   1.00
C325   C     0.06999   0.99121   0.34952   0.00000  Uiso   1.00
C326   C     0.01370   0.01408   0.37683   0.00000  Uiso   1.00
C327   C     0.90765   0.03583   0.40327   0.00000  Uiso   1.00
C328   C     0.23872   0.94196   0.40120   0.00000  Uiso   1.00
C329   C     0.26775   0.85686   0.39433   0.00000  Uiso   1.00
C330   C     0.30191   0.81829   0.44213   0.00000  Uiso   1.00
C331   C     0.36269   0.72676   0.50635   0.00000  Uiso   1.00
C332   C     0.23351   0.08937   0.35249   0.00000  Uiso   1.00
C333   C     0.25817   0.12820   0.30467   0.00000  Uiso   1.00
C334   C     0.28795   0.21374   0.31146   0.00000  Uiso   1.00
C335   C     0.34064   0.35107   0.30005   0.00000  Uiso   1.00
C336   C     0.20816   0.07934   0.45175   0.00000  Uiso   1.00
C337   C     0.13621   0.05994   0.42959   0.00000  Uiso   1.00
C338   C     0.08000   0.08286   0.45694   0.00000  Uiso   1.00
C339   C     0.01862   0.05916   0.42965   0.00000  Uiso   1.00
C340   C     0.24364   0.98695   0.45393   0.00000  Uiso   1.00
C341   C     0.27776   0.94851   0.50175   0.00000  Uiso   1.00
C342   C     0.30683   0.86336   0.49496   0.00000  Uiso   1.00
C343   C     0.23843   0.13437   0.40522   0.00000  Uiso   1.00
C344   C     0.26818   0.21985   0.41208   0.00000  Uiso   1.00
C345   C     0.29288   0.25881   0.36429   0.00000  Uiso   1.00
H346   H     0.19528   0.96148   0.31362   0.00000  Uiso   1.00
H347   H     0.06620   0.95638   0.30872   0.00000  Uiso   1.00
H348   H     0.26394   0.82206   0.35352   0.00000  Uiso   1.00
H349   H     0.25436   0.09336   0.26387   0.00000  Uiso   1.00
H350   H     0.92527   0.97055   0.32655   0.00000  Uiso   1.00
H351   H     0.34223   0.68733   0.42101   0.00000  Uiso   1.00
H352   H     0.32203   0.25943   0.23197   0.00000  Uiso   1.00
H353   H     0.21199   0.11437   0.49281   0.00000  Uiso   1.00
H354   H     0.08382   0.11768   0.49774   0.00000  Uiso   1.00
H355   H     0.28156   0.98335   0.54255   0.00000  Uiso   1.00
H356   H     0.27198   0.25465   0.45290   0.00000  Uiso   1.00
H357   H     0.93956   0.10146   0.47998   0.00000  Uiso   1.00
H358   H     0.35653   0.81824   0.57444   0.00000  Uiso   1.00
H359   H     0.33632   0.39034   0.38539   0.00000  Uiso   1.00
O360   O     0.84780   0.03539   0.40329   0.00000  Uiso   1.00
O361   O     0.39485   0.66383   0.52721   0.00000  Uiso   1.00
O362   O     0.36834   0.41440   0.27919   0.00000  Uiso   1.00
N363   N     0.94622   0.00092   0.36198   0.00000  Uiso   1.00
N364   N     0.33604   0.73612   0.45030   0.00000  Uiso   1.00
N365   N     0.31717   0.27097   0.27356   0.00000  Uiso   1.00
N366   N     0.95391   0.07136   0.44453   0.00000  Uiso   1.00
N367   N     0.34374   0.80656   0.53285   0.00000  Uiso   1.00
N368   N     0.32487   0.34142   0.35612   0.00000  Uiso   1.00
