data_job_05254
_audit_creation_date              2018-12-19
_audit_creation_method            'Materials Studio'
_symmetry_space_group_name_H-M    'P1'
_symmetry_Int_Tables_number       1
_symmetry_cell_setting            triclinic
loop_
_symmetry_equiv_pos_as_xyz
  x,y,z
_cell_length_a                    20.9480
_cell_length_b                    10.3946
_cell_length_c                    14.1512
_cell_angle_alpha                 90.0000
_cell_angle_beta                  133.1701
_cell_angle_gamma                 90.0000
loop_
_atom_site_label
_atom_site_type_symbol
_atom_site_fract_x
_atom_site_fract_y
_atom_site_fract_z
_atom_site_U_iso_or_equiv
_atom_site_adp_type
_atom_site_occupancy
C1     C     0.94596   0.71311   0.92289   0.00000  Uiso   1.00
C2     C     0.02533   0.62987   0.98024   0.00000  Uiso   1.00
C3     C     0.09313   0.60053   0.11050   0.00000  Uiso   1.00
C4     C     0.15976   0.52284   0.14341   0.00000  Uiso   1.00
C5     C     0.28321   0.40072   0.24678   0.00000  Uiso   1.00
C6     C     0.94513   0.82048   0.84862   0.00000  Uiso   1.00
C7     C     0.94550   0.95140   0.86822   0.00000  Uiso   1.00
C8     C     0.94461   0.03417   0.79032   0.00000  Uiso   1.00
C9     C     0.94349   0.20798   0.68929   0.00000  Uiso   1.00
C10    C     0.86587   0.63021   0.82110   0.00000  Uiso   1.00
C11    C     0.79958   0.60118   0.81753   0.00000  Uiso   1.00
C12    C     0.73194   0.52379   0.71643   0.00000  Uiso   1.00
C13    C     0.60776   0.40218   0.57268   0.00000  Uiso   1.00
C14    C     0.94370   0.62731   0.74967   0.00000  Uiso   1.00
C15    C     0.02410   0.58327   0.88615   0.00000  Uiso   1.00
C16    C     0.09064   0.50560   0.91887   0.00000  Uiso   1.00
C17    C     0.15853   0.47615   0.04916   0.00000  Uiso   1.00
C18    C     0.94391   0.77388   0.75454   0.00000  Uiso   1.00
C19    C     0.94301   0.85647   0.67658   0.00000  Uiso   1.00
C20    C     0.94338   0.98749   0.69606   0.00000  Uiso   1.00
C21    C     0.86465   0.58360   0.72702   0.00000  Uiso   1.00
C22    C     0.79710   0.50625   0.62590   0.00000  Uiso   1.00
C23    C     0.73072   0.47710   0.62218   0.00000  Uiso   1.00
H24    H     0.94691   0.74941   0.99613   0.00000  Uiso   1.00
H25    H     0.09406   0.63662   0.18328   0.00000  Uiso   1.00
H26    H     0.94644   0.98744   0.94103   0.00000  Uiso   1.00
H27    H     0.80055   0.63727   0.89035   0.00000  Uiso   1.00
H28    H     0.25668   0.49107   0.34929   0.00000  Uiso   1.00
H29    H     0.94539   0.23078   0.83845   0.00000  Uiso   1.00
H30    H     0.63774   0.49238   0.73159   0.00000  Uiso   1.00
H31    H     0.94275   0.59103   0.67642   0.00000  Uiso   1.00
H32    H     0.08968   0.46955   0.84604   0.00000  Uiso   1.00
H33    H     0.94206   0.82037   0.60378   0.00000  Uiso   1.00
H34    H     0.79617   0.47020   0.55311   0.00000  Uiso   1.00
H35    H     0.25312   0.35547   0.07558   0.00000  Uiso   1.00
H36    H     0.94183   0.09519   0.56473   0.00000  Uiso   1.00
H37    H     0.63419   0.35679   0.45788   0.00000  Uiso   1.00
O38    O     0.35164   0.34625   0.32979   0.00000  Uiso   1.00
O39    O     0.94322   0.31673   0.65957   0.00000  Uiso   1.00
O40    O     0.53961   0.34796   0.51938   0.00000  Uiso   1.00
N41    N     0.23567   0.47581   0.26159   0.00000  Uiso   1.00
N42    N     0.94465   0.16740   0.78400   0.00000  Uiso   1.00
N43    N     0.65701   0.47708   0.68408   0.00000  Uiso   1.00
N44    N     0.23376   0.40284   0.11431   0.00000  Uiso   1.00
N45    N     0.94273   0.09443   0.63672   0.00000  Uiso   1.00
N46    N     0.65510   0.40412   0.53679   0.00000  Uiso   1.00
C47    C     0.44251   0.87295   0.46469   0.00000  Uiso   1.00
C48    C     0.52272   0.95637   0.56486   0.00000  Uiso   1.00
C49    C     0.58900   0.98279   0.56782   0.00000  Uiso   1.00
C50    C     0.65676   0.06119   0.66739   0.00000  Uiso   1.00
C51    C     0.78113   0.18304   0.80879   0.00000  Uiso   1.00
C52    C     0.44322   0.76841   0.54102   0.00000  Uiso   1.00
C53    C     0.44265   0.63681   0.52390   0.00000  Uiso   1.00
C54    C     0.44346   0.55700   0.60340   0.00000  Uiso   1.00
C55    C     0.44434   0.38705   0.70771   0.00000  Uiso   1.00
C56    C     0.36327   0.95727   0.40580   0.00000  Uiso   1.00
C57    C     0.29546   0.98444   0.27500   0.00000  Uiso   1.00
C58    C     0.22895   0.06361   0.24065   0.00000  Uiso   1.00
C59    C     0.10569   0.18690   0.13501   0.00000  Uiso   1.00
C60    C     0.44496   0.96520   0.63628   0.00000  Uiso   1.00
C61    C     0.52405   0.00647   0.65806   0.00000  Uiso   1.00
C62    C     0.59172   0.08486   0.75766   0.00000  Uiso   1.00
C63    C     0.65809   0.11140   0.76076   0.00000  Uiso   1.00
C64    C     0.44455   0.81852   0.63421   0.00000  Uiso   1.00
C65    C     0.44536   0.73888   0.71375   0.00000  Uiso   1.00
C66    C     0.44480   0.60719   0.69677   0.00000  Uiso   1.00
C67    C     0.36460   0.00739   0.49900   0.00000  Uiso   1.00
C68    C     0.29818   0.08652   0.46484   0.00000  Uiso   1.00
C69    C     0.23028   0.11381   0.33401   0.00000  Uiso   1.00
H70    H     0.44147   0.83393   0.39214   0.00000  Uiso   1.00
H71    H     0.58795   0.94398   0.49568   0.00000  Uiso   1.00
H72    H     0.44161   0.59806   0.45177   0.00000  Uiso   1.00
H73    H     0.29445   0.94565   0.20290   0.00000  Uiso   1.00
H74    H     0.75096   0.08806   0.65160   0.00000  Uiso   1.00
H75    H     0.44236   0.35867   0.55898   0.00000  Uiso   1.00
H76    H     0.13204   0.09161   0.03420   0.00000  Uiso   1.00
H77    H     0.44599   0.00421   0.70885   0.00000  Uiso   1.00
H78    H     0.59273   0.12362   0.82977   0.00000  Uiso   1.00
H79    H     0.44639   0.77769   0.78585   0.00000  Uiso   1.00
H80    H     0.29923   0.12528   0.53699   0.00000  Uiso   1.00
H81    H     0.75484   0.23385   0.92277   0.00000  Uiso   1.00
H82    H     0.44623   0.50445   0.83014   0.00000  Uiso   1.00
H83    H     0.13592   0.23741   0.30536   0.00000  Uiso   1.00
O84    O     0.84937   0.23640   0.86104   0.00000  Uiso   1.00
O85    O     0.44447   0.27946   0.73950   0.00000  Uiso   1.00
O86    O     0.03735   0.24108   0.05101   0.00000  Uiso   1.00
N87    N     0.73173   0.10601   0.69881   0.00000  Uiso   1.00
N88    N     0.44322   0.42406   0.61223   0.00000  Uiso   1.00
N89    N     0.15308   0.10928   0.12160   0.00000  Uiso   1.00
N90    N     0.73382   0.18446   0.84472   0.00000  Uiso   1.00
N91    N     0.44530   0.50252   0.75814   0.00000  Uiso   1.00
N92    N     0.15517   0.18773   0.26751   0.00000  Uiso   1.00
C93    C     0.94596   0.28689   0.42289   0.00000  Uiso   1.00
C94    C     0.02533   0.37013   0.48024   0.00000  Uiso   1.00
C95    C     0.09313   0.39947   0.61050   0.00000  Uiso   1.00
C96    C     0.15976   0.47716   0.64341   0.00000  Uiso   1.00
C97    C     0.28321   0.59928   0.74678   0.00000  Uiso   1.00
C98    C     0.94513   0.17952   0.34862   0.00000  Uiso   1.00
C99    C     0.94550   0.04860   0.36822   0.00000  Uiso   1.00
C100   C     0.94461   0.96583   0.29032   0.00000  Uiso   1.00
C101   C     0.94349   0.79202   0.18929   0.00000  Uiso   1.00
C102   C     0.86587   0.36979   0.32110   0.00000  Uiso   1.00
C103   C     0.79958   0.39882   0.31753   0.00000  Uiso   1.00
C104   C     0.73194   0.47621   0.21643   0.00000  Uiso   1.00
C105   C     0.60776   0.59782   0.07268   0.00000  Uiso   1.00
C106   C     0.94370   0.37269   0.24967   0.00000  Uiso   1.00
C107   C     0.02410   0.41673   0.38615   0.00000  Uiso   1.00
C108   C     0.09064   0.49440   0.41887   0.00000  Uiso   1.00
C109   C     0.15853   0.52385   0.54916   0.00000  Uiso   1.00
C110   C     0.94391   0.22612   0.25454   0.00000  Uiso   1.00
C111   C     0.94301   0.14353   0.17658   0.00000  Uiso   1.00
C112   C     0.94338   0.01251   0.19606   0.00000  Uiso   1.00
C113   C     0.86465   0.41640   0.22702   0.00000  Uiso   1.00
C114   C     0.79710   0.49375   0.12590   0.00000  Uiso   1.00
C115   C     0.73072   0.52290   0.12218   0.00000  Uiso   1.00
H116   H     0.94691   0.25059   0.49613   0.00000  Uiso   1.00
H117   H     0.09406   0.36338   0.68328   0.00000  Uiso   1.00
H118   H     0.94644   0.01256   0.44103   0.00000  Uiso   1.00
H119   H     0.80055   0.36273   0.39035   0.00000  Uiso   1.00
H120   H     0.25668   0.50893   0.84929   0.00000  Uiso   1.00
H121   H     0.94539   0.76922   0.33845   0.00000  Uiso   1.00
H122   H     0.63774   0.50762   0.23159   0.00000  Uiso   1.00
H123   H     0.94275   0.40897   0.17642   0.00000  Uiso   1.00
H124   H     0.08968   0.53045   0.34604   0.00000  Uiso   1.00
H125   H     0.94206   0.17963   0.10378   0.00000  Uiso   1.00
H126   H     0.79617   0.52980   0.05311   0.00000  Uiso   1.00
H127   H     0.25312   0.64453   0.57558   0.00000  Uiso   1.00
H128   H     0.94183   0.90481   0.06473   0.00000  Uiso   1.00
H129   H     0.63419   0.64321   0.95788   0.00000  Uiso   1.00
O130   O     0.35164   0.65375   0.82979   0.00000  Uiso   1.00
O131   O     0.94322   0.68327   0.15957   0.00000  Uiso   1.00
O132   O     0.53961   0.65204   0.01938   0.00000  Uiso   1.00
N133   N     0.23567   0.52419   0.76159   0.00000  Uiso   1.00
N134   N     0.94465   0.83260   0.28400   0.00000  Uiso   1.00
N135   N     0.65701   0.52292   0.18408   0.00000  Uiso   1.00
N136   N     0.23376   0.59716   0.61431   0.00000  Uiso   1.00
N137   N     0.94273   0.90557   0.13672   0.00000  Uiso   1.00
N138   N     0.65510   0.59588   0.03679   0.00000  Uiso   1.00
C139   C     0.44251   0.12705   0.96469   0.00000  Uiso   1.00
C140   C     0.52272   0.04363   0.06486   0.00000  Uiso   1.00
C141   C     0.58900   0.01721   0.06782   0.00000  Uiso   1.00
C142   C     0.65676   0.93881   0.16739   0.00000  Uiso   1.00
C143   C     0.78113   0.81696   0.30879   0.00000  Uiso   1.00
C144   C     0.44322   0.23159   0.04102   0.00000  Uiso   1.00
C145   C     0.44265   0.36319   0.02390   0.00000  Uiso   1.00
C146   C     0.44346   0.44300   0.10340   0.00000  Uiso   1.00
C147   C     0.44434   0.61295   0.20771   0.00000  Uiso   1.00
C148   C     0.36327   0.04273   0.90580   0.00000  Uiso   1.00
C149   C     0.29546   0.01556   0.77500   0.00000  Uiso   1.00
C150   C     0.22895   0.93639   0.74065   0.00000  Uiso   1.00
C151   C     0.10569   0.81310   0.63501   0.00000  Uiso   1.00
C152   C     0.44496   0.03480   0.13628   0.00000  Uiso   1.00
C153   C     0.52405   0.99353   0.15806   0.00000  Uiso   1.00
C154   C     0.59172   0.91514   0.25766   0.00000  Uiso   1.00
C155   C     0.65809   0.88860   0.26076   0.00000  Uiso   1.00
C156   C     0.44455   0.18148   0.13421   0.00000  Uiso   1.00
C157   C     0.44536   0.26112   0.21375   0.00000  Uiso   1.00
C158   C     0.44480   0.39281   0.19677   0.00000  Uiso   1.00
C159   C     0.36460   0.99261   0.99900   0.00000  Uiso   1.00
C160   C     0.29818   0.91348   0.96484   0.00000  Uiso   1.00
C161   C     0.23028   0.88619   0.83401   0.00000  Uiso   1.00
H162   H     0.44147   0.16607   0.89214   0.00000  Uiso   1.00
H163   H     0.58795   0.05602   0.99568   0.00000  Uiso   1.00
H164   H     0.44161   0.40194   0.95177   0.00000  Uiso   1.00
H165   H     0.29445   0.05435   0.70290   0.00000  Uiso   1.00
H166   H     0.75096   0.91194   0.15160   0.00000  Uiso   1.00
H167   H     0.44236   0.64133   0.05898   0.00000  Uiso   1.00
H168   H     0.13204   0.90839   0.53420   0.00000  Uiso   1.00
H169   H     0.44599   0.99579   0.20885   0.00000  Uiso   1.00
H170   H     0.59273   0.87638   0.32977   0.00000  Uiso   1.00
H171   H     0.44639   0.22231   0.28585   0.00000  Uiso   1.00
H172   H     0.29923   0.87472   0.03699   0.00000  Uiso   1.00
H173   H     0.75484   0.76615   0.42277   0.00000  Uiso   1.00
H174   H     0.44623   0.49555   0.33014   0.00000  Uiso   1.00
H175   H     0.13592   0.76259   0.80536   0.00000  Uiso   1.00
O176   O     0.84937   0.76360   0.36104   0.00000  Uiso   1.00
O177   O     0.44447   0.72054   0.23950   0.00000  Uiso   1.00
O178   O     0.03735   0.75892   0.55101   0.00000  Uiso   1.00
N179   N     0.73173   0.89399   0.19881   0.00000  Uiso   1.00
N180   N     0.44322   0.57594   0.11223   0.00000  Uiso   1.00
N181   N     0.15308   0.89072   0.62160   0.00000  Uiso   1.00
N182   N     0.73382   0.81554   0.34472   0.00000  Uiso   1.00
N183   N     0.44530   0.49748   0.25814   0.00000  Uiso   1.00
N184   N     0.15517   0.81227   0.76751   0.00000  Uiso   1.00
