data_job_03693
_audit_creation_date              2018-12-19
_audit_creation_method            'Materials Studio'
_symmetry_space_group_name_H-M    'P1'
_symmetry_Int_Tables_number       1
_symmetry_cell_setting            triclinic
loop_
_symmetry_equiv_pos_as_xyz
  x,y,z
_cell_length_a                    14.2076
_cell_length_b                    13.2145
_cell_length_c                    12.5992
_cell_angle_alpha                 90.0000
_cell_angle_beta                  90.0000
_cell_angle_gamma                 90.0000
loop_
_atom_site_label
_atom_site_type_symbol
_atom_site_fract_x
_atom_site_fract_y
_atom_site_fract_z
_atom_site_U_iso_or_equiv
_atom_site_adp_type
_atom_site_occupancy
C1     C     0.96553   0.65947   0.97019   0.00000  Uiso   1.00
C2     C     0.02597   0.71708   0.04989   0.00000  Uiso   1.00
C3     C     0.06314   0.67773   0.14302   0.00000  Uiso   1.00
C4     C     0.11657   0.74269   0.20524   0.00000  Uiso   1.00
C5     C     0.20800   0.81684   0.33358   0.00000  Uiso   1.00
C6     C     0.87454   0.71977   0.95922   0.00000  Uiso   1.00
C7     C     0.78438   0.68268   0.97610   0.00000  Uiso   1.00
C8     C     0.71033   0.74991   0.96198   0.00000  Uiso   1.00
C9     C     0.56665   0.82822   0.94948   0.00000  Uiso   1.00
C10    C     0.01581   0.66858   0.86368   0.00000  Uiso   1.00
C11    C     0.04441   0.58844   0.80021   0.00000  Uiso   1.00
C12    C     0.08928   0.61256   0.70564   0.00000  Uiso   1.00
C13    C     0.16494   0.61138   0.54480   0.00000  Uiso   1.00
C14    C     0.99432   0.84481   0.91508   0.00000  Uiso   1.00
C15    C     0.04161   0.81775   0.01996   0.00000  Uiso   1.00
C16    C     0.09500   0.88278   0.08205   0.00000  Uiso   1.00
C17    C     0.13224   0.84354   0.17525   0.00000  Uiso   1.00
C18    C     0.89017   0.82044   0.92929   0.00000  Uiso   1.00
C19    C     0.81624   0.88774   0.91513   0.00000  Uiso   1.00
C20    C     0.72600   0.85076   0.93199   0.00000  Uiso   1.00
C21    C     0.03145   0.76924   0.83375   0.00000  Uiso   1.00
C22    C     0.07627   0.79349   0.73925   0.00000  Uiso   1.00
C23    C     0.10495   0.71341   0.67565   0.00000  Uiso   1.00
H24    H     0.95335   0.58110   0.99349   0.00000  Uiso   1.00
H25    H     0.05101   0.59982   0.16616   0.00000  Uiso   1.00
H26    H     0.77230   0.60478   0.99925   0.00000  Uiso   1.00
H27    H     0.03229   0.51055   0.82340   0.00000  Uiso   1.00
H28    H     0.16616   0.66499   0.34442   0.00000  Uiso   1.00
H29    H     0.57848   0.67542   0.99246   0.00000  Uiso   1.00
H30    H     0.12672   0.47672   0.62163   0.00000  Uiso   1.00
H31    H     0.00650   0.92319   0.89177   0.00000  Uiso   1.00
H32    H     0.10709   0.96068   0.05887   0.00000  Uiso   1.00
H33    H     0.82837   0.96563   0.89196   0.00000  Uiso   1.00
H34    H     0.08836   0.87140   0.71611   0.00000  Uiso   1.00
H35    H     0.21167   0.95788   0.25734   0.00000  Uiso   1.00
H36    H     0.62398   0.96830   0.90537   0.00000  Uiso   1.00
H37    H     0.17223   0.76961   0.53455   0.00000  Uiso   1.00
O38    O     0.25410   0.82994   0.41265   0.00000  Uiso   1.00
O39    O     0.48308   0.84361   0.95087   0.00000  Uiso   1.00
O40    O     0.20237   0.58292   0.46436   0.00000  Uiso   1.00
N41    N     0.16309   0.72877   0.30098   0.00000  Uiso   1.00
N42    N     0.61363   0.73852   0.97194   0.00000  Uiso   1.00
N43    N     0.12618   0.55276   0.62523   0.00000  Uiso   1.00
N44    N     0.18757   0.88637   0.25413   0.00000  Uiso   1.00
N45    N     0.63812   0.89612   0.92508   0.00000  Uiso   1.00
N46    N     0.15066   0.71036   0.57837   0.00000  Uiso   1.00
C47    C     0.03447   0.34053   0.47019   0.00000  Uiso   1.00
C48    C     0.97403   0.28292   0.54989   0.00000  Uiso   1.00
C49    C     0.93686   0.32227   0.64302   0.00000  Uiso   1.00
C50    C     0.88343   0.25731   0.70524   0.00000  Uiso   1.00
C51    C     0.79200   0.18316   0.83358   0.00000  Uiso   1.00
C52    C     0.12546   0.28023   0.45922   0.00000  Uiso   1.00
C53    C     0.21562   0.31732   0.47610   0.00000  Uiso   1.00
C54    C     0.28967   0.25009   0.46198   0.00000  Uiso   1.00
C55    C     0.43335   0.17178   0.44948   0.00000  Uiso   1.00
C56    C     0.98419   0.33142   0.36368   0.00000  Uiso   1.00
C57    C     0.95559   0.41156   0.30021   0.00000  Uiso   1.00
C58    C     0.91072   0.38744   0.20564   0.00000  Uiso   1.00
C59    C     0.83506   0.38862   0.04480   0.00000  Uiso   1.00
C60    C     0.00568   0.15519   0.41508   0.00000  Uiso   1.00
C61    C     0.95839   0.18225   0.51996   0.00000  Uiso   1.00
C62    C     0.90500   0.11722   0.58205   0.00000  Uiso   1.00
C63    C     0.86776   0.15646   0.67525   0.00000  Uiso   1.00
C64    C     0.10983   0.17956   0.42929   0.00000  Uiso   1.00
C65    C     0.18376   0.11226   0.41513   0.00000  Uiso   1.00
C66    C     0.27400   0.14924   0.43199   0.00000  Uiso   1.00
C67    C     0.96855   0.23076   0.33375   0.00000  Uiso   1.00
C68    C     0.92373   0.20651   0.23925   0.00000  Uiso   1.00
C69    C     0.89505   0.28659   0.17565   0.00000  Uiso   1.00
H70    H     0.04665   0.41890   0.49349   0.00000  Uiso   1.00
H71    H     0.94899   0.40018   0.66616   0.00000  Uiso   1.00
H72    H     0.22770   0.39522   0.49925   0.00000  Uiso   1.00
H73    H     0.96771   0.48945   0.32340   0.00000  Uiso   1.00
H74    H     0.83384   0.33501   0.84442   0.00000  Uiso   1.00
H75    H     0.42152   0.32458   0.49246   0.00000  Uiso   1.00
H76    H     0.87328   0.52328   0.12163   0.00000  Uiso   1.00
H77    H     0.99350   0.07681   0.39177   0.00000  Uiso   1.00
H78    H     0.89291   0.03932   0.55887   0.00000  Uiso   1.00
H79    H     0.17163   0.03437   0.39196   0.00000  Uiso   1.00
H80    H     0.91164   0.12860   0.21611   0.00000  Uiso   1.00
H81    H     0.78833   0.04212   0.75734   0.00000  Uiso   1.00
H82    H     0.37602   0.03170   0.40537   0.00000  Uiso   1.00
H83    H     0.82777   0.23039   0.03455   0.00000  Uiso   1.00
O84    O     0.74590   0.17006   0.91265   0.00000  Uiso   1.00
O85    O     0.51692   0.15639   0.45087   0.00000  Uiso   1.00
O86    O     0.79763   0.41708   0.96436   0.00000  Uiso   1.00
N87    N     0.83691   0.27123   0.80098   0.00000  Uiso   1.00
N88    N     0.38637   0.26148   0.47194   0.00000  Uiso   1.00
N89    N     0.87382   0.44724   0.12523   0.00000  Uiso   1.00
N90    N     0.81243   0.11363   0.75413   0.00000  Uiso   1.00
N91    N     0.36188   0.10388   0.42508   0.00000  Uiso   1.00
N92    N     0.84934   0.28964   0.07837   0.00000  Uiso   1.00
C93    C     0.46553   0.34053   0.97019   0.00000  Uiso   1.00
C94    C     0.52597   0.28292   0.04989   0.00000  Uiso   1.00
C95    C     0.56314   0.32227   0.14302   0.00000  Uiso   1.00
C96    C     0.61657   0.25731   0.20524   0.00000  Uiso   1.00
C97    C     0.70800   0.18316   0.33358   0.00000  Uiso   1.00
C98    C     0.37454   0.28023   0.95922   0.00000  Uiso   1.00
C99    C     0.28438   0.31732   0.97610   0.00000  Uiso   1.00
C100   C     0.21033   0.25009   0.96198   0.00000  Uiso   1.00
C101   C     0.06665   0.17178   0.94948   0.00000  Uiso   1.00
C102   C     0.51581   0.33142   0.86368   0.00000  Uiso   1.00
C103   C     0.54441   0.41156   0.80021   0.00000  Uiso   1.00
C104   C     0.58928   0.38744   0.70564   0.00000  Uiso   1.00
C105   C     0.66494   0.38862   0.54480   0.00000  Uiso   1.00
C106   C     0.49432   0.15519   0.91508   0.00000  Uiso   1.00
C107   C     0.54161   0.18225   0.01996   0.00000  Uiso   1.00
C108   C     0.59500   0.11722   0.08205   0.00000  Uiso   1.00
C109   C     0.63224   0.15646   0.17525   0.00000  Uiso   1.00
C110   C     0.39017   0.17956   0.92929   0.00000  Uiso   1.00
C111   C     0.31624   0.11226   0.91513   0.00000  Uiso   1.00
C112   C     0.22600   0.14924   0.93199   0.00000  Uiso   1.00
C113   C     0.53145   0.23076   0.83375   0.00000  Uiso   1.00
C114   C     0.57627   0.20651   0.73925   0.00000  Uiso   1.00
C115   C     0.60495   0.28659   0.67565   0.00000  Uiso   1.00
H116   H     0.45335   0.41890   0.99349   0.00000  Uiso   1.00
H117   H     0.55101   0.40018   0.16616   0.00000  Uiso   1.00
H118   H     0.27230   0.39522   0.99925   0.00000  Uiso   1.00
H119   H     0.53229   0.48945   0.82340   0.00000  Uiso   1.00
H120   H     0.66616   0.33501   0.34442   0.00000  Uiso   1.00
H121   H     0.07848   0.32458   0.99246   0.00000  Uiso   1.00
H122   H     0.62672   0.52328   0.62163   0.00000  Uiso   1.00
H123   H     0.50650   0.07681   0.89177   0.00000  Uiso   1.00
H124   H     0.60709   0.03932   0.05887   0.00000  Uiso   1.00
H125   H     0.32837   0.03437   0.89196   0.00000  Uiso   1.00
H126   H     0.58836   0.12860   0.71611   0.00000  Uiso   1.00
H127   H     0.71167   0.04212   0.25734   0.00000  Uiso   1.00
H128   H     0.12398   0.03170   0.90537   0.00000  Uiso   1.00
H129   H     0.67223   0.23039   0.53455   0.00000  Uiso   1.00
O130   O     0.75410   0.17006   0.41265   0.00000  Uiso   1.00
O131   O     0.98308   0.15639   0.95087   0.00000  Uiso   1.00
O132   O     0.70237   0.41708   0.46436   0.00000  Uiso   1.00
N133   N     0.66309   0.27123   0.30098   0.00000  Uiso   1.00
N134   N     0.11363   0.26148   0.97194   0.00000  Uiso   1.00
N135   N     0.62618   0.44724   0.62523   0.00000  Uiso   1.00
N136   N     0.68757   0.11363   0.25413   0.00000  Uiso   1.00
N137   N     0.13812   0.10388   0.92508   0.00000  Uiso   1.00
N138   N     0.65066   0.28964   0.57837   0.00000  Uiso   1.00
C139   C     0.53447   0.65947   0.47019   0.00000  Uiso   1.00
C140   C     0.47403   0.71708   0.54989   0.00000  Uiso   1.00
C141   C     0.43686   0.67773   0.64302   0.00000  Uiso   1.00
C142   C     0.38343   0.74269   0.70524   0.00000  Uiso   1.00
C143   C     0.29200   0.81684   0.83358   0.00000  Uiso   1.00
C144   C     0.62546   0.71977   0.45922   0.00000  Uiso   1.00
C145   C     0.71562   0.68268   0.47610   0.00000  Uiso   1.00
C146   C     0.78967   0.74991   0.46198   0.00000  Uiso   1.00
C147   C     0.93335   0.82822   0.44948   0.00000  Uiso   1.00
C148   C     0.48419   0.66858   0.36368   0.00000  Uiso   1.00
C149   C     0.45559   0.58844   0.30021   0.00000  Uiso   1.00
C150   C     0.41072   0.61256   0.20564   0.00000  Uiso   1.00
C151   C     0.33506   0.61138   0.04480   0.00000  Uiso   1.00
C152   C     0.50568   0.84481   0.41508   0.00000  Uiso   1.00
C153   C     0.45839   0.81775   0.51996   0.00000  Uiso   1.00
C154   C     0.40500   0.88278   0.58205   0.00000  Uiso   1.00
C155   C     0.36776   0.84354   0.67525   0.00000  Uiso   1.00
C156   C     0.60983   0.82044   0.42929   0.00000  Uiso   1.00
C157   C     0.68376   0.88774   0.41513   0.00000  Uiso   1.00
C158   C     0.77400   0.85076   0.43199   0.00000  Uiso   1.00
C159   C     0.46855   0.76924   0.33375   0.00000  Uiso   1.00
C160   C     0.42373   0.79349   0.23925   0.00000  Uiso   1.00
C161   C     0.39505   0.71341   0.17565   0.00000  Uiso   1.00
H162   H     0.54665   0.58110   0.49349   0.00000  Uiso   1.00
H163   H     0.44899   0.59982   0.66616   0.00000  Uiso   1.00
H164   H     0.72770   0.60478   0.49925   0.00000  Uiso   1.00
H165   H     0.46771   0.51055   0.32340   0.00000  Uiso   1.00
H166   H     0.33384   0.66499   0.84442   0.00000  Uiso   1.00
H167   H     0.92152   0.67542   0.49246   0.00000  Uiso   1.00
H168   H     0.37328   0.47672   0.12163   0.00000  Uiso   1.00
H169   H     0.49350   0.92319   0.39177   0.00000  Uiso   1.00
H170   H     0.39291   0.96068   0.55887   0.00000  Uiso   1.00
H171   H     0.67163   0.96563   0.39196   0.00000  Uiso   1.00
H172   H     0.41164   0.87140   0.21611   0.00000  Uiso   1.00
H173   H     0.28833   0.95788   0.75734   0.00000  Uiso   1.00
H174   H     0.87602   0.96830   0.40537   0.00000  Uiso   1.00
H175   H     0.32777   0.76961   0.03455   0.00000  Uiso   1.00
O176   O     0.24590   0.82994   0.91265   0.00000  Uiso   1.00
O177   O     0.01692   0.84361   0.45087   0.00000  Uiso   1.00
O178   O     0.29763   0.58292   0.96436   0.00000  Uiso   1.00
N179   N     0.33691   0.72877   0.80098   0.00000  Uiso   1.00
N180   N     0.88637   0.73852   0.47194   0.00000  Uiso   1.00
N181   N     0.37382   0.55276   0.12523   0.00000  Uiso   1.00
N182   N     0.31243   0.88637   0.75413   0.00000  Uiso   1.00
N183   N     0.86188   0.89612   0.42508   0.00000  Uiso   1.00
N184   N     0.34934   0.71036   0.07837   0.00000  Uiso   1.00
