data_job_05040
_audit_creation_date              2018-12-19
_audit_creation_method            'Materials Studio'
_symmetry_space_group_name_H-M    'P1'
_symmetry_Int_Tables_number       1
_symmetry_cell_setting            triclinic
loop_
_symmetry_equiv_pos_as_xyz
  x,y,z
_cell_length_a                    18.2161
_cell_length_b                    14.8158
_cell_length_c                    9.4951
_cell_angle_alpha                 90.0000
_cell_angle_beta                  75.8252
_cell_angle_gamma                 90.0000
loop_
_atom_site_label
_atom_site_type_symbol
_atom_site_fract_x
_atom_site_fract_y
_atom_site_fract_z
_atom_site_U_iso_or_equiv
_atom_site_adp_type
_atom_site_occupancy
C1     C     0.71726   0.32088   0.64259   0.00000  Uiso   1.00
C2     C     0.76065   0.25920   0.52212   0.00000  Uiso   1.00
C3     C     0.76036   0.26485   0.37637   0.00000  Uiso   1.00
C4     C     0.80377   0.20212   0.28330   0.00000  Uiso   1.00
C5     C     0.86470   0.11635   0.08851   0.00000  Uiso   1.00
C6     C     0.66812   0.25908   0.75590   0.00000  Uiso   1.00
C7     C     0.59005   0.26465   0.80670   0.00000  Uiso   1.00
C8     C     0.55557   0.20183   0.91044   0.00000  Uiso   1.00
C9     C     0.47286   0.11592   0.07866   0.00000  Uiso   1.00
C10    C     0.77617   0.36113   0.71409   0.00000  Uiso   1.00
C11    C     0.78894   0.45251   0.72978   0.00000  Uiso   1.00
C12    C     0.84543   0.47561   0.79835   0.00000  Uiso   1.00
C13    C     0.93048   0.54815   0.90166   0.00000  Uiso   1.00
C14    C     0.79485   0.19943   0.73649   0.00000  Uiso   1.00
C15    C     0.80279   0.19323   0.57313   0.00000  Uiso   1.00
C16    C     0.84621   0.13048   0.48026   0.00000  Uiso   1.00
C17    C     0.84599   0.13604   0.33439   0.00000  Uiso   1.00
C18    C     0.71026   0.19312   0.80690   0.00000  Uiso   1.00
C19    C     0.67589   0.13028   0.91059   0.00000  Uiso   1.00
C20    C     0.59779   0.13575   0.96153   0.00000  Uiso   1.00
C21    C     0.81832   0.29517   0.76509   0.00000  Uiso   1.00
C22    C     0.87479   0.31814   0.83366   0.00000  Uiso   1.00
C23    C     0.88764   0.40953   0.84945   0.00000  Uiso   1.00
H24    H     0.68444   0.37224   0.60289   0.00000  Uiso   1.00
H25    H     0.72773   0.31590   0.33694   0.00000  Uiso   1.00
H26    H     0.55745   0.31571   0.76722   0.00000  Uiso   1.00
H27    H     0.75631   0.50354   0.69030   0.00000  Uiso   1.00
H28    H     0.79430   0.22434   0.06460   0.00000  Uiso   1.00
H29    H     0.43524   0.22395   0.97190   0.00000  Uiso   1.00
H30    H     0.85459   0.62002   0.80971   0.00000  Uiso   1.00
H31    H     0.82766   0.14807   0.77620   0.00000  Uiso   1.00
H32    H     0.87882   0.07944   0.51976   0.00000  Uiso   1.00
H33    H     0.70853   0.07925   0.95004   0.00000  Uiso   1.00
H34    H     0.90739   0.26707   0.87312   0.00000  Uiso   1.00
H35    H     0.91692   0.03241   0.21298   0.00000  Uiso   1.00
H36    H     0.55786   0.03203   0.12029   0.00000  Uiso   1.00
H37    H     0.97721   0.42809   0.95809   0.00000  Uiso   1.00
O38    O     0.88665   0.08725   0.96698   0.00000  Uiso   1.00
O39    O     0.41559   0.08676   0.15734   0.00000  Uiso   1.00
O40    O     0.96576   0.60639   0.94453   0.00000  Uiso   1.00
N41    N     0.81615   0.18860   0.13471   0.00000  Uiso   1.00
N42    N     0.48045   0.18823   0.98296   0.00000  Uiso   1.00
N43    N     0.87249   0.55852   0.83136   0.00000  Uiso   1.00
N44    N     0.88213   0.08532   0.21455   0.00000  Uiso   1.00
N45    N     0.54643   0.08495   0.06281   0.00000  Uiso   1.00
N46    N     0.93847   0.45525   0.91120   0.00000  Uiso   1.00
C47    C     0.28274   0.32088   0.85741   0.00000  Uiso   1.00
C48    C     0.23935   0.25920   0.97788   0.00000  Uiso   1.00
C49    C     0.23964   0.26485   0.12363   0.00000  Uiso   1.00
C50    C     0.19623   0.20212   0.21670   0.00000  Uiso   1.00
C51    C     0.13530   0.11635   0.41149   0.00000  Uiso   1.00
C52    C     0.33188   0.25908   0.74410   0.00000  Uiso   1.00
C53    C     0.40995   0.26465   0.69330   0.00000  Uiso   1.00
C54    C     0.44443   0.20183   0.58956   0.00000  Uiso   1.00
C55    C     0.52714   0.11592   0.42134   0.00000  Uiso   1.00
C56    C     0.22383   0.36113   0.78591   0.00000  Uiso   1.00
C57    C     0.21106   0.45251   0.77022   0.00000  Uiso   1.00
C58    C     0.15457   0.47561   0.70165   0.00000  Uiso   1.00
C59    C     0.06952   0.54815   0.59834   0.00000  Uiso   1.00
C60    C     0.20515   0.19943   0.76351   0.00000  Uiso   1.00
C61    C     0.19721   0.19323   0.92687   0.00000  Uiso   1.00
C62    C     0.15379   0.13048   0.01974   0.00000  Uiso   1.00
C63    C     0.15401   0.13604   0.16561   0.00000  Uiso   1.00
C64    C     0.28974   0.19312   0.69310   0.00000  Uiso   1.00
C65    C     0.32411   0.13028   0.58941   0.00000  Uiso   1.00
C66    C     0.40221   0.13575   0.53847   0.00000  Uiso   1.00
C67    C     0.18168   0.29517   0.73491   0.00000  Uiso   1.00
C68    C     0.12521   0.31814   0.66634   0.00000  Uiso   1.00
C69    C     0.11236   0.40953   0.65055   0.00000  Uiso   1.00
H70    H     0.31556   0.37224   0.89711   0.00000  Uiso   1.00
H71    H     0.27227   0.31590   0.16306   0.00000  Uiso   1.00
H72    H     0.44255   0.31571   0.73278   0.00000  Uiso   1.00
H73    H     0.24369   0.50354   0.80970   0.00000  Uiso   1.00
H74    H     0.20570   0.22434   0.43540   0.00000  Uiso   1.00
H75    H     0.56476   0.22395   0.52810   0.00000  Uiso   1.00
H76    H     0.14541   0.62002   0.69029   0.00000  Uiso   1.00
H77    H     0.17234   0.14807   0.72380   0.00000  Uiso   1.00
H78    H     0.12118   0.07944   0.98024   0.00000  Uiso   1.00
H79    H     0.29147   0.07925   0.54996   0.00000  Uiso   1.00
H80    H     0.09261   0.26707   0.62688   0.00000  Uiso   1.00
H81    H     0.08308   0.03241   0.28702   0.00000  Uiso   1.00
H82    H     0.44214   0.03203   0.37971   0.00000  Uiso   1.00
H83    H     0.02279   0.42809   0.54191   0.00000  Uiso   1.00
O84    O     0.11335   0.08725   0.53302   0.00000  Uiso   1.00
O85    O     0.58441   0.08676   0.34266   0.00000  Uiso   1.00
O86    O     0.03424   0.60639   0.55547   0.00000  Uiso   1.00
N87    N     0.18385   0.18860   0.36529   0.00000  Uiso   1.00
N88    N     0.51955   0.18823   0.51704   0.00000  Uiso   1.00
N89    N     0.12751   0.55852   0.66864   0.00000  Uiso   1.00
N90    N     0.11787   0.08532   0.28545   0.00000  Uiso   1.00
N91    N     0.45357   0.08495   0.43719   0.00000  Uiso   1.00
N92    N     0.06153   0.45525   0.58880   0.00000  Uiso   1.00
C93    C     0.28274   0.67912   0.35741   0.00000  Uiso   1.00
C94    C     0.23935   0.74080   0.47788   0.00000  Uiso   1.00
C95    C     0.23964   0.73515   0.62363   0.00000  Uiso   1.00
C96    C     0.19623   0.79788   0.71670   0.00000  Uiso   1.00
C97    C     0.13530   0.88365   0.91149   0.00000  Uiso   1.00
C98    C     0.33188   0.74092   0.24410   0.00000  Uiso   1.00
C99    C     0.40995   0.73535   0.19330   0.00000  Uiso   1.00
C100   C     0.44443   0.79817   0.08956   0.00000  Uiso   1.00
C101   C     0.52714   0.88408   0.92134   0.00000  Uiso   1.00
C102   C     0.22383   0.63887   0.28591   0.00000  Uiso   1.00
C103   C     0.21106   0.54749   0.27022   0.00000  Uiso   1.00
C104   C     0.15457   0.52439   0.20165   0.00000  Uiso   1.00
C105   C     0.06952   0.45185   0.09834   0.00000  Uiso   1.00
C106   C     0.20515   0.80057   0.26351   0.00000  Uiso   1.00
C107   C     0.19721   0.80677   0.42687   0.00000  Uiso   1.00
C108   C     0.15379   0.86952   0.51974   0.00000  Uiso   1.00
C109   C     0.15401   0.86396   0.66561   0.00000  Uiso   1.00
C110   C     0.28974   0.80688   0.19310   0.00000  Uiso   1.00
C111   C     0.32411   0.86972   0.08941   0.00000  Uiso   1.00
C112   C     0.40221   0.86425   0.03847   0.00000  Uiso   1.00
C113   C     0.18168   0.70483   0.23491   0.00000  Uiso   1.00
C114   C     0.12521   0.68186   0.16634   0.00000  Uiso   1.00
C115   C     0.11236   0.59047   0.15055   0.00000  Uiso   1.00
H116   H     0.31556   0.62776   0.39711   0.00000  Uiso   1.00
H117   H     0.27227   0.68410   0.66306   0.00000  Uiso   1.00
H118   H     0.44255   0.68429   0.23278   0.00000  Uiso   1.00
H119   H     0.24369   0.49646   0.30970   0.00000  Uiso   1.00
H120   H     0.20570   0.77566   0.93540   0.00000  Uiso   1.00
H121   H     0.56476   0.77605   0.02810   0.00000  Uiso   1.00
H122   H     0.14541   0.37998   0.19029   0.00000  Uiso   1.00
H123   H     0.17234   0.85193   0.22380   0.00000  Uiso   1.00
H124   H     0.12118   0.92056   0.48024   0.00000  Uiso   1.00
H125   H     0.29147   0.92075   0.04996   0.00000  Uiso   1.00
H126   H     0.09261   0.73293   0.12688   0.00000  Uiso   1.00
H127   H     0.08308   0.96759   0.78702   0.00000  Uiso   1.00
H128   H     0.44214   0.96797   0.87971   0.00000  Uiso   1.00
H129   H     0.02279   0.57191   0.04191   0.00000  Uiso   1.00
O130   O     0.11335   0.91275   0.03302   0.00000  Uiso   1.00
O131   O     0.58441   0.91324   0.84266   0.00000  Uiso   1.00
O132   O     0.03424   0.39361   0.05547   0.00000  Uiso   1.00
N133   N     0.18385   0.81140   0.86529   0.00000  Uiso   1.00
N134   N     0.51955   0.81177   0.01704   0.00000  Uiso   1.00
N135   N     0.12751   0.44148   0.16864   0.00000  Uiso   1.00
N136   N     0.11787   0.91468   0.78545   0.00000  Uiso   1.00
N137   N     0.45357   0.91505   0.93719   0.00000  Uiso   1.00
N138   N     0.06153   0.54475   0.08880   0.00000  Uiso   1.00
C139   C     0.71726   0.67912   0.14259   0.00000  Uiso   1.00
C140   C     0.76065   0.74080   0.02212   0.00000  Uiso   1.00
C141   C     0.76036   0.73515   0.87637   0.00000  Uiso   1.00
C142   C     0.80377   0.79788   0.78330   0.00000  Uiso   1.00
C143   C     0.86470   0.88365   0.58851   0.00000  Uiso   1.00
C144   C     0.66812   0.74092   0.25590   0.00000  Uiso   1.00
C145   C     0.59005   0.73535   0.30670   0.00000  Uiso   1.00
C146   C     0.55557   0.79817   0.41044   0.00000  Uiso   1.00
C147   C     0.47286   0.88408   0.57866   0.00000  Uiso   1.00
C148   C     0.77617   0.63887   0.21409   0.00000  Uiso   1.00
C149   C     0.78894   0.54749   0.22978   0.00000  Uiso   1.00
C150   C     0.84543   0.52439   0.29835   0.00000  Uiso   1.00
C151   C     0.93048   0.45185   0.40166   0.00000  Uiso   1.00
C152   C     0.79485   0.80057   0.23649   0.00000  Uiso   1.00
C153   C     0.80279   0.80677   0.07313   0.00000  Uiso   1.00
C154   C     0.84621   0.86952   0.98026   0.00000  Uiso   1.00
C155   C     0.84599   0.86396   0.83439   0.00000  Uiso   1.00
C156   C     0.71026   0.80688   0.30690   0.00000  Uiso   1.00
C157   C     0.67589   0.86972   0.41059   0.00000  Uiso   1.00
C158   C     0.59779   0.86425   0.46153   0.00000  Uiso   1.00
C159   C     0.81832   0.70483   0.26509   0.00000  Uiso   1.00
C160   C     0.87479   0.68186   0.33366   0.00000  Uiso   1.00
C161   C     0.88764   0.59047   0.34945   0.00000  Uiso   1.00
H162   H     0.68444   0.62776   0.10289   0.00000  Uiso   1.00
H163   H     0.72773   0.68410   0.83694   0.00000  Uiso   1.00
H164   H     0.55745   0.68429   0.26722   0.00000  Uiso   1.00
H165   H     0.75631   0.49646   0.19030   0.00000  Uiso   1.00
H166   H     0.79430   0.77566   0.56460   0.00000  Uiso   1.00
H167   H     0.43524   0.77605   0.47190   0.00000  Uiso   1.00
H168   H     0.85459   0.37998   0.30971   0.00000  Uiso   1.00
H169   H     0.82766   0.85193   0.27620   0.00000  Uiso   1.00
H170   H     0.87882   0.92056   0.01976   0.00000  Uiso   1.00
H171   H     0.70853   0.92075   0.45004   0.00000  Uiso   1.00
H172   H     0.90739   0.73293   0.37312   0.00000  Uiso   1.00
H173   H     0.91692   0.96759   0.71298   0.00000  Uiso   1.00
H174   H     0.55786   0.96797   0.62029   0.00000  Uiso   1.00
H175   H     0.97721   0.57191   0.45809   0.00000  Uiso   1.00
O176   O     0.88665   0.91275   0.46698   0.00000  Uiso   1.00
O177   O     0.41559   0.91324   0.65734   0.00000  Uiso   1.00
O178   O     0.96576   0.39361   0.44453   0.00000  Uiso   1.00
N179   N     0.81615   0.81140   0.63471   0.00000  Uiso   1.00
N180   N     0.48045   0.81177   0.48296   0.00000  Uiso   1.00
N181   N     0.87249   0.44148   0.33136   0.00000  Uiso   1.00
N182   N     0.88213   0.91468   0.71455   0.00000  Uiso   1.00
N183   N     0.54643   0.91505   0.56281   0.00000  Uiso   1.00
N184   N     0.93847   0.54475   0.41120   0.00000  Uiso   1.00
