data_job_06697
_audit_creation_date              2018-12-19
_audit_creation_method            'Materials Studio'
_symmetry_space_group_name_H-M    'P1'
_symmetry_Int_Tables_number       1
_symmetry_cell_setting            triclinic
loop_
_symmetry_equiv_pos_as_xyz
  x,y,z
_cell_length_a                    20.9435
_cell_length_b                    21.6901
_cell_length_c                    23.0358
_cell_angle_alpha                 85.6433
_cell_angle_beta                  66.0813
_cell_angle_gamma                 110.0071
loop_
_atom_site_label
_atom_site_type_symbol
_atom_site_fract_x
_atom_site_fract_y
_atom_site_fract_z
_atom_site_U_iso_or_equiv
_atom_site_adp_type
_atom_site_occupancy
C1     C     0.68161   0.91409   0.27661   0.00000  Uiso   1.00
C2     C     0.70412   0.97294   0.30683   0.00000  Uiso   1.00
C3     C     0.66380   0.97474   0.37113   0.00000  Uiso   1.00
C4     C     0.69386   0.03322   0.38928   0.00000  Uiso   1.00
C5     C     0.71847   0.11629   0.44298   0.00000  Uiso   1.00
C6     C     0.67657   0.94335   0.21707   0.00000  Uiso   1.00
C7     C     0.61308   0.92027   0.20591   0.00000  Uiso   1.00
C8     C     0.61995   0.95384   0.14850   0.00000  Uiso   1.00
C9     C     0.60180   0.99095   0.06283   0.00000  Uiso   1.00
C10    C     0.74984   0.89497   0.24965   0.00000  Uiso   1.00
C11    C     0.74796   0.83120   0.26585   0.00000  Uiso   1.00
C12    C     0.81651   0.82403   0.23585   0.00000  Uiso   1.00
C13    C     0.91213   0.78601   0.20075   0.00000  Uiso   1.00
C14    C     0.80669   0.01474   0.19450   0.00000  Uiso   1.00
C15    C     0.77207   0.02760   0.26223   0.00000  Uiso   1.00
C16    C     0.80220   0.08609   0.28028   0.00000  Uiso   1.00
C17    C     0.76193   0.08799   0.34460   0.00000  Uiso   1.00
C18    C     0.74451   0.99801   0.17248   0.00000  Uiso   1.00
C19    C     0.75148   0.03162   0.11506   0.00000  Uiso   1.00
C20    C     0.68802   0.00861   0.10382   0.00000  Uiso   1.00
C21    C     0.81778   0.94963   0.20505   0.00000  Uiso   1.00
C22    C     0.88635   0.94256   0.17501   0.00000  Uiso   1.00
C23    C     0.88458   0.87880   0.19117   0.00000  Uiso   1.00
H24    H     0.62871   0.87153   0.31133   0.00000  Uiso   1.00
H25    H     0.61122   0.93243   0.40563   0.00000  Uiso   1.00
H26    H     0.56051   0.87797   0.24043   0.00000  Uiso   1.00
H27    H     0.69537   0.78891   0.30037   0.00000  Uiso   1.00
H28    H     0.62178   0.02406   0.49051   0.00000  Uiso   1.00
H29    H     0.51487   0.90920   0.14216   0.00000  Uiso   1.00
H30    H     0.79924   0.72141   0.26855   0.00000  Uiso   1.00
H31    H     0.85959   0.05730   0.15977   0.00000  Uiso   1.00
H32    H     0.85478   0.12839   0.24576   0.00000  Uiso   1.00
H33    H     0.80406   0.07392   0.08056   0.00000  Uiso   1.00
H34    H     0.93892   0.98487   0.14050   0.00000  Uiso   1.00
H35    H     0.81946   0.18311   0.36075   0.00000  Uiso   1.00
H36    H     0.71254   0.06825   0.01240   0.00000  Uiso   1.00
H37    H     0.99692   0.88046   0.13879   0.00000  Uiso   1.00
O38    O     0.71327   0.14701   0.48492   0.00000  Uiso   1.00
O39    O     0.57301   0.99631   0.02790   0.00000  Uiso   1.00
O40    O     0.94610   0.74994   0.19372   0.00000  Uiso   1.00
N41    N     0.66897   0.05173   0.44817   0.00000  Uiso   1.00
N42    N     0.56901   0.94435   0.12250   0.00000  Uiso   1.00
N43    N     0.83487   0.76878   0.24064   0.00000  Uiso   1.00
N44    N     0.77534   0.13732   0.37835   0.00000  Uiso   1.00
N45    N     0.67538   0.02994   0.05267   0.00000  Uiso   1.00
N46    N     0.94124   0.85436   0.17082   0.00000  Uiso   1.00
C47    C     0.99963   0.56882   0.96076   0.00000  Uiso   1.00
C48    C     0.08062   0.57810   0.91427   0.00000  Uiso   1.00
C49    C     0.13985   0.63861   0.87177   0.00000  Uiso   1.00
C50    C     0.20969   0.63653   0.83326   0.00000  Uiso   1.00
C51    C     0.33390   0.66011   0.76045   0.00000  Uiso   1.00
C52    C     0.94630   0.51412   0.94379   0.00000  Uiso   1.00
C53    C     0.89260   0.52085   0.92613   0.00000  Uiso   1.00
C54    C     0.84937   0.46491   0.91248   0.00000  Uiso   1.00
C55    C     0.76500   0.38916   0.88556   0.00000  Uiso   1.00
C56    C     0.98478   0.53798   0.02913   0.00000  Uiso   1.00
C57    C     0.96340   0.56475   0.08323   0.00000  Uiso   1.00
C58    C     0.95254   0.52889   0.14144   0.00000  Uiso   1.00
C59    C     0.92791   0.49018   0.24701   0.00000  Uiso   1.00
C60    C     0.01833   0.45752   0.96794   0.00000  Uiso   1.00
C61    C     0.09077   0.51764   0.91816   0.00000  Uiso   1.00
C62    C     0.16054   0.51547   0.87971   0.00000  Uiso   1.00
C63    C     0.21987   0.57597   0.83716   0.00000  Uiso   1.00
C64    C     0.95646   0.45367   0.94769   0.00000  Uiso   1.00
C65    C     0.91329   0.39771   0.93407   0.00000  Uiso   1.00
C66    C     0.85954   0.40435   0.91639   0.00000  Uiso   1.00
C67    C     0.99494   0.47752   0.03303   0.00000  Uiso   1.00
C68    C     0.98410   0.44161   0.09117   0.00000  Uiso   1.00
C69    C     0.96272   0.46832   0.14534   0.00000  Uiso   1.00
H70    H     0.99172   0.61589   0.95772   0.00000  Uiso   1.00
H71    H     0.13197   0.68538   0.86876   0.00000  Uiso   1.00
H72    H     0.88475   0.56763   0.92312   0.00000  Uiso   1.00
H73    H     0.95555   0.61153   0.08019   0.00000  Uiso   1.00
H74    H     0.29193   0.73576   0.77184   0.00000  Uiso   1.00
H75    H     0.77064   0.48748   0.88648   0.00000  Uiso   1.00
H76    H     0.91993   0.58005   0.21769   0.00000  Uiso   1.00
H77    H     0.02624   0.41045   0.97097   0.00000  Uiso   1.00
H78    H     0.16839   0.46868   0.88274   0.00000  Uiso   1.00
H79    H     0.92116   0.35093   0.93710   0.00000  Uiso   1.00
H80    H     0.99196   0.39483   0.09416   0.00000  Uiso   1.00
H81    H     0.32149   0.55988   0.78317   0.00000  Uiso   1.00
H82    H     0.80019   0.31160   0.89782   0.00000  Uiso   1.00
H83    H     0.94949   0.40416   0.22903   0.00000  Uiso   1.00
O84    O     0.39959   0.68982   0.71921   0.00000  Uiso   1.00
O85    O     0.71566   0.36409   0.86963   0.00000  Uiso   1.00
O86    O     0.91153   0.48553   0.30417   0.00000  Uiso   1.00
N87    N     0.27939   0.68638   0.78662   0.00000  Uiso   1.00
N88    N     0.79201   0.45426   0.89380   0.00000  Uiso   1.00
N89    N     0.93157   0.54079   0.20346   0.00000  Uiso   1.00
N90    N     0.29529   0.59174   0.79273   0.00000  Uiso   1.00
N91    N     0.80792   0.35961   0.89990   0.00000  Uiso   1.00
N92    N     0.94747   0.44614   0.20956   0.00000  Uiso   1.00
C93    C     0.22667   0.10036   0.67193   0.00000  Uiso   1.00
C94    C     0.23959   0.04370   0.70237   0.00000  Uiso   1.00
C95    C     0.26585   0.99907   0.67042   0.00000  Uiso   1.00
C96    C     0.27383   0.95080   0.70683   0.00000  Uiso   1.00
C97    C     0.29654   0.86333   0.74406   0.00000  Uiso   1.00
C98    C     0.14336   0.08757   0.71474   0.00000  Uiso   1.00
C99    C     0.08873   0.07983   0.69319   0.00000  Uiso   1.00
C100   C     0.01571   0.06850   0.74002   0.00000  Uiso   1.00
C101   C     0.88905   0.04919   0.79645   0.00000  Uiso   1.00
C102   C     0.27474   0.16544   0.68195   0.00000  Uiso   1.00
C103   C     0.33056   0.22319   0.63283   0.00000  Uiso   1.00
C104   C     0.36814   0.27742   0.65205   0.00000  Uiso   1.00
C105   C     0.44547   0.37902   0.65757   0.00000  Uiso   1.00
C106   C     0.19413   0.09400   0.79343   0.00000  Uiso   1.00
C107   C     0.22191   0.04025   0.76837   0.00000  Uiso   1.00
C108   C     0.22986   0.99204   0.80484   0.00000  Uiso   1.00
C109   C     0.25613   0.94735   0.77294   0.00000  Uiso   1.00
C110   C     0.12569   0.08412   0.78074   0.00000  Uiso   1.00
C111   C     0.05274   0.07280   0.82761   0.00000  Uiso   1.00
C112   C     0.99800   0.06505   0.80613   0.00000  Uiso   1.00
C113   C     0.25708   0.16199   0.74795   0.00000  Uiso   1.00
C114   C     0.29457   0.21615   0.76725   0.00000  Uiso   1.00
C115   C     0.35044   0.27397   0.71816   0.00000  Uiso   1.00
H116   H     0.24042   0.10304   0.62056   0.00000  Uiso   1.00
H117   H     0.27951   0.00175   0.61934   0.00000  Uiso   1.00
H118   H     0.10242   0.08251   0.64211   0.00000  Uiso   1.00
H119   H     0.34422   0.22584   0.58176   0.00000  Uiso   1.00
H120   H     0.31503   0.88792   0.64711   0.00000  Uiso   1.00
H121   H     0.94164   0.05822   0.69511   0.00000  Uiso   1.00
H122   H     0.45152   0.36046   0.56785   0.00000  Uiso   1.00
H123   H     0.18037   0.09132   0.84482   0.00000  Uiso   1.00
H124   H     0.21618   0.98938   0.85591   0.00000  Uiso   1.00
H125   H     0.03909   0.07014   0.87868   0.00000  Uiso   1.00
H126   H     0.28088   0.21347   0.81833   0.00000  Uiso   1.00
H127   H     0.26363   0.87787   0.83912   0.00000  Uiso   1.00
H128   H     0.89023   0.04818   0.88712   0.00000  Uiso   1.00
H129   H     0.40011   0.35041   0.75986   0.00000  Uiso   1.00
O130   O     0.31394   0.81604   0.74637   0.00000  Uiso   1.00
O131   O     0.82407   0.03949   0.80934   0.00000  Uiso   1.00
O132   O     0.49302   0.43600   0.64238   0.00000  Uiso   1.00
N133   N     0.29804   0.89955   0.69077   0.00000  Uiso   1.00
N134   N     0.94893   0.05877   0.73565   0.00000  Uiso   1.00
N135   N     0.42561   0.34134   0.61668   0.00000  Uiso   1.00
N136   N     0.27038   0.89415   0.79409   0.00000  Uiso   1.00
N137   N     0.92127   0.05336   0.83897   0.00000  Uiso   1.00
N138   N     0.39795   0.33593   0.71999   0.00000  Uiso   1.00
C139   C     0.68949   0.80836   0.70727   0.00000  Uiso   1.00
C140   C     0.71252   0.75482   0.72909   0.00000  Uiso   1.00
C141   C     0.68275   0.71864   0.79316   0.00000  Uiso   1.00
C142   C     0.71134   0.67190   0.80297   0.00000  Uiso   1.00
C143   C     0.73850   0.59028   0.84483   0.00000  Uiso   1.00
C144   C     0.66389   0.78501   0.65648   0.00000  Uiso   1.00
C145   C     0.59325   0.77423   0.65949   0.00000  Uiso   1.00
C146   C     0.58091   0.75291   0.60816   0.00000  Uiso   1.00
C147   C     0.53260   0.71822   0.53727   0.00000  Uiso   1.00
C148   C     0.76312   0.87245   0.67008   0.00000  Uiso   1.00
C149   C     0.77590   0.93520   0.68452   0.00000  Uiso   1.00
C150   C     0.84709   0.98750   0.64463   0.00000  Uiso   1.00
C151   C     0.95284   0.08857   0.59486   0.00000  Uiso   1.00
C152   C     0.79319   0.78969   0.61075   0.00000  Uiso   1.00
C153   C     0.76885   0.74468   0.67667   0.00000  Uiso   1.00
C154   C     0.79749   0.69798   0.68638   0.00000  Uiso   1.00
C155   C     0.76777   0.66174   0.75045   0.00000  Uiso   1.00
C156   C     0.72022   0.77487   0.60406   0.00000  Uiso   1.00
C157   C     0.70798   0.75357   0.55271   0.00000  Uiso   1.00
C158   C     0.63734   0.74275   0.55564   0.00000  Uiso   1.00
C159   C     0.81945   0.86231   0.61766   0.00000  Uiso   1.00
C160   C     0.89063   0.91453   0.57774   0.00000  Uiso   1.00
C161   C     0.90352   0.97734   0.59211   0.00000  Uiso   1.00
H162   H     0.64564   0.81626   0.74808   0.00000  Uiso   1.00
H163   H     0.63916   0.72650   0.83372   0.00000  Uiso   1.00
H164   H     0.54967   0.78209   0.70006   0.00000  Uiso   1.00
H165   H     0.73229   0.94303   0.72509   0.00000  Uiso   1.00
H166   H     0.65680   0.62249   0.90555   0.00000  Uiso   1.00
H167   H     0.46812   0.73973   0.62372   0.00000  Uiso   1.00
H168   H     0.85321   0.07910   0.67649   0.00000  Uiso   1.00
H169   H     0.83705   0.78179   0.56993   0.00000  Uiso   1.00
H170   H     0.84108   0.69014   0.64580   0.00000  Uiso   1.00
H171   H     0.75159   0.74573   0.51214   0.00000  Uiso   1.00
H172   H     0.93421   0.90667   0.53717   0.00000  Uiso   1.00
H173   H     0.82068   0.59298   0.75302   0.00000  Uiso   1.00
H174   H     0.63200   0.71022   0.47119   0.00000  Uiso   1.00
H175   H     0.01710   0.04959   0.52397   0.00000  Uiso   1.00
O176   O     0.73792   0.54805   0.88240   0.00000  Uiso   1.00
O177   O     0.49038   0.70187   0.51265   0.00000  Uiso   1.00
O178   O     0.99562   0.14712   0.58189   0.00000  Uiso   1.00
N179   N     0.69483   0.62813   0.85924   0.00000  Uiso   1.00
N180   N     0.51842   0.73773   0.59575   0.00000  Uiso   1.00
N181   N     0.87844   0.05502   0.64508   0.00000  Uiso   1.00
N182   N     0.78301   0.61225   0.77717   0.00000  Uiso   1.00
N183   N     0.60660   0.72185   0.51368   0.00000  Uiso   1.00
N184   N     0.96662   0.03914   0.56301   0.00000  Uiso   1.00
C185   C     0.16834   0.45384   0.43768   0.00000  Uiso   1.00
C186   C     0.24245   0.49837   0.43795   0.00000  Uiso   1.00
C187   C     0.31435   0.50003   0.39979   0.00000  Uiso   1.00
C188   C     0.37495   0.54424   0.40721   0.00000  Uiso   1.00
C189   C     0.49171   0.60717   0.40091   0.00000  Uiso   1.00
C190   C     0.13541   0.50194   0.42223   0.00000  Uiso   1.00
C191   C     0.11729   0.50659   0.37087   0.00000  Uiso   1.00
C192   C     0.08778   0.55380   0.36507   0.00000  Uiso   1.00
C193   C     0.03830   0.62223   0.33441   0.00000  Uiso   1.00
C194   C     0.11329   0.41299   0.50836   0.00000  Uiso   1.00
C195   C     0.07656   0.34285   0.52942   0.00000  Uiso   1.00
C196   C     0.02841   0.31517   0.59613   0.00000  Uiso   1.00
C197   C     0.94460   0.24549   0.69920   0.00000  Uiso   1.00
C198   C     0.14812   0.52940   0.51870   0.00000  Uiso   1.00
C199   C     0.23147   0.53941   0.48196   0.00000  Uiso   1.00
C200   C     0.29198   0.58363   0.48943   0.00000  Uiso   1.00
C201   C     0.36395   0.58536   0.45130   0.00000  Uiso   1.00
C202   C     0.12443   0.54298   0.46624   0.00000  Uiso   1.00
C203   C     0.09493   0.59019   0.46051   0.00000  Uiso   1.00
C204   C     0.07678   0.59491   0.40915   0.00000  Uiso   1.00
C205   C     0.10232   0.45403   0.55237   0.00000  Uiso   1.00
C206   C     0.05421   0.42645   0.61906   0.00000  Uiso   1.00
C207   C     0.01741   0.35628   0.64022   0.00000  Uiso   1.00
H208   H     0.17688   0.42189   0.40341   0.00000  Uiso   1.00
H209   H     0.32282   0.46827   0.36573   0.00000  Uiso   1.00
H210   H     0.12579   0.47482   0.33683   0.00000  Uiso   1.00
H211   H     0.08507   0.31111   0.49535   0.00000  Uiso   1.00
H212   H     0.47978   0.53780   0.34335   0.00000  Uiso   1.00
H213   H     0.06431   0.55160   0.28241   0.00000  Uiso   1.00
H214   H     0.97845   0.20638   0.61669   0.00000  Uiso   1.00
H215   H     0.13957   0.56135   0.55296   0.00000  Uiso   1.00
H216   H     0.28347   0.61539   0.52349   0.00000  Uiso   1.00
H217   H     0.08644   0.62194   0.49458   0.00000  Uiso   1.00
H218   H     0.04572   0.45823   0.65310   0.00000  Uiso   1.00
H219   H     0.44785   0.65721   0.47139   0.00000  Uiso   1.00
H220   H     0.03237   0.67101   0.41045   0.00000  Uiso   1.00
H221   H     0.94651   0.32579   0.74473   0.00000  Uiso   1.00
O222   O     0.55915   0.63055   0.38527   0.00000  Uiso   1.00
O223   O     0.01405   0.64865   0.30533   0.00000  Uiso   1.00
O224   O     0.90141   0.19572   0.74389   0.00000  Uiso   1.00
N225   N     0.45252   0.55848   0.37754   0.00000  Uiso   1.00
N226   N     0.06408   0.57139   0.32056   0.00000  Uiso   1.00
N227   N     0.98380   0.24864   0.63308   0.00000  Uiso   1.00
N228   N     0.43533   0.62273   0.44644   0.00000  Uiso   1.00
N229   N     0.04690   0.63564   0.38946   0.00000  Uiso   1.00
N230   N     0.96661   0.31289   0.70197   0.00000  Uiso   1.00
C231   C     0.34071   0.11032   0.18954   0.00000  Uiso   1.00
C232   C     0.32189   0.16198   0.22690   0.00000  Uiso   1.00
C233   C     0.28343   0.19935   0.21698   0.00000  Uiso   1.00
C234   C     0.27182   0.24397   0.25619   0.00000  Uiso   1.00
C235   C     0.23861   0.32311   0.30701   0.00000  Uiso   1.00
C236   C     0.30574   0.04425   0.24129   0.00000  Uiso   1.00
C237   C     0.25371   0.98261   0.24344   0.00000  Uiso   1.00
C238   C     0.22852   0.92813   0.29476   0.00000  Uiso   1.00
C239   C     0.17029   0.82446   0.36788   0.00000  Uiso   1.00
C240   C     0.42723   0.13350   0.16026   0.00000  Uiso   1.00
C241   C     0.47735   0.14691   0.09430   0.00000  Uiso   1.00
C242   C     0.55444   0.16755   0.07740   0.00000  Uiso   1.00
C243   C     0.68484   0.20248   0.02472   0.00000  Uiso   1.00
C244   C     0.38849   0.12313   0.27683   0.00000  Uiso   1.00
C245   C     0.34784   0.16894   0.27431   0.00000  Uiso   1.00
C246   C     0.33629   0.21352   0.31355   0.00000  Uiso   1.00
C247   C     0.29782   0.25095   0.30368   0.00000  Uiso   1.00
C248   C     0.33170   0.05120   0.28869   0.00000  Uiso   1.00
C249   C     0.30658   0.99679   0.34001   0.00000  Uiso   1.00
C250   C     0.25452   0.93510   0.34225   0.00000  Uiso   1.00
C251   C     0.45319   0.14047   0.20767   0.00000  Uiso   1.00
C252   C     0.53021   0.16109   0.19087   0.00000  Uiso   1.00
C253   C     0.58044   0.17452   0.12489   0.00000  Uiso   1.00
H254   H     0.32050   0.10490   0.15264   0.00000  Uiso   1.00
H255   H     0.26335   0.19394   0.18029   0.00000  Uiso   1.00
H256   H     0.23364   0.97724   0.20675   0.00000  Uiso   1.00
H257   H     0.45724   0.14152   0.05762   0.00000  Uiso   1.00
H258   H     0.21140   0.29571   0.23187   0.00000  Uiso   1.00
H259   H     0.14879   0.83879   0.28764   0.00000  Uiso   1.00
H260   H     0.62029   0.18519   0.97319   0.00000  Uiso   1.00
H261   H     0.40870   0.12855   0.31374   0.00000  Uiso   1.00
H262   H     0.35638   0.21890   0.35023   0.00000  Uiso   1.00
H263   H     0.32668   0.00219   0.37669   0.00000  Uiso   1.00
H264   H     0.55028   0.16647   0.22757   0.00000  Uiso   1.00
H265   H     0.28691   0.31597   0.36981   0.00000  Uiso   1.00
H266   H     0.22430   0.85904   0.42558   0.00000  Uiso   1.00
H267   H     0.69580   0.20544   0.11113   0.00000  Uiso   1.00
O268   O     0.21312   0.36483   0.32195   0.00000  Uiso   1.00
O269   O     0.13099   0.76536   0.39512   0.00000  Uiso   1.00
O270   O     0.74960   0.21983   0.98256   0.00000  Uiso   1.00
N271   N     0.23636   0.28809   0.25932   0.00000  Uiso   1.00
N272   N     0.17782   0.86090   0.31147   0.00000  Uiso   1.00
N273   N     0.61863   0.18473   0.01748   0.00000  Uiso   1.00
N274   N     0.27699   0.29899   0.33354   0.00000  Uiso   1.00
N275   N     0.21845   0.87179   0.38569   0.00000  Uiso   1.00
N276   N     0.65926   0.19563   0.09170   0.00000  Uiso   1.00
C277   C     0.28006   0.45725   0.69056   0.00000  Uiso   1.00
C278   C     0.25670   0.40294   0.65600   0.00000  Uiso   1.00
C279   C     0.30441   0.39643   0.59620   0.00000  Uiso   1.00
C280   C     0.27212   0.34335   0.57287   0.00000  Uiso   1.00
C281   C     0.24760   0.26582   0.51385   0.00000  Uiso   1.00
C282   C     0.25996   0.41943   0.75836   0.00000  Uiso   1.00
C283   C     0.31042   0.42680   0.78463   0.00000  Uiso   1.00
C284   C     0.28087   0.38761   0.84748   0.00000  Uiso   1.00
C285   C     0.26140   0.33573   0.94740   0.00000  Uiso   1.00
C286   C     0.22609   0.49273   0.70180   0.00000  Uiso   1.00
C287   C     0.24805   0.56173   0.68054   0.00000  Uiso   1.00
C288   C     0.18998   0.58425   0.69578   0.00000  Uiso   1.00
C289   C     0.11791   0.64617   0.70789   0.00000  Uiso   1.00
C290   C     0.13787   0.37458   0.75546   0.00000  Uiso   1.00
C291   C     0.17947   0.35803   0.69125   0.00000  Uiso   1.00
C292   C     0.14709   0.30495   0.66800   0.00000  Uiso   1.00
C293   C     0.19475   0.29836   0.60818   0.00000  Uiso   1.00
C294   C     0.18273   0.37453   0.79361   0.00000  Uiso   1.00
C295   C     0.15310   0.33533   0.85643   0.00000  Uiso   1.00
C296   C     0.20350   0.34263   0.88279   0.00000  Uiso   1.00
C297   C     0.14885   0.44782   0.73705   0.00000  Uiso   1.00
C298   C     0.09073   0.47025   0.75233   0.00000  Uiso   1.00
C299   C     0.11260   0.53927   0.73109   0.00000  Uiso   1.00
H300   H     0.34019   0.49222   0.66312   0.00000  Uiso   1.00
H301   H     0.36418   0.43119   0.56894   0.00000  Uiso   1.00
H302   H     0.37018   0.46156   0.75735   0.00000  Uiso   1.00
H303   H     0.30782   0.59646   0.65326   0.00000  Uiso   1.00
H304   H     0.35672   0.34370   0.48007   0.00000  Uiso   1.00
H305   H     0.36937   0.40777   0.87735   0.00000  Uiso   1.00
H306   H     0.23788   0.69224   0.65787   0.00000  Uiso   1.00
H307   H     0.07774   0.33961   0.78290   0.00000  Uiso   1.00
H308   H     0.08732   0.27021   0.69529   0.00000  Uiso   1.00
H309   H     0.09333   0.30058   0.88370   0.00000  Uiso   1.00
H310   H     0.03097   0.43548   0.77961   0.00000  Uiso   1.00
H311   H     0.13202   0.21304   0.58262   0.00000  Uiso   1.00
H312   H     0.14467   0.27711   0.97990   0.00000  Uiso   1.00
H313   H     0.01317   0.56158   0.76042   0.00000  Uiso   1.00
O314   O     0.25542   0.23546   0.47156   0.00000  Uiso   1.00
O315   O     0.27201   0.31952   0.99278   0.00000  Uiso   1.00
O316   O     0.09950   0.69273   0.70482   0.00000  Uiso   1.00
N317   N     0.30252   0.32249   0.51623   0.00000  Uiso   1.00
N318   N     0.31435   0.38237   0.88765   0.00000  Uiso   1.00
N319   N     0.19141   0.64833   0.68247   0.00000  Uiso   1.00
N320   N     0.18161   0.25218   0.57141   0.00000  Uiso   1.00
N321   N     0.19344   0.31207   0.94284   0.00000  Uiso   1.00
N322   N     0.07050   0.57803   0.73765   0.00000  Uiso   1.00
C323   C     0.98272   0.88400   0.95431   0.00000  Uiso   1.00
C324   C     0.91327   0.82677   0.01048   0.00000  Uiso   1.00
C325   C     0.91494   0.77421   0.04734   0.00000  Uiso   1.00
C326   C     0.84521   0.72687   0.09658   0.00000  Uiso   1.00
C327   C     0.74785   0.63724   0.18202   0.00000  Uiso   1.00
C328   C     0.98060   0.94969   0.97245   0.00000  Uiso   1.00
C329   C     0.03890   0.00049   0.97731   0.00000  Uiso   1.00
C330   C     0.02585   0.05663   0.99453   0.00000  Uiso   1.00
C331   C     0.03305   0.15786   0.02087   0.00000  Uiso   1.00
C332   C     0.96740   0.88198   0.89502   0.00000  Uiso   1.00
C333   C     0.01459   0.87586   0.83477   0.00000  Uiso   1.00
C334   C     0.99043   0.87500   0.78680   0.00000  Uiso   1.00
C335   C     0.97712   0.87110   0.69292   0.00000  Uiso   1.00
C336   C     0.85592   0.89338   0.97623   0.00000  Uiso   1.00
C337   C     0.84439   0.83187   0.02239   0.00000  Uiso   1.00
C338   C     0.77464   0.78459   0.07159   0.00000  Uiso   1.00
C339   C     0.77621   0.73197   0.10851   0.00000  Uiso   1.00
C340   C     0.91173   0.95479   0.98436   0.00000  Uiso   1.00
C341   C     0.89860   0.01087   0.00157   0.00000  Uiso   1.00
C342   C     0.95685   0.06173   0.00646   0.00000  Uiso   1.00
C343   C     0.89852   0.88707   0.90693   0.00000  Uiso   1.00
C344   C     0.87428   0.88623   0.85903   0.00000  Uiso   1.00
C345   C     0.92143   0.88011   0.79873   0.00000  Uiso   1.00
H346   H     0.03635   0.88004   0.94504   0.00000  Uiso   1.00
H347   H     0.96826   0.77029   0.03811   0.00000  Uiso   1.00
H348   H     0.09219   0.99653   0.96809   0.00000  Uiso   1.00
H349   H     0.06788   0.87192   0.82558   0.00000  Uiso   1.00
H350   H     0.86239   0.65087   0.14656   0.00000  Uiso   1.00
H351   H     0.12373   0.12793   0.99890   0.00000  Uiso   1.00
H352   H     0.07247   0.86516   0.69838   0.00000  Uiso   1.00
H353   H     0.80229   0.89735   0.98550   0.00000  Uiso   1.00
H354   H     0.72135   0.78855   0.08079   0.00000  Uiso   1.00
H355   H     0.84529   0.01479   0.01078   0.00000  Uiso   1.00
H356   H     0.82098   0.89018   0.86826   0.00000  Uiso   1.00
H357   H     0.66200   0.66569   0.18121   0.00000  Uiso   1.00
H358   H     0.92333   0.14275   0.03355   0.00000  Uiso   1.00
H359   H     0.87208   0.87998   0.73303   0.00000  Uiso   1.00
O360   O     0.71318   0.58640   0.22586   0.00000  Uiso   1.00
O361   O     0.05605   0.21229   0.03212   0.00000  Uiso   1.00
O362   O     0.98880   0.86754   0.63785   0.00000  Uiso   1.00
N363   N     0.82634   0.66928   0.14163   0.00000  Uiso   1.00
N364   N     0.07066   0.11530   0.00359   0.00000  Uiso   1.00
N365   N     0.02276   0.86965   0.72262   0.00000  Uiso   1.00
N366   N     0.71850   0.67726   0.16027   0.00000  Uiso   1.00
N367   N     0.96283   0.12327   0.02223   0.00000  Uiso   1.00
N368   N     0.91492   0.87762   0.74126   0.00000  Uiso   1.00
C369   C     0.76163   0.28238   0.28076   0.00000  Uiso   1.00
C370   C     0.76278   0.33055   0.22819   0.00000  Uiso   1.00
C371   C     0.74784   0.38782   0.23575   0.00000  Uiso   1.00
C372   C     0.75181   0.42524   0.18179   0.00000  Uiso   1.00
C373   C     0.75086   0.50298   0.10918   0.00000  Uiso   1.00
C374   C     0.84023   0.28019   0.25137   0.00000  Uiso   1.00
C375   C     0.89041   0.29511   0.27842   0.00000  Uiso   1.00
C376   C     0.95957   0.29013   0.24397   0.00000  Uiso   1.00
C377   C     0.07884   0.28964   0.20737   0.00000  Uiso   1.00
C378   C     0.70491   0.21215   0.28783   0.00000  Uiso   1.00
C379   C     0.64131   0.16984   0.34554   0.00000  Uiso   1.00
C380   C     0.59655   0.10756   0.34180   0.00000  Uiso   1.00
C381   C     0.50572   0.00142   0.36181   0.00000  Uiso   1.00
C382   C     0.79524   0.24699   0.17148   0.00000  Uiso   1.00
C383   C     0.78104   0.31133   0.16884   0.00000  Uiso   1.00
C384   C     0.78503   0.34867   0.11485   0.00000  Uiso   1.00
C385   C     0.77010   0.40598   0.12233   0.00000  Uiso   1.00
C386   C     0.85849   0.26097   0.19201   0.00000  Uiso   1.00
C387   C     0.92760   0.25596   0.15752   0.00000  Uiso   1.00
C388   C     0.97786   0.27087   0.18451   0.00000  Uiso   1.00
C389   C     0.72317   0.19292   0.22848   0.00000  Uiso   1.00
C390   C     0.67850   0.13069   0.22464   0.00000  Uiso   1.00
C391   C     0.61485   0.08831   0.28233   0.00000  Uiso   1.00
H392   H     0.74742   0.29734   0.32697   0.00000  Uiso   1.00
H393   H     0.73372   0.40268   0.28169   0.00000  Uiso   1.00
H394   H     0.87626   0.30998   0.32436   0.00000  Uiso   1.00
H395   H     0.62720   0.18473   0.39147   0.00000  Uiso   1.00
H396   H     0.72661   0.51101   0.20531   0.00000  Uiso   1.00
H397   H     0.02715   0.31551   0.29528   0.00000  Uiso   1.00
H398   H     0.50197   0.05141   0.43680   0.00000  Uiso   1.00
H399   H     0.80946   0.23203   0.12527   0.00000  Uiso   1.00
H400   H     0.79916   0.33378   0.06892   0.00000  Uiso   1.00
H401   H     0.94171   0.24108   0.11159   0.00000  Uiso   1.00
H402   H     0.69265   0.11584   0.17870   0.00000  Uiso   1.00
H403   H     0.77974   0.45509   0.03262   0.00000  Uiso   1.00
H404   H     0.08027   0.25959   0.12259   0.00000  Uiso   1.00
H405   H     0.55509   0.99549   0.26411   0.00000  Uiso   1.00
O406   O     0.74531   0.55118   0.08553   0.00000  Uiso   1.00
O407   O     0.13959   0.29468   0.20358   0.00000  Uiso   1.00
O408   O     0.45057   0.94819   0.38924   0.00000  Uiso   1.00
N409   N     0.74051   0.48387   0.17240   0.00000  Uiso   1.00
N410   N     0.02150   0.30111   0.25652   0.00000  Uiso   1.00
N411   N     0.53051   0.05419   0.38883   0.00000  Uiso   1.00
N412   N     0.76910   0.45378   0.07948   0.00000  Uiso   1.00
N413   N     0.05009   0.27102   0.16359   0.00000  Uiso   1.00
N414   N     0.55910   0.02410   0.29591   0.00000  Uiso   1.00
C415   C     0.38141   0.83827   0.16080   0.00000  Uiso   1.00
C416   C     0.31067   0.83587   0.15497   0.00000  Uiso   1.00
C417   C     0.30283   0.89060   0.12800   0.00000  Uiso   1.00
C418   C     0.23359   0.87794   0.12724   0.00000  Uiso   1.00
C419   C     0.13274   0.88411   0.11437   0.00000  Uiso   1.00
C420   C     0.35425   0.81022   0.23336   0.00000  Uiso   1.00
C421   C     0.38308   0.84337   0.27229   0.00000  Uiso   1.00
C422   C     0.35053   0.80911   0.33752   0.00000  Uiso   1.00
C423   C     0.31739   0.77544   0.44634   0.00000  Uiso   1.00
C424   C     0.40458   0.78664   0.12601   0.00000  Uiso   1.00
C425   C     0.47573   0.79996   0.07470   0.00000  Uiso   1.00
C426   C     0.48556   0.74584   0.04955   0.00000  Uiso   1.00
C427   C     0.53056   0.67555   0.99169   0.00000  Uiso   1.00
C428   C     0.27238   0.71847   0.20739   0.00000  Uiso   1.00
C429   C     0.25144   0.77080   0.18028   0.00000  Uiso   1.00
C430   C     0.18220   0.75805   0.17956   0.00000  Uiso   1.00
C431   C     0.17426   0.81275   0.15259   0.00000  Uiso   1.00
C432   C     0.29503   0.74515   0.25867   0.00000  Uiso   1.00
C433   C     0.26244   0.71082   0.32385   0.00000  Uiso   1.00
C434   C     0.29120   0.74392   0.36288   0.00000  Uiso   1.00
C435   C     0.34536   0.72156   0.15132   0.00000  Uiso   1.00
C436   C     0.35509   0.66741   0.12625   0.00000  Uiso   1.00
C437   C     0.42623   0.68065   0.07491   0.00000  Uiso   1.00
H438   H     0.42752   0.88894   0.14110   0.00000  Uiso   1.00
H439   H     0.34867   0.94095   0.10842   0.00000  Uiso   1.00
H440   H     0.42891   0.89373   0.25269   0.00000  Uiso   1.00
H441   H     0.52154   0.85032   0.05512   0.00000  Uiso   1.00
H442   H     0.23513   0.96993   0.08339   0.00000  Uiso   1.00
H443   H     0.40434   0.87035   0.38758   0.00000  Uiso   1.00
H444   H     0.59967   0.77882   0.97097   0.00000  Uiso   1.00
H445   H     0.22627   0.66780   0.22710   0.00000  Uiso   1.00
H446   H     0.13638   0.70769   0.19915   0.00000  Uiso   1.00
H447   H     0.21661   0.66046   0.34342   0.00000  Uiso   1.00
H448   H     0.30925   0.61706   0.14585   0.00000  Uiso   1.00
H449   H     0.06282   0.78060   0.15702   0.00000  Uiso   1.00
H450   H     0.23203   0.68102   0.46122   0.00000  Uiso   1.00
H451   H     0.42736   0.58949   0.04460   0.00000  Uiso   1.00
O452   O     0.09347   0.90550   0.10028   0.00000  Uiso   1.00
O453   O     0.31547   0.77484   0.49937   0.00000  Uiso   1.00
O454   O     0.57174   0.65476   0.95278   0.00000  Uiso   1.00
N455   N     0.20692   0.91990   0.10454   0.00000  Uiso   1.00
N456   N     0.36511   0.82680   0.38895   0.00000  Uiso   1.00
N457   N     0.54774   0.74122   0.99946   0.00000  Uiso   1.00
N458   N     0.11420   0.81802   0.14416   0.00000  Uiso   1.00
N459   N     0.27239   0.72492   0.42857   0.00000  Uiso   1.00
N460   N     0.45502   0.63935   0.03908   0.00000  Uiso   1.00
C461   C     0.04466   0.10074   0.37406   0.00000  Uiso   1.00
C462   C     0.95923   0.05751   0.41584   0.00000  Uiso   1.00
C463   C     0.90392   0.08159   0.44693   0.00000  Uiso   1.00
C464   C     0.82890   0.03387   0.48287   0.00000  Uiso   1.00
C465   C     0.69913   0.97729   0.54707   0.00000  Uiso   1.00
C466   C     0.08493   0.07332   0.40471   0.00000  Uiso   1.00
C467   C     0.13532   0.11071   0.42644   0.00000  Uiso   1.00
C468   C     0.16612   0.07630   0.45301   0.00000  Uiso   1.00
C469   C     0.23154   0.04428   0.49988   0.00000  Uiso   1.00
C470   C     0.06593   0.08394   0.30748   0.00000  Uiso   1.00
C471   C     0.10036   0.13026   0.24745   0.00000  Uiso   1.00
C472   C     0.11518   0.10480   0.19215   0.00000  Uiso   1.00
C473   C     0.15111   0.08927   0.08806   0.00000  Uiso   1.00
C474   C     0.00978   0.97315   0.38259   0.00000  Uiso   1.00
C475   C     0.94029   0.98821   0.42047   0.00000  Uiso   1.00
C476   C     0.86533   0.94044   0.45637   0.00000  Uiso   1.00
C477   C     0.80992   0.96445   0.48751   0.00000  Uiso   1.00
C478   C     0.06599   0.00403   0.40934   0.00000  Uiso   1.00
C479   C     0.09672   0.96955   0.43588   0.00000  Uiso   1.00
C480   C     0.14714   0.00687   0.45765   0.00000  Uiso   1.00
C481   C     0.04698   0.01465   0.31211   0.00000  Uiso   1.00
C482   C     0.06176   0.98911   0.25689   0.00000  Uiso   1.00
C483   C     0.09621   0.03538   0.19679   0.00000  Uiso   1.00
H484   H     0.05942   0.15469   0.37046   0.00000  Uiso   1.00
H485   H     0.91861   0.13523   0.44334   0.00000  Uiso   1.00
H486   H     0.14997   0.16433   0.42284   0.00000  Uiso   1.00
H487   H     0.11502   0.18388   0.24389   0.00000  Uiso   1.00
H488   H     0.75415   0.08309   0.52621   0.00000  Uiso   1.00
H489   H     0.24201   0.14447   0.48297   0.00000  Uiso   1.00
H490   H     0.16830   0.18570   0.10561   0.00000  Uiso   1.00
H491   H     0.99504   0.91920   0.38620   0.00000  Uiso   1.00
H492   H     0.85069   0.88682   0.45995   0.00000  Uiso   1.00
H493   H     0.08205   0.91593   0.43945   0.00000  Uiso   1.00
H494   H     0.04710   0.93548   0.26049   0.00000  Uiso   1.00
H495   H     0.69902   0.88147   0.53969   0.00000  Uiso   1.00
H496   H     0.18688   0.94286   0.49645   0.00000  Uiso   1.00
H497   H     0.11317   0.98408   0.11909   0.00000  Uiso   1.00
O498   O     0.63279   0.96523   0.58120   0.00000  Uiso   1.00
O499   O     0.27286   0.04576   0.52446   0.00000  Uiso   1.00
O500   O     0.17615   0.09985   0.02937   0.00000  Uiso   1.00
N501   N     0.76098   0.04008   0.51925   0.00000  Uiso   1.00
N502   N     0.21709   0.09747   0.47884   0.00000  Uiso   1.00
N503   N     0.14820   0.13602   0.12603   0.00000  Uiso   1.00
N504   N     0.73131   0.93160   0.52651   0.00000  Uiso   1.00
N505   N     0.18743   0.98898   0.48609   0.00000  Uiso   1.00
N506   N     0.11853   0.02753   0.13328   0.00000  Uiso   1.00
C507   C     0.87307   0.51089   0.63275   0.00000  Uiso   1.00
C508   C     0.88706   0.48248   0.57234   0.00000  Uiso   1.00
C509   C     0.91114   0.43038   0.56124   0.00000  Uiso   1.00
C510   C     0.92062   0.41176   0.50293   0.00000  Uiso   1.00
C511   C     0.94453   0.36276   0.41604   0.00000  Uiso   1.00
C512   C     0.92363   0.58666   0.60733   0.00000  Uiso   1.00
C513   C     0.97843   0.62215   0.62567   0.00000  Uiso   1.00
C514   C     0.01868   0.69124   0.59682   0.00000  Uiso   1.00
C515   C     0.09931   0.80398   0.56429   0.00000  Uiso   1.00
C516   C     0.79075   0.50436   0.66115   0.00000  Uiso   1.00
C517   C     0.73382   0.47067   0.72473   0.00000  Uiso   1.00
C518   C     0.66221   0.47048   0.74120   0.00000  Uiso   1.00
C519   C     0.53652   0.45544   0.79222   0.00000  Uiso   1.00
C520   C     0.84711   0.57048   0.54893   0.00000  Uiso   1.00
C521   C     0.87296   0.51485   0.52681   0.00000  Uiso   1.00
C522   C     0.88241   0.49631   0.46850   0.00000  Uiso   1.00
C523   C     0.90649   0.44419   0.45732   0.00000  Uiso   1.00
C524   C     0.90953   0.61903   0.56181   0.00000  Uiso   1.00
C525   C     0.94971   0.68808   0.53293   0.00000  Uiso   1.00
C526   C     0.00456   0.72366   0.55121   0.00000  Uiso   1.00
C527   C     0.77664   0.53673   0.61562   0.00000  Uiso   1.00
C528   C     0.70510   0.53660   0.63199   0.00000  Uiso   1.00
C529   C     0.64808   0.50291   0.69559   0.00000  Uiso   1.00
H530   H     0.88405   0.48569   0.66820   0.00000  Uiso   1.00
H531   H     0.92205   0.40535   0.59649   0.00000  Uiso   1.00
H532   H     0.98932   0.59709   0.66090   0.00000  Uiso   1.00
H533   H     0.74476   0.44563   0.75995   0.00000  Uiso   1.00
H534   H     0.95798   0.33056   0.49689   0.00000  Uiso   1.00
H535   H     0.09982   0.73486   0.63274   0.00000  Uiso   1.00
H536   H     0.58410   0.41548   0.84160   0.00000  Uiso   1.00
H537   H     0.83613   0.59568   0.51349   0.00000  Uiso   1.00
H538   H     0.87150   0.52137   0.43328   0.00000  Uiso   1.00
H539   H     0.93877   0.71311   0.49770   0.00000  Uiso   1.00
H540   H     0.69421   0.56165   0.59675   0.00000  Uiso   1.00
H541   H     0.91696   0.42473   0.36442   0.00000  Uiso   1.00
H542   H     0.05879   0.82903   0.50027   0.00000  Uiso   1.00
H543   H     0.54307   0.50965   0.70913   0.00000  Uiso   1.00
O544   O     0.96162   0.32679   0.38068   0.00000  Uiso   1.00
O545   O     0.14769   0.85722   0.55891   0.00000  Uiso   1.00
O546   O     0.47109   0.43819   0.83293   0.00000  Uiso   1.00
N547   N     0.94346   0.36291   0.47673   0.00000  Uiso   1.00
N548   N     0.07607   0.74091   0.60373   0.00000  Uiso   1.00
N549   N     0.59393   0.44233   0.79900   0.00000  Uiso   1.00
N550   N     0.92138   0.41358   0.40545   0.00000  Uiso   1.00
N551   N     0.05400   0.79158   0.53245   0.00000  Uiso   1.00
N552   N     0.57185   0.49300   0.72772   0.00000  Uiso   1.00
