data_job_00520
_audit_creation_date              2018-12-19
_audit_creation_method            'Materials Studio'
_symmetry_space_group_name_H-M    'P1'
_symmetry_Int_Tables_number       1
_symmetry_cell_setting            triclinic
loop_
_symmetry_equiv_pos_as_xyz
  x,y,z
_cell_length_a                    15.6218
_cell_length_b                    17.0378
_cell_length_c                    18.1770
_cell_angle_alpha                 90.0000
_cell_angle_beta                  90.0000
_cell_angle_gamma                 90.0000
loop_
_atom_site_label
_atom_site_type_symbol
_atom_site_fract_x
_atom_site_fract_y
_atom_site_fract_z
_atom_site_U_iso_or_equiv
_atom_site_adp_type
_atom_site_occupancy
C1     C     0.11139   0.49152   0.32505   0.00000  Uiso   1.00
C2     C     0.17982   0.47189   0.26812   0.00000  Uiso   1.00
C3     C     0.16580   0.43492   0.20116   0.00000  Uiso   1.00
C4     C     0.23682   0.42222   0.15682   0.00000  Uiso   1.00
C5     C     0.33060   0.38814   0.06510   0.00000  Uiso   1.00
C6     C     0.14006   0.45255   0.39644   0.00000  Uiso   1.00
C7     C     0.09260   0.39932   0.43739   0.00000  Uiso   1.00
C8     C     0.13015   0.37035   0.50108   0.00000  Uiso   1.00
C9     C     0.16217   0.30629   0.60862   0.00000  Uiso   1.00
C10    C     0.11782   0.57971   0.33821   0.00000  Uiso   1.00
C11    C     0.05166   0.63340   0.33021   0.00000  Uiso   1.00
C12    C     0.07048   0.71149   0.34488   0.00000  Uiso   1.00
C13    C     0.06797   0.84487   0.36200   0.00000  Uiso   1.00
C14    C     0.26245   0.53473   0.36535   0.00000  Uiso   1.00
C15    C     0.26187   0.49536   0.29001   0.00000  Uiso   1.00
C16    C     0.33293   0.48273   0.24575   0.00000  Uiso   1.00
C17    C     0.31902   0.44574   0.17874   0.00000  Uiso   1.00
C18    C     0.22210   0.47602   0.41833   0.00000  Uiso   1.00
C19    C     0.25973   0.44713   0.48197   0.00000  Uiso   1.00
C20    C     0.21235   0.39386   0.52300   0.00000  Uiso   1.00
C21    C     0.19987   0.60319   0.36009   0.00000  Uiso   1.00
C22    C     0.21879   0.68121   0.37479   0.00000  Uiso   1.00
C23    C     0.15268   0.73500   0.36681   0.00000  Uiso   1.00
H24    H     0.04751   0.47324   0.30801   0.00000  Uiso   1.00
H25    H     0.10229   0.41675   0.18425   0.00000  Uiso   1.00
H26    H     0.02910   0.38117   0.42044   0.00000  Uiso   1.00
H27    H     0.98817   0.61521   0.31327   0.00000  Uiso   1.00
H28    H     0.19922   0.36445   0.05670   0.00000  Uiso   1.00
H29    H     0.04488   0.28945   0.55474   0.00000  Uiso   1.00
H30    H     0.95856   0.78297   0.32875   0.00000  Uiso   1.00
H31    H     0.32633   0.55300   0.38239   0.00000  Uiso   1.00
H32    H     0.39642   0.50089   0.26270   0.00000  Uiso   1.00
H33    H     0.32323   0.46531   0.49890   0.00000  Uiso   1.00
H34    H     0.28230   0.69935   0.39173   0.00000  Uiso   1.00
H35    H     0.43795   0.43274   0.12038   0.00000  Uiso   1.00
H36    H     0.28360   0.35774   0.61842   0.00000  Uiso   1.00
H37    H     0.19729   0.85126   0.39243   0.00000  Uiso   1.00
O38    O     0.35966   0.36285   0.00847   0.00000  Uiso   1.00
O39    O     0.15717   0.26446   0.66189   0.00000  Uiso   1.00
O40    O     0.04392   0.91195   0.36539   0.00000  Uiso   1.00
N41    N     0.24578   0.38769   0.08810   0.00000  Uiso   1.00
N42    N     0.10149   0.31755   0.55373   0.00000  Uiso   1.00
N43    N     0.02079   0.77895   0.34247   0.00000  Uiso   1.00
N44    N     0.37424   0.42444   0.12237   0.00000  Uiso   1.00
N45    N     0.22995   0.35430   0.58800   0.00000  Uiso   1.00
N46    N     0.14924   0.81570   0.37674   0.00000  Uiso   1.00
C47    C     0.38861   0.00848   0.82505   0.00000  Uiso   1.00
C48    C     0.32018   0.02811   0.76812   0.00000  Uiso   1.00
C49    C     0.33420   0.06508   0.70116   0.00000  Uiso   1.00
C50    C     0.26318   0.07778   0.65682   0.00000  Uiso   1.00
C51    C     0.16940   0.11186   0.56510   0.00000  Uiso   1.00
C52    C     0.35994   0.04745   0.89644   0.00000  Uiso   1.00
C53    C     0.40740   0.10068   0.93739   0.00000  Uiso   1.00
C54    C     0.36985   0.12965   0.00108   0.00000  Uiso   1.00
C55    C     0.33783   0.19371   0.10862   0.00000  Uiso   1.00
C56    C     0.38218   0.92029   0.83821   0.00000  Uiso   1.00
C57    C     0.44834   0.86660   0.83021   0.00000  Uiso   1.00
C58    C     0.42952   0.78851   0.84488   0.00000  Uiso   1.00
C59    C     0.43203   0.65513   0.86200   0.00000  Uiso   1.00
C60    C     0.23755   0.96527   0.86535   0.00000  Uiso   1.00
C61    C     0.23813   0.00464   0.79001   0.00000  Uiso   1.00
C62    C     0.16707   0.01727   0.74575   0.00000  Uiso   1.00
C63    C     0.18098   0.05426   0.67874   0.00000  Uiso   1.00
C64    C     0.27790   0.02398   0.91833   0.00000  Uiso   1.00
C65    C     0.24027   0.05287   0.98197   0.00000  Uiso   1.00
C66    C     0.28765   0.10614   0.02300   0.00000  Uiso   1.00
C67    C     0.30013   0.89681   0.86009   0.00000  Uiso   1.00
C68    C     0.28121   0.81879   0.87479   0.00000  Uiso   1.00
C69    C     0.34732   0.76500   0.86681   0.00000  Uiso   1.00
H70    H     0.45249   0.02676   0.80801   0.00000  Uiso   1.00
H71    H     0.39771   0.08325   0.68425   0.00000  Uiso   1.00
H72    H     0.47090   0.11883   0.92044   0.00000  Uiso   1.00
H73    H     0.51183   0.88479   0.81327   0.00000  Uiso   1.00
H74    H     0.30078   0.13555   0.55670   0.00000  Uiso   1.00
H75    H     0.45512   0.21055   0.05474   0.00000  Uiso   1.00
H76    H     0.54144   0.71703   0.82875   0.00000  Uiso   1.00
H77    H     0.17367   0.94700   0.88239   0.00000  Uiso   1.00
H78    H     0.10358   0.99911   0.76270   0.00000  Uiso   1.00
H79    H     0.17677   0.03469   0.99890   0.00000  Uiso   1.00
H80    H     0.21770   0.80065   0.89173   0.00000  Uiso   1.00
H81    H     0.06205   0.06726   0.62038   0.00000  Uiso   1.00
H82    H     0.21640   0.14226   0.11842   0.00000  Uiso   1.00
H83    H     0.30271   0.64874   0.89243   0.00000  Uiso   1.00
O84    O     0.14034   0.13715   0.50847   0.00000  Uiso   1.00
O85    O     0.34283   0.23554   0.16189   0.00000  Uiso   1.00
O86    O     0.45608   0.58805   0.86539   0.00000  Uiso   1.00
N87    N     0.25422   0.11231   0.58810   0.00000  Uiso   1.00
N88    N     0.39851   0.18245   0.05373   0.00000  Uiso   1.00
N89    N     0.47921   0.72105   0.84247   0.00000  Uiso   1.00
N90    N     0.12576   0.07556   0.62237   0.00000  Uiso   1.00
N91    N     0.27005   0.14570   0.08800   0.00000  Uiso   1.00
N92    N     0.35076   0.68430   0.87674   0.00000  Uiso   1.00
C93    C     0.88861   0.49152   0.17495   0.00000  Uiso   1.00
C94    C     0.82018   0.47189   0.23188   0.00000  Uiso   1.00
C95    C     0.83420   0.43492   0.29884   0.00000  Uiso   1.00
C96    C     0.76318   0.42222   0.34318   0.00000  Uiso   1.00
C97    C     0.66940   0.38814   0.43490   0.00000  Uiso   1.00
C98    C     0.85994   0.45255   0.10356   0.00000  Uiso   1.00
C99    C     0.90740   0.39932   0.06261   0.00000  Uiso   1.00
C100   C     0.86985   0.37035   0.99892   0.00000  Uiso   1.00
C101   C     0.83783   0.30629   0.89138   0.00000  Uiso   1.00
C102   C     0.88218   0.57971   0.16179   0.00000  Uiso   1.00
C103   C     0.94834   0.63340   0.16979   0.00000  Uiso   1.00
C104   C     0.92952   0.71149   0.15512   0.00000  Uiso   1.00
C105   C     0.93203   0.84487   0.13800   0.00000  Uiso   1.00
C106   C     0.73755   0.53473   0.13465   0.00000  Uiso   1.00
C107   C     0.73813   0.49536   0.20999   0.00000  Uiso   1.00
C108   C     0.66707   0.48273   0.25425   0.00000  Uiso   1.00
C109   C     0.68098   0.44574   0.32126   0.00000  Uiso   1.00
C110   C     0.77790   0.47602   0.08167   0.00000  Uiso   1.00
C111   C     0.74027   0.44713   0.01803   0.00000  Uiso   1.00
C112   C     0.78765   0.39386   0.97700   0.00000  Uiso   1.00
C113   C     0.80013   0.60319   0.13991   0.00000  Uiso   1.00
C114   C     0.78121   0.68121   0.12521   0.00000  Uiso   1.00
C115   C     0.84732   0.73500   0.13319   0.00000  Uiso   1.00
H116   H     0.95249   0.47324   0.19199   0.00000  Uiso   1.00
H117   H     0.89771   0.41675   0.31575   0.00000  Uiso   1.00
H118   H     0.97090   0.38117   0.07956   0.00000  Uiso   1.00
H119   H     0.01183   0.61521   0.18673   0.00000  Uiso   1.00
H120   H     0.80078   0.36445   0.44330   0.00000  Uiso   1.00
H121   H     0.95512   0.28945   0.94526   0.00000  Uiso   1.00
H122   H     0.04144   0.78297   0.17125   0.00000  Uiso   1.00
H123   H     0.67367   0.55300   0.11761   0.00000  Uiso   1.00
H124   H     0.60358   0.50089   0.23730   0.00000  Uiso   1.00
H125   H     0.67677   0.46531   0.00110   0.00000  Uiso   1.00
H126   H     0.71770   0.69935   0.10827   0.00000  Uiso   1.00
H127   H     0.56205   0.43274   0.37962   0.00000  Uiso   1.00
H128   H     0.71640   0.35774   0.88158   0.00000  Uiso   1.00
H129   H     0.80271   0.85126   0.10757   0.00000  Uiso   1.00
O130   O     0.64034   0.36285   0.49153   0.00000  Uiso   1.00
O131   O     0.84283   0.26446   0.83811   0.00000  Uiso   1.00
O132   O     0.95608   0.91195   0.13461   0.00000  Uiso   1.00
N133   N     0.75422   0.38769   0.41190   0.00000  Uiso   1.00
N134   N     0.89851   0.31755   0.94627   0.00000  Uiso   1.00
N135   N     0.97921   0.77895   0.15753   0.00000  Uiso   1.00
N136   N     0.62576   0.42444   0.37763   0.00000  Uiso   1.00
N137   N     0.77005   0.35430   0.91200   0.00000  Uiso   1.00
N138   N     0.85076   0.81570   0.12326   0.00000  Uiso   1.00
C139   C     0.61139   0.00848   0.67495   0.00000  Uiso   1.00
C140   C     0.67982   0.02811   0.73188   0.00000  Uiso   1.00
C141   C     0.66580   0.06508   0.79884   0.00000  Uiso   1.00
C142   C     0.73682   0.07778   0.84318   0.00000  Uiso   1.00
C143   C     0.83060   0.11186   0.93490   0.00000  Uiso   1.00
C144   C     0.64006   0.04745   0.60356   0.00000  Uiso   1.00
C145   C     0.59260   0.10068   0.56261   0.00000  Uiso   1.00
C146   C     0.63015   0.12965   0.49892   0.00000  Uiso   1.00
C147   C     0.66217   0.19371   0.39138   0.00000  Uiso   1.00
C148   C     0.61782   0.92029   0.66179   0.00000  Uiso   1.00
C149   C     0.55166   0.86660   0.66979   0.00000  Uiso   1.00
C150   C     0.57048   0.78851   0.65512   0.00000  Uiso   1.00
C151   C     0.56797   0.65513   0.63800   0.00000  Uiso   1.00
C152   C     0.76245   0.96527   0.63465   0.00000  Uiso   1.00
C153   C     0.76187   0.00464   0.70999   0.00000  Uiso   1.00
C154   C     0.83293   0.01727   0.75425   0.00000  Uiso   1.00
C155   C     0.81902   0.05426   0.82126   0.00000  Uiso   1.00
C156   C     0.72210   0.02398   0.58167   0.00000  Uiso   1.00
C157   C     0.75973   0.05287   0.51803   0.00000  Uiso   1.00
C158   C     0.71235   0.10614   0.47700   0.00000  Uiso   1.00
C159   C     0.69987   0.89681   0.63991   0.00000  Uiso   1.00
C160   C     0.71879   0.81879   0.62521   0.00000  Uiso   1.00
C161   C     0.65268   0.76500   0.63319   0.00000  Uiso   1.00
H162   H     0.54751   0.02676   0.69199   0.00000  Uiso   1.00
H163   H     0.60229   0.08325   0.81575   0.00000  Uiso   1.00
H164   H     0.52910   0.11883   0.57956   0.00000  Uiso   1.00
H165   H     0.48817   0.88479   0.68673   0.00000  Uiso   1.00
H166   H     0.69922   0.13555   0.94330   0.00000  Uiso   1.00
H167   H     0.54488   0.21055   0.44526   0.00000  Uiso   1.00
H168   H     0.45856   0.71703   0.67125   0.00000  Uiso   1.00
H169   H     0.82633   0.94700   0.61761   0.00000  Uiso   1.00
H170   H     0.89642   0.99911   0.73730   0.00000  Uiso   1.00
H171   H     0.82323   0.03469   0.50110   0.00000  Uiso   1.00
H172   H     0.78230   0.80065   0.60827   0.00000  Uiso   1.00
H173   H     0.93795   0.06726   0.87962   0.00000  Uiso   1.00
H174   H     0.78360   0.14226   0.38158   0.00000  Uiso   1.00
H175   H     0.69729   0.64874   0.60757   0.00000  Uiso   1.00
O176   O     0.85966   0.13715   0.99153   0.00000  Uiso   1.00
O177   O     0.65717   0.23554   0.33811   0.00000  Uiso   1.00
O178   O     0.54392   0.58805   0.63461   0.00000  Uiso   1.00
N179   N     0.74578   0.11231   0.91190   0.00000  Uiso   1.00
N180   N     0.60149   0.18245   0.44627   0.00000  Uiso   1.00
N181   N     0.52079   0.72105   0.65753   0.00000  Uiso   1.00
N182   N     0.87424   0.07556   0.87763   0.00000  Uiso   1.00
N183   N     0.72995   0.14570   0.41200   0.00000  Uiso   1.00
N184   N     0.64924   0.68430   0.62326   0.00000  Uiso   1.00
C185   C     0.88861   0.50848   0.67495   0.00000  Uiso   1.00
C186   C     0.82018   0.52811   0.73188   0.00000  Uiso   1.00
C187   C     0.83420   0.56508   0.79884   0.00000  Uiso   1.00
C188   C     0.76318   0.57778   0.84318   0.00000  Uiso   1.00
C189   C     0.66940   0.61186   0.93490   0.00000  Uiso   1.00
C190   C     0.85994   0.54745   0.60356   0.00000  Uiso   1.00
C191   C     0.90740   0.60068   0.56261   0.00000  Uiso   1.00
C192   C     0.86985   0.62965   0.49892   0.00000  Uiso   1.00
C193   C     0.83783   0.69371   0.39138   0.00000  Uiso   1.00
C194   C     0.88218   0.42029   0.66179   0.00000  Uiso   1.00
C195   C     0.94834   0.36660   0.66979   0.00000  Uiso   1.00
C196   C     0.92952   0.28851   0.65512   0.00000  Uiso   1.00
C197   C     0.93203   0.15513   0.63800   0.00000  Uiso   1.00
C198   C     0.73755   0.46527   0.63465   0.00000  Uiso   1.00
C199   C     0.73813   0.50464   0.70999   0.00000  Uiso   1.00
C200   C     0.66707   0.51727   0.75425   0.00000  Uiso   1.00
C201   C     0.68098   0.55426   0.82126   0.00000  Uiso   1.00
C202   C     0.77790   0.52398   0.58167   0.00000  Uiso   1.00
C203   C     0.74027   0.55287   0.51803   0.00000  Uiso   1.00
C204   C     0.78765   0.60614   0.47700   0.00000  Uiso   1.00
C205   C     0.80013   0.39681   0.63991   0.00000  Uiso   1.00
C206   C     0.78121   0.31879   0.62521   0.00000  Uiso   1.00
C207   C     0.84732   0.26500   0.63319   0.00000  Uiso   1.00
H208   H     0.95249   0.52676   0.69199   0.00000  Uiso   1.00
H209   H     0.89771   0.58325   0.81575   0.00000  Uiso   1.00
H210   H     0.97090   0.61883   0.57956   0.00000  Uiso   1.00
H211   H     0.01183   0.38479   0.68673   0.00000  Uiso   1.00
H212   H     0.80078   0.63555   0.94330   0.00000  Uiso   1.00
H213   H     0.95512   0.71055   0.44526   0.00000  Uiso   1.00
H214   H     0.04144   0.21703   0.67125   0.00000  Uiso   1.00
H215   H     0.67367   0.44700   0.61761   0.00000  Uiso   1.00
H216   H     0.60358   0.49911   0.73730   0.00000  Uiso   1.00
H217   H     0.67677   0.53469   0.50110   0.00000  Uiso   1.00
H218   H     0.71770   0.30065   0.60827   0.00000  Uiso   1.00
H219   H     0.56205   0.56726   0.87962   0.00000  Uiso   1.00
H220   H     0.71640   0.64226   0.38158   0.00000  Uiso   1.00
H221   H     0.80271   0.14874   0.60757   0.00000  Uiso   1.00
O222   O     0.64034   0.63715   0.99153   0.00000  Uiso   1.00
O223   O     0.84283   0.73554   0.33811   0.00000  Uiso   1.00
O224   O     0.95608   0.08805   0.63461   0.00000  Uiso   1.00
N225   N     0.75422   0.61231   0.91190   0.00000  Uiso   1.00
N226   N     0.89851   0.68245   0.44627   0.00000  Uiso   1.00
N227   N     0.97921   0.22105   0.65753   0.00000  Uiso   1.00
N228   N     0.62576   0.57556   0.87763   0.00000  Uiso   1.00
N229   N     0.77005   0.64570   0.41200   0.00000  Uiso   1.00
N230   N     0.85076   0.18430   0.62326   0.00000  Uiso   1.00
C231   C     0.61139   0.99152   0.17495   0.00000  Uiso   1.00
C232   C     0.67982   0.97189   0.23188   0.00000  Uiso   1.00
C233   C     0.66580   0.93492   0.29884   0.00000  Uiso   1.00
C234   C     0.73682   0.92222   0.34318   0.00000  Uiso   1.00
C235   C     0.83060   0.88814   0.43490   0.00000  Uiso   1.00
C236   C     0.64006   0.95255   0.10356   0.00000  Uiso   1.00
C237   C     0.59260   0.89932   0.06261   0.00000  Uiso   1.00
C238   C     0.63015   0.87035   0.99892   0.00000  Uiso   1.00
C239   C     0.66217   0.80629   0.89138   0.00000  Uiso   1.00
C240   C     0.61782   0.07971   0.16179   0.00000  Uiso   1.00
C241   C     0.55166   0.13340   0.16979   0.00000  Uiso   1.00
C242   C     0.57048   0.21149   0.15512   0.00000  Uiso   1.00
C243   C     0.56797   0.34487   0.13800   0.00000  Uiso   1.00
C244   C     0.76245   0.03473   0.13465   0.00000  Uiso   1.00
C245   C     0.76187   0.99536   0.20999   0.00000  Uiso   1.00
C246   C     0.83293   0.98273   0.25425   0.00000  Uiso   1.00
C247   C     0.81902   0.94574   0.32126   0.00000  Uiso   1.00
C248   C     0.72210   0.97602   0.08167   0.00000  Uiso   1.00
C249   C     0.75973   0.94713   0.01803   0.00000  Uiso   1.00
C250   C     0.71235   0.89386   0.97700   0.00000  Uiso   1.00
C251   C     0.69987   0.10319   0.13991   0.00000  Uiso   1.00
C252   C     0.71879   0.18121   0.12521   0.00000  Uiso   1.00
C253   C     0.65268   0.23500   0.13319   0.00000  Uiso   1.00
H254   H     0.54751   0.97324   0.19199   0.00000  Uiso   1.00
H255   H     0.60229   0.91675   0.31575   0.00000  Uiso   1.00
H256   H     0.52910   0.88117   0.07956   0.00000  Uiso   1.00
H257   H     0.48817   0.11521   0.18673   0.00000  Uiso   1.00
H258   H     0.69922   0.86445   0.44330   0.00000  Uiso   1.00
H259   H     0.54488   0.78945   0.94526   0.00000  Uiso   1.00
H260   H     0.45856   0.28297   0.17125   0.00000  Uiso   1.00
H261   H     0.82633   0.05300   0.11761   0.00000  Uiso   1.00
H262   H     0.89642   0.00089   0.23730   0.00000  Uiso   1.00
H263   H     0.82323   0.96531   0.00110   0.00000  Uiso   1.00
H264   H     0.78230   0.19935   0.10827   0.00000  Uiso   1.00
H265   H     0.93795   0.93274   0.37962   0.00000  Uiso   1.00
H266   H     0.78360   0.85774   0.88158   0.00000  Uiso   1.00
H267   H     0.69729   0.35126   0.10757   0.00000  Uiso   1.00
O268   O     0.85966   0.86285   0.49153   0.00000  Uiso   1.00
O269   O     0.65717   0.76446   0.83811   0.00000  Uiso   1.00
O270   O     0.54392   0.41195   0.13461   0.00000  Uiso   1.00
N271   N     0.74578   0.88769   0.41190   0.00000  Uiso   1.00
N272   N     0.60149   0.81755   0.94627   0.00000  Uiso   1.00
N273   N     0.52079   0.27895   0.15753   0.00000  Uiso   1.00
N274   N     0.87424   0.92444   0.37763   0.00000  Uiso   1.00
N275   N     0.72995   0.85430   0.91200   0.00000  Uiso   1.00
N276   N     0.64924   0.31570   0.12326   0.00000  Uiso   1.00
C277   C     0.11139   0.50848   0.82505   0.00000  Uiso   1.00
C278   C     0.17982   0.52811   0.76812   0.00000  Uiso   1.00
C279   C     0.16580   0.56508   0.70116   0.00000  Uiso   1.00
C280   C     0.23682   0.57778   0.65682   0.00000  Uiso   1.00
C281   C     0.33060   0.61186   0.56510   0.00000  Uiso   1.00
C282   C     0.14006   0.54745   0.89644   0.00000  Uiso   1.00
C283   C     0.09260   0.60068   0.93739   0.00000  Uiso   1.00
C284   C     0.13015   0.62965   0.00108   0.00000  Uiso   1.00
C285   C     0.16217   0.69371   0.10862   0.00000  Uiso   1.00
C286   C     0.11782   0.42029   0.83821   0.00000  Uiso   1.00
C287   C     0.05166   0.36660   0.83021   0.00000  Uiso   1.00
C288   C     0.07048   0.28851   0.84488   0.00000  Uiso   1.00
C289   C     0.06797   0.15513   0.86200   0.00000  Uiso   1.00
C290   C     0.26245   0.46527   0.86535   0.00000  Uiso   1.00
C291   C     0.26187   0.50464   0.79001   0.00000  Uiso   1.00
C292   C     0.33293   0.51727   0.74575   0.00000  Uiso   1.00
C293   C     0.31902   0.55426   0.67874   0.00000  Uiso   1.00
C294   C     0.22210   0.52398   0.91833   0.00000  Uiso   1.00
C295   C     0.25973   0.55287   0.98197   0.00000  Uiso   1.00
C296   C     0.21235   0.60614   0.02300   0.00000  Uiso   1.00
C297   C     0.19987   0.39681   0.86009   0.00000  Uiso   1.00
C298   C     0.21879   0.31879   0.87479   0.00000  Uiso   1.00
C299   C     0.15268   0.26500   0.86681   0.00000  Uiso   1.00
H300   H     0.04751   0.52676   0.80801   0.00000  Uiso   1.00
H301   H     0.10229   0.58325   0.68425   0.00000  Uiso   1.00
H302   H     0.02910   0.61883   0.92044   0.00000  Uiso   1.00
H303   H     0.98817   0.38479   0.81327   0.00000  Uiso   1.00
H304   H     0.19922   0.63555   0.55670   0.00000  Uiso   1.00
H305   H     0.04488   0.71055   0.05474   0.00000  Uiso   1.00
H306   H     0.95856   0.21703   0.82875   0.00000  Uiso   1.00
H307   H     0.32633   0.44700   0.88239   0.00000  Uiso   1.00
H308   H     0.39642   0.49911   0.76270   0.00000  Uiso   1.00
H309   H     0.32323   0.53469   0.99890   0.00000  Uiso   1.00
H310   H     0.28230   0.30065   0.89173   0.00000  Uiso   1.00
H311   H     0.43795   0.56726   0.62038   0.00000  Uiso   1.00
H312   H     0.28360   0.64226   0.11842   0.00000  Uiso   1.00
H313   H     0.19729   0.14874   0.89243   0.00000  Uiso   1.00
O314   O     0.35966   0.63715   0.50847   0.00000  Uiso   1.00
O315   O     0.15717   0.73554   0.16189   0.00000  Uiso   1.00
O316   O     0.04392   0.08805   0.86539   0.00000  Uiso   1.00
N317   N     0.24578   0.61231   0.58810   0.00000  Uiso   1.00
N318   N     0.10149   0.68245   0.05373   0.00000  Uiso   1.00
N319   N     0.02079   0.22105   0.84247   0.00000  Uiso   1.00
N320   N     0.37424   0.57556   0.62237   0.00000  Uiso   1.00
N321   N     0.22995   0.64570   0.08800   0.00000  Uiso   1.00
N322   N     0.14924   0.18430   0.87674   0.00000  Uiso   1.00
C323   C     0.38861   0.99152   0.32505   0.00000  Uiso   1.00
C324   C     0.32018   0.97189   0.26812   0.00000  Uiso   1.00
C325   C     0.33420   0.93492   0.20116   0.00000  Uiso   1.00
C326   C     0.26318   0.92222   0.15682   0.00000  Uiso   1.00
C327   C     0.16940   0.88814   0.06510   0.00000  Uiso   1.00
C328   C     0.35994   0.95255   0.39644   0.00000  Uiso   1.00
C329   C     0.40740   0.89932   0.43739   0.00000  Uiso   1.00
C330   C     0.36985   0.87035   0.50108   0.00000  Uiso   1.00
C331   C     0.33783   0.80629   0.60862   0.00000  Uiso   1.00
C332   C     0.38218   0.07971   0.33821   0.00000  Uiso   1.00
C333   C     0.44834   0.13340   0.33021   0.00000  Uiso   1.00
C334   C     0.42952   0.21149   0.34488   0.00000  Uiso   1.00
C335   C     0.43203   0.34487   0.36200   0.00000  Uiso   1.00
C336   C     0.23755   0.03473   0.36535   0.00000  Uiso   1.00
C337   C     0.23813   0.99536   0.29001   0.00000  Uiso   1.00
C338   C     0.16707   0.98273   0.24575   0.00000  Uiso   1.00
C339   C     0.18098   0.94574   0.17874   0.00000  Uiso   1.00
C340   C     0.27790   0.97602   0.41833   0.00000  Uiso   1.00
C341   C     0.24027   0.94713   0.48197   0.00000  Uiso   1.00
C342   C     0.28765   0.89386   0.52300   0.00000  Uiso   1.00
C343   C     0.30013   0.10319   0.36009   0.00000  Uiso   1.00
C344   C     0.28121   0.18121   0.37479   0.00000  Uiso   1.00
C345   C     0.34732   0.23500   0.36681   0.00000  Uiso   1.00
H346   H     0.45249   0.97324   0.30801   0.00000  Uiso   1.00
H347   H     0.39771   0.91675   0.18425   0.00000  Uiso   1.00
H348   H     0.47090   0.88117   0.42044   0.00000  Uiso   1.00
H349   H     0.51183   0.11521   0.31327   0.00000  Uiso   1.00
H350   H     0.30078   0.86445   0.05670   0.00000  Uiso   1.00
H351   H     0.45512   0.78945   0.55474   0.00000  Uiso   1.00
H352   H     0.54144   0.28297   0.32875   0.00000  Uiso   1.00
H353   H     0.17367   0.05300   0.38239   0.00000  Uiso   1.00
H354   H     0.10358   0.00089   0.26270   0.00000  Uiso   1.00
H355   H     0.17677   0.96531   0.49890   0.00000  Uiso   1.00
H356   H     0.21770   0.19935   0.39173   0.00000  Uiso   1.00
H357   H     0.06205   0.93274   0.12038   0.00000  Uiso   1.00
H358   H     0.21640   0.85774   0.61842   0.00000  Uiso   1.00
H359   H     0.30271   0.35126   0.39243   0.00000  Uiso   1.00
O360   O     0.14034   0.86285   0.00847   0.00000  Uiso   1.00
O361   O     0.34283   0.76446   0.66189   0.00000  Uiso   1.00
O362   O     0.45608   0.41195   0.36539   0.00000  Uiso   1.00
N363   N     0.25422   0.88769   0.08810   0.00000  Uiso   1.00
N364   N     0.39851   0.81755   0.55373   0.00000  Uiso   1.00
N365   N     0.47921   0.27895   0.34247   0.00000  Uiso   1.00
N366   N     0.12576   0.92444   0.12237   0.00000  Uiso   1.00
N367   N     0.27005   0.85430   0.58800   0.00000  Uiso   1.00
N368   N     0.35076   0.31570   0.37674   0.00000  Uiso   1.00
