data_job_04330
_audit_creation_date              2018-12-19
_audit_creation_method            'Materials Studio'
_symmetry_space_group_name_H-M    'P1'
_symmetry_Int_Tables_number       1
_symmetry_cell_setting            triclinic
loop_
_symmetry_equiv_pos_as_xyz
  x,y,z
_cell_length_a                    34.2027
_cell_length_b                    12.8668
_cell_length_c                    11.8672
_cell_angle_alpha                 90.0000
_cell_angle_beta                  90.0000
_cell_angle_gamma                 90.0000
loop_
_atom_site_label
_atom_site_type_symbol
_atom_site_fract_x
_atom_site_fract_y
_atom_site_fract_z
_atom_site_U_iso_or_equiv
_atom_site_adp_type
_atom_site_occupancy
C1     C     0.66884   0.01947   0.61892   0.00000  Uiso   1.00
C2     C     0.67506   0.91543   0.56005   0.00000  Uiso   1.00
C3     C     0.70922   0.88348   0.50733   0.00000  Uiso   1.00
C4     C     0.70903   0.78549   0.45835   0.00000  Uiso   1.00
C5     C     0.72373   0.63365   0.36633   0.00000  Uiso   1.00
C6     C     0.63339   0.06898   0.56242   0.00000  Uiso   1.00
C7     C     0.63252   0.16615   0.51170   0.00000  Uiso   1.00
C8     C     0.59725   0.19742   0.46473   0.00000  Uiso   1.00
C9     C     0.54726   0.28400   0.37646   0.00000  Uiso   1.00
C10    C     0.65620   0.99367   0.73892   0.00000  Uiso   1.00
C11    C     0.67450   0.02754   0.83663   0.00000  Uiso   1.00
C12    C     0.65842   0.99542   0.93827   0.00000  Uiso   1.00
C13    C     0.64384   0.96507   0.12405   0.00000  Uiso   1.00
C14    C     0.60774   0.90224   0.62569   0.00000  Uiso   1.00
C15    C     0.64187   0.85176   0.56372   0.00000  Uiso   1.00
C16    C     0.64163   0.75379   0.51482   0.00000  Uiso   1.00
C17    C     0.67579   0.72170   0.46204   0.00000  Uiso   1.00
C18    C     0.60021   0.00531   0.56609   0.00000  Uiso   1.00
C19    C     0.56493   0.03645   0.51919   0.00000  Uiso   1.00
C20    C     0.56401   0.13364   0.46841   0.00000  Uiso   1.00
C21    C     0.62301   0.93000   0.74260   0.00000  Uiso   1.00
C22    C     0.60691   0.89783   0.84411   0.00000  Uiso   1.00
C23    C     0.62518   0.93164   0.94195   0.00000  Uiso   1.00
H24    H     0.69467   0.06904   0.61606   0.00000  Uiso   1.00
H25    H     0.73490   0.93278   0.50450   0.00000  Uiso   1.00
H26    H     0.65821   0.21541   0.50888   0.00000  Uiso   1.00
H27    H     0.70018   0.07681   0.83375   0.00000  Uiso   1.00
H28    H     0.76486   0.75365   0.38240   0.00000  Uiso   1.00
H29    H     0.60315   0.34959   0.39167   0.00000  Uiso   1.00
H30    H     0.69165   0.05733   0.07673   0.00000  Uiso   1.00
H31    H     0.58191   0.85267   0.62855   0.00000  Uiso   1.00
H32    H     0.61595   0.70453   0.51768   0.00000  Uiso   1.00
H33    H     0.53926   0.98716   0.52206   0.00000  Uiso   1.00
H34    H     0.58123   0.84856   0.84693   0.00000  Uiso   1.00
H35    H     0.66831   0.56839   0.39309   0.00000  Uiso   1.00
H36    H     0.50660   0.16434   0.40237   0.00000  Uiso   1.00
H37    H     0.59510   0.87208   0.08742   0.00000  Uiso   1.00
O38    O     0.74101   0.56749   0.31455   0.00000  Uiso   1.00
O39    O     0.52885   0.34935   0.32674   0.00000  Uiso   1.00
O40    O     0.64496   0.96591   0.22551   0.00000  Uiso   1.00
N41    N     0.73747   0.73037   0.40015   0.00000  Uiso   1.00
N42    N     0.58628   0.28753   0.40880   0.00000  Uiso   1.00
N43    N     0.66901   0.01432   0.04928   0.00000  Uiso   1.00
N44    N     0.68552   0.63069   0.40590   0.00000  Uiso   1.00
N45    N     0.53433   0.18785   0.41456   0.00000  Uiso   1.00
N46    N     0.61706   0.91464   0.05503   0.00000  Uiso   1.00
C47    C     0.32336   0.48482   0.06389   0.00000  Uiso   1.00
C48    C     0.31586   0.58697   0.12536   0.00000  Uiso   1.00
C49    C     0.28075   0.61679   0.17425   0.00000  Uiso   1.00
C50    C     0.27983   0.71328   0.22654   0.00000  Uiso   1.00
C51    C     0.26315   0.86209   0.32155   0.00000  Uiso   1.00
C52    C     0.35795   0.43424   0.12361   0.00000  Uiso   1.00
C53    C     0.35824   0.33564   0.17102   0.00000  Uiso   1.00
C54    C     0.39276   0.30356   0.22182   0.00000  Uiso   1.00
C55    C     0.44145   0.21522   0.31403   0.00000  Uiso   1.00
C56    C     0.33795   0.51435   0.94676   0.00000  Uiso   1.00
C57    C     0.32142   0.48310   0.84547   0.00000  Uiso   1.00
C58    C     0.33911   0.51846   0.74738   0.00000  Uiso   1.00
C59    C     0.35673   0.55451   0.56502   0.00000  Uiso   1.00
C60    C     0.38416   0.60317   0.06979   0.00000  Uiso   1.00
C61    C     0.34888   0.65124   0.12856   0.00000  Uiso   1.00
C62    C     0.34801   0.74772   0.18079   0.00000  Uiso   1.00
C63    C     0.31291   0.77768   0.22975   0.00000  Uiso   1.00
C64    C     0.39097   0.49851   0.12682   0.00000  Uiso   1.00
C65    C     0.42550   0.46657   0.17755   0.00000  Uiso   1.00
C66    C     0.42584   0.36796   0.22503   0.00000  Uiso   1.00
C67    C     0.37097   0.57864   0.94997   0.00000  Uiso   1.00
C68    C     0.38869   0.61404   0.85201   0.00000  Uiso   1.00
C69    C     0.37219   0.58285   0.75060   0.00000  Uiso   1.00
H70    H     0.29766   0.43477   0.06139   0.00000  Uiso   1.00
H71    H     0.25520   0.56702   0.17176   0.00000  Uiso   1.00
H72    H     0.33268   0.28591   0.16851   0.00000  Uiso   1.00
H73    H     0.29587   0.43335   0.84303   0.00000  Uiso   1.00
H74    H     0.22269   0.74197   0.29557   0.00000  Uiso   1.00
H75    H     0.38607   0.14922   0.28869   0.00000  Uiso   1.00
H76    H     0.30845   0.46013   0.60234   0.00000  Uiso   1.00
H77    H     0.40987   0.65321   0.07229   0.00000  Uiso   1.00
H78    H     0.37357   0.79745   0.18326   0.00000  Uiso   1.00
H79    H     0.45105   0.51634   0.18001   0.00000  Uiso   1.00
H80    H     0.41424   0.66378   0.85453   0.00000  Uiso   1.00
H81    H     0.31877   0.92899   0.30491   0.00000  Uiso   1.00
H82    H     0.48215   0.33624   0.29802   0.00000  Uiso   1.00
H83    H     0.40452   0.64716   0.61167   0.00000  Uiso   1.00
O84    O     0.24483   0.92641   0.37308   0.00000  Uiso   1.00
O85    O     0.45918   0.14874   0.36402   0.00000  Uiso   1.00
O86    O     0.35733   0.55665   0.46355   0.00000  Uiso   1.00
N87    N     0.25029   0.76620   0.28252   0.00000  Uiso   1.00
N88    N     0.40303   0.21202   0.27610   0.00000  Uiso   1.00
N89    N     0.33046   0.50267   0.63442   0.00000  Uiso   1.00
N90    N     0.30198   0.86684   0.28755   0.00000  Uiso   1.00
N91    N     0.45473   0.31266   0.28113   0.00000  Uiso   1.00
N92    N     0.38216   0.60331   0.63944   0.00000  Uiso   1.00
C93    C     0.33116   0.98053   0.61892   0.00000  Uiso   1.00
C94    C     0.32494   0.08457   0.56005   0.00000  Uiso   1.00
C95    C     0.29078   0.11652   0.50733   0.00000  Uiso   1.00
C96    C     0.29097   0.21451   0.45835   0.00000  Uiso   1.00
C97    C     0.27627   0.36635   0.36633   0.00000  Uiso   1.00
C98    C     0.36661   0.93102   0.56242   0.00000  Uiso   1.00
C99    C     0.36748   0.83385   0.51170   0.00000  Uiso   1.00
C100   C     0.40275   0.80258   0.46473   0.00000  Uiso   1.00
C101   C     0.45274   0.71600   0.37646   0.00000  Uiso   1.00
C102   C     0.34380   0.00633   0.73892   0.00000  Uiso   1.00
C103   C     0.32550   0.97246   0.83663   0.00000  Uiso   1.00
C104   C     0.34158   0.00458   0.93827   0.00000  Uiso   1.00
C105   C     0.35616   0.03493   0.12405   0.00000  Uiso   1.00
C106   C     0.39226   0.09776   0.62569   0.00000  Uiso   1.00
C107   C     0.35813   0.14824   0.56372   0.00000  Uiso   1.00
C108   C     0.35837   0.24621   0.51482   0.00000  Uiso   1.00
C109   C     0.32421   0.27830   0.46204   0.00000  Uiso   1.00
C110   C     0.39979   0.99469   0.56609   0.00000  Uiso   1.00
C111   C     0.43507   0.96355   0.51919   0.00000  Uiso   1.00
C112   C     0.43599   0.86636   0.46841   0.00000  Uiso   1.00
C113   C     0.37699   0.07000   0.74260   0.00000  Uiso   1.00
C114   C     0.39309   0.10217   0.84411   0.00000  Uiso   1.00
C115   C     0.37482   0.06836   0.94195   0.00000  Uiso   1.00
H116   H     0.30533   0.93096   0.61606   0.00000  Uiso   1.00
H117   H     0.26510   0.06722   0.50450   0.00000  Uiso   1.00
H118   H     0.34179   0.78459   0.50888   0.00000  Uiso   1.00
H119   H     0.29982   0.92319   0.83375   0.00000  Uiso   1.00
H120   H     0.23514   0.24635   0.38240   0.00000  Uiso   1.00
H121   H     0.39685   0.65041   0.39167   0.00000  Uiso   1.00
H122   H     0.30835   0.94267   0.07673   0.00000  Uiso   1.00
H123   H     0.41809   0.14733   0.62855   0.00000  Uiso   1.00
H124   H     0.38405   0.29547   0.51768   0.00000  Uiso   1.00
H125   H     0.46074   0.01284   0.52206   0.00000  Uiso   1.00
H126   H     0.41877   0.15144   0.84693   0.00000  Uiso   1.00
H127   H     0.33169   0.43161   0.39309   0.00000  Uiso   1.00
H128   H     0.49340   0.83566   0.40237   0.00000  Uiso   1.00
H129   H     0.40490   0.12792   0.08742   0.00000  Uiso   1.00
O130   O     0.25899   0.43251   0.31455   0.00000  Uiso   1.00
O131   O     0.47115   0.65065   0.32674   0.00000  Uiso   1.00
O132   O     0.35504   0.03409   0.22551   0.00000  Uiso   1.00
N133   N     0.26253   0.26963   0.40015   0.00000  Uiso   1.00
N134   N     0.41372   0.71247   0.40880   0.00000  Uiso   1.00
N135   N     0.33099   0.98568   0.04928   0.00000  Uiso   1.00
N136   N     0.31448   0.36931   0.40590   0.00000  Uiso   1.00
N137   N     0.46567   0.81215   0.41456   0.00000  Uiso   1.00
N138   N     0.38294   0.08536   0.05503   0.00000  Uiso   1.00
C139   C     0.67664   0.51518   0.06389   0.00000  Uiso   1.00
C140   C     0.68414   0.41303   0.12536   0.00000  Uiso   1.00
C141   C     0.71925   0.38321   0.17425   0.00000  Uiso   1.00
C142   C     0.72017   0.28672   0.22654   0.00000  Uiso   1.00
C143   C     0.73685   0.13791   0.32155   0.00000  Uiso   1.00
C144   C     0.64205   0.56576   0.12361   0.00000  Uiso   1.00
C145   C     0.64176   0.66436   0.17102   0.00000  Uiso   1.00
C146   C     0.60724   0.69644   0.22182   0.00000  Uiso   1.00
C147   C     0.55855   0.78478   0.31403   0.00000  Uiso   1.00
C148   C     0.66205   0.48565   0.94676   0.00000  Uiso   1.00
C149   C     0.67858   0.51690   0.84547   0.00000  Uiso   1.00
C150   C     0.66089   0.48154   0.74738   0.00000  Uiso   1.00
C151   C     0.64327   0.44549   0.56502   0.00000  Uiso   1.00
C152   C     0.61584   0.39683   0.06979   0.00000  Uiso   1.00
C153   C     0.65112   0.34876   0.12856   0.00000  Uiso   1.00
C154   C     0.65199   0.25228   0.18079   0.00000  Uiso   1.00
C155   C     0.68709   0.22232   0.22975   0.00000  Uiso   1.00
C156   C     0.60903   0.50149   0.12682   0.00000  Uiso   1.00
C157   C     0.57450   0.53343   0.17755   0.00000  Uiso   1.00
C158   C     0.57416   0.63204   0.22503   0.00000  Uiso   1.00
C159   C     0.62903   0.42136   0.94997   0.00000  Uiso   1.00
C160   C     0.61131   0.38596   0.85201   0.00000  Uiso   1.00
C161   C     0.62781   0.41715   0.75060   0.00000  Uiso   1.00
H162   H     0.70234   0.56523   0.06139   0.00000  Uiso   1.00
H163   H     0.74480   0.43298   0.17176   0.00000  Uiso   1.00
H164   H     0.66732   0.71409   0.16851   0.00000  Uiso   1.00
H165   H     0.70413   0.56665   0.84303   0.00000  Uiso   1.00
H166   H     0.77731   0.25803   0.29557   0.00000  Uiso   1.00
H167   H     0.61393   0.85078   0.28869   0.00000  Uiso   1.00
H168   H     0.69155   0.53987   0.60234   0.00000  Uiso   1.00
H169   H     0.59013   0.34679   0.07229   0.00000  Uiso   1.00
H170   H     0.62643   0.20255   0.18326   0.00000  Uiso   1.00
H171   H     0.54895   0.48366   0.18001   0.00000  Uiso   1.00
H172   H     0.58576   0.33622   0.85453   0.00000  Uiso   1.00
H173   H     0.68123   0.07101   0.30491   0.00000  Uiso   1.00
H174   H     0.51785   0.66376   0.29802   0.00000  Uiso   1.00
H175   H     0.59548   0.35284   0.61167   0.00000  Uiso   1.00
O176   O     0.75517   0.07359   0.37308   0.00000  Uiso   1.00
O177   O     0.54082   0.85126   0.36402   0.00000  Uiso   1.00
O178   O     0.64267   0.44335   0.46355   0.00000  Uiso   1.00
N179   N     0.74971   0.23380   0.28252   0.00000  Uiso   1.00
N180   N     0.59697   0.78798   0.27610   0.00000  Uiso   1.00
N181   N     0.66954   0.49733   0.63442   0.00000  Uiso   1.00
N182   N     0.69802   0.13316   0.28755   0.00000  Uiso   1.00
N183   N     0.54527   0.68734   0.28113   0.00000  Uiso   1.00
N184   N     0.61784   0.39669   0.63944   0.00000  Uiso   1.00
C185   C     0.83116   0.51947   0.38108   0.00000  Uiso   1.00
C186   C     0.82494   0.41543   0.43995   0.00000  Uiso   1.00
C187   C     0.79078   0.38348   0.49267   0.00000  Uiso   1.00
C188   C     0.79097   0.28549   0.54165   0.00000  Uiso   1.00
C189   C     0.77627   0.13365   0.63367   0.00000  Uiso   1.00
C190   C     0.86661   0.56898   0.43758   0.00000  Uiso   1.00
C191   C     0.86748   0.66615   0.48830   0.00000  Uiso   1.00
C192   C     0.90275   0.69742   0.53527   0.00000  Uiso   1.00
C193   C     0.95274   0.78400   0.62354   0.00000  Uiso   1.00
C194   C     0.84380   0.49367   0.26108   0.00000  Uiso   1.00
C195   C     0.82550   0.52754   0.16337   0.00000  Uiso   1.00
C196   C     0.84158   0.49542   0.06173   0.00000  Uiso   1.00
C197   C     0.85616   0.46507   0.87595   0.00000  Uiso   1.00
C198   C     0.89226   0.40224   0.37431   0.00000  Uiso   1.00
C199   C     0.85813   0.35176   0.43628   0.00000  Uiso   1.00
C200   C     0.85837   0.25379   0.48518   0.00000  Uiso   1.00
C201   C     0.82421   0.22170   0.53796   0.00000  Uiso   1.00
C202   C     0.89979   0.50531   0.43391   0.00000  Uiso   1.00
C203   C     0.93507   0.53645   0.48081   0.00000  Uiso   1.00
C204   C     0.93599   0.63364   0.53159   0.00000  Uiso   1.00
C205   C     0.87699   0.43000   0.25740   0.00000  Uiso   1.00
C206   C     0.89309   0.39783   0.15589   0.00000  Uiso   1.00
C207   C     0.87482   0.43164   0.05805   0.00000  Uiso   1.00
H208   H     0.80533   0.56904   0.38394   0.00000  Uiso   1.00
H209   H     0.76510   0.43278   0.49550   0.00000  Uiso   1.00
H210   H     0.84179   0.71541   0.49112   0.00000  Uiso   1.00
H211   H     0.79982   0.57681   0.16625   0.00000  Uiso   1.00
H212   H     0.73514   0.25365   0.61760   0.00000  Uiso   1.00
H213   H     0.89685   0.84959   0.60833   0.00000  Uiso   1.00
H214   H     0.80835   0.55733   0.92327   0.00000  Uiso   1.00
H215   H     0.91809   0.35267   0.37145   0.00000  Uiso   1.00
H216   H     0.88405   0.20453   0.48232   0.00000  Uiso   1.00
H217   H     0.96074   0.48716   0.47794   0.00000  Uiso   1.00
H218   H     0.91877   0.34856   0.15307   0.00000  Uiso   1.00
H219   H     0.83169   0.06839   0.60691   0.00000  Uiso   1.00
H220   H     0.99340   0.66434   0.59763   0.00000  Uiso   1.00
H221   H     0.90490   0.37208   0.91258   0.00000  Uiso   1.00
O222   O     0.75899   0.06749   0.68545   0.00000  Uiso   1.00
O223   O     0.97115   0.84935   0.67326   0.00000  Uiso   1.00
O224   O     0.85504   0.46591   0.77449   0.00000  Uiso   1.00
N225   N     0.76253   0.23037   0.59985   0.00000  Uiso   1.00
N226   N     0.91372   0.78753   0.59120   0.00000  Uiso   1.00
N227   N     0.83099   0.51432   0.95072   0.00000  Uiso   1.00
N228   N     0.81448   0.13069   0.59410   0.00000  Uiso   1.00
N229   N     0.96567   0.68785   0.58544   0.00000  Uiso   1.00
N230   N     0.88294   0.41464   0.94497   0.00000  Uiso   1.00
C231   C     0.17664   0.98482   0.93611   0.00000  Uiso   1.00
C232   C     0.18414   0.08697   0.87464   0.00000  Uiso   1.00
C233   C     0.21925   0.11679   0.82575   0.00000  Uiso   1.00
C234   C     0.22017   0.21328   0.77346   0.00000  Uiso   1.00
C235   C     0.23685   0.36209   0.67845   0.00000  Uiso   1.00
C236   C     0.14205   0.93424   0.87639   0.00000  Uiso   1.00
C237   C     0.14176   0.83564   0.82898   0.00000  Uiso   1.00
C238   C     0.10724   0.80356   0.77818   0.00000  Uiso   1.00
C239   C     0.05855   0.71522   0.68597   0.00000  Uiso   1.00
C240   C     0.16205   0.01435   0.05324   0.00000  Uiso   1.00
C241   C     0.17858   0.98310   0.15453   0.00000  Uiso   1.00
C242   C     0.16089   0.01846   0.25262   0.00000  Uiso   1.00
C243   C     0.14327   0.05451   0.43498   0.00000  Uiso   1.00
C244   C     0.11584   0.10317   0.93021   0.00000  Uiso   1.00
C245   C     0.15112   0.15124   0.87144   0.00000  Uiso   1.00
C246   C     0.15199   0.24772   0.81921   0.00000  Uiso   1.00
C247   C     0.18709   0.27768   0.77025   0.00000  Uiso   1.00
C248   C     0.10903   0.99851   0.87318   0.00000  Uiso   1.00
C249   C     0.07450   0.96657   0.82245   0.00000  Uiso   1.00
C250   C     0.07416   0.86796   0.77497   0.00000  Uiso   1.00
C251   C     0.12903   0.07864   0.05003   0.00000  Uiso   1.00
C252   C     0.11131   0.11404   0.14799   0.00000  Uiso   1.00
C253   C     0.12781   0.08285   0.24940   0.00000  Uiso   1.00
H254   H     0.20234   0.93477   0.93861   0.00000  Uiso   1.00
H255   H     0.24480   0.06702   0.82824   0.00000  Uiso   1.00
H256   H     0.16732   0.78591   0.83149   0.00000  Uiso   1.00
H257   H     0.20413   0.93335   0.15697   0.00000  Uiso   1.00
H258   H     0.27731   0.24197   0.70443   0.00000  Uiso   1.00
H259   H     0.11393   0.64922   0.71131   0.00000  Uiso   1.00
H260   H     0.19155   0.96013   0.39766   0.00000  Uiso   1.00
H261   H     0.09013   0.15321   0.92771   0.00000  Uiso   1.00
H262   H     0.12643   0.29745   0.81674   0.00000  Uiso   1.00
H263   H     0.04895   0.01634   0.81999   0.00000  Uiso   1.00
H264   H     0.08576   0.16378   0.14547   0.00000  Uiso   1.00
H265   H     0.18123   0.42899   0.69509   0.00000  Uiso   1.00
H266   H     0.01785   0.83624   0.70198   0.00000  Uiso   1.00
H267   H     0.09548   0.14716   0.38833   0.00000  Uiso   1.00
O268   O     0.25517   0.42641   0.62692   0.00000  Uiso   1.00
O269   O     0.04082   0.64874   0.63598   0.00000  Uiso   1.00
O270   O     0.14267   0.05665   0.53645   0.00000  Uiso   1.00
N271   N     0.24971   0.26620   0.71748   0.00000  Uiso   1.00
N272   N     0.09697   0.71202   0.72390   0.00000  Uiso   1.00
N273   N     0.16954   0.00267   0.36558   0.00000  Uiso   1.00
N274   N     0.19802   0.36684   0.71245   0.00000  Uiso   1.00
N275   N     0.04527   0.81266   0.71887   0.00000  Uiso   1.00
N276   N     0.11784   0.10331   0.36056   0.00000  Uiso   1.00
C277   C     0.16884   0.48053   0.38108   0.00000  Uiso   1.00
C278   C     0.17506   0.58457   0.43995   0.00000  Uiso   1.00
C279   C     0.20922   0.61652   0.49267   0.00000  Uiso   1.00
C280   C     0.20903   0.71451   0.54165   0.00000  Uiso   1.00
C281   C     0.22373   0.86635   0.63367   0.00000  Uiso   1.00
C282   C     0.13339   0.43102   0.43758   0.00000  Uiso   1.00
C283   C     0.13252   0.33385   0.48830   0.00000  Uiso   1.00
C284   C     0.09725   0.30258   0.53527   0.00000  Uiso   1.00
C285   C     0.04726   0.21600   0.62354   0.00000  Uiso   1.00
C286   C     0.15620   0.50633   0.26108   0.00000  Uiso   1.00
C287   C     0.17450   0.47246   0.16337   0.00000  Uiso   1.00
C288   C     0.15842   0.50458   0.06173   0.00000  Uiso   1.00
C289   C     0.14384   0.53493   0.87595   0.00000  Uiso   1.00
C290   C     0.10774   0.59776   0.37431   0.00000  Uiso   1.00
C291   C     0.14187   0.64824   0.43628   0.00000  Uiso   1.00
C292   C     0.14163   0.74621   0.48518   0.00000  Uiso   1.00
C293   C     0.17579   0.77830   0.53796   0.00000  Uiso   1.00
C294   C     0.10021   0.49469   0.43391   0.00000  Uiso   1.00
C295   C     0.06493   0.46355   0.48081   0.00000  Uiso   1.00
C296   C     0.06401   0.36636   0.53159   0.00000  Uiso   1.00
C297   C     0.12301   0.57000   0.25740   0.00000  Uiso   1.00
C298   C     0.10691   0.60217   0.15589   0.00000  Uiso   1.00
C299   C     0.12518   0.56836   0.05805   0.00000  Uiso   1.00
H300   H     0.19467   0.43096   0.38394   0.00000  Uiso   1.00
H301   H     0.23490   0.56722   0.49550   0.00000  Uiso   1.00
H302   H     0.15821   0.28459   0.49112   0.00000  Uiso   1.00
H303   H     0.20018   0.42319   0.16625   0.00000  Uiso   1.00
H304   H     0.26486   0.74635   0.61760   0.00000  Uiso   1.00
H305   H     0.10315   0.15041   0.60833   0.00000  Uiso   1.00
H306   H     0.19165   0.44267   0.92327   0.00000  Uiso   1.00
H307   H     0.08191   0.64733   0.37145   0.00000  Uiso   1.00
H308   H     0.11595   0.79547   0.48232   0.00000  Uiso   1.00
H309   H     0.03926   0.51284   0.47794   0.00000  Uiso   1.00
H310   H     0.08123   0.65144   0.15307   0.00000  Uiso   1.00
H311   H     0.16831   0.93161   0.60691   0.00000  Uiso   1.00
H312   H     0.00660   0.33566   0.59763   0.00000  Uiso   1.00
H313   H     0.09510   0.62792   0.91258   0.00000  Uiso   1.00
O314   O     0.24101   0.93251   0.68545   0.00000  Uiso   1.00
O315   O     0.02885   0.15065   0.67326   0.00000  Uiso   1.00
O316   O     0.14496   0.53409   0.77449   0.00000  Uiso   1.00
N317   N     0.23747   0.76963   0.59985   0.00000  Uiso   1.00
N318   N     0.08628   0.21247   0.59120   0.00000  Uiso   1.00
N319   N     0.16901   0.48568   0.95072   0.00000  Uiso   1.00
N320   N     0.18552   0.86931   0.59410   0.00000  Uiso   1.00
N321   N     0.03433   0.31215   0.58544   0.00000  Uiso   1.00
N322   N     0.11706   0.58536   0.94497   0.00000  Uiso   1.00
C323   C     0.82336   0.01518   0.93611   0.00000  Uiso   1.00
C324   C     0.81586   0.91303   0.87464   0.00000  Uiso   1.00
C325   C     0.78075   0.88321   0.82575   0.00000  Uiso   1.00
C326   C     0.77983   0.78672   0.77346   0.00000  Uiso   1.00
C327   C     0.76315   0.63791   0.67845   0.00000  Uiso   1.00
C328   C     0.85795   0.06576   0.87639   0.00000  Uiso   1.00
C329   C     0.85824   0.16436   0.82898   0.00000  Uiso   1.00
C330   C     0.89276   0.19644   0.77818   0.00000  Uiso   1.00
C331   C     0.94145   0.28478   0.68597   0.00000  Uiso   1.00
C332   C     0.83795   0.98565   0.05324   0.00000  Uiso   1.00
C333   C     0.82142   0.01690   0.15453   0.00000  Uiso   1.00
C334   C     0.83911   0.98154   0.25262   0.00000  Uiso   1.00
C335   C     0.85673   0.94549   0.43498   0.00000  Uiso   1.00
C336   C     0.88416   0.89683   0.93021   0.00000  Uiso   1.00
C337   C     0.84888   0.84876   0.87144   0.00000  Uiso   1.00
C338   C     0.84801   0.75228   0.81921   0.00000  Uiso   1.00
C339   C     0.81291   0.72232   0.77025   0.00000  Uiso   1.00
C340   C     0.89097   0.00149   0.87318   0.00000  Uiso   1.00
C341   C     0.92550   0.03343   0.82245   0.00000  Uiso   1.00
C342   C     0.92584   0.13204   0.77497   0.00000  Uiso   1.00
C343   C     0.87097   0.92136   0.05003   0.00000  Uiso   1.00
C344   C     0.88869   0.88596   0.14799   0.00000  Uiso   1.00
C345   C     0.87219   0.91715   0.24940   0.00000  Uiso   1.00
H346   H     0.79766   0.06523   0.93861   0.00000  Uiso   1.00
H347   H     0.75520   0.93298   0.82824   0.00000  Uiso   1.00
H348   H     0.83268   0.21409   0.83149   0.00000  Uiso   1.00
H349   H     0.79587   0.06665   0.15697   0.00000  Uiso   1.00
H350   H     0.72269   0.75803   0.70443   0.00000  Uiso   1.00
H351   H     0.88607   0.35078   0.71131   0.00000  Uiso   1.00
H352   H     0.80845   0.03987   0.39766   0.00000  Uiso   1.00
H353   H     0.90987   0.84679   0.92771   0.00000  Uiso   1.00
H354   H     0.87357   0.70255   0.81674   0.00000  Uiso   1.00
H355   H     0.95105   0.98366   0.81999   0.00000  Uiso   1.00
H356   H     0.91424   0.83622   0.14547   0.00000  Uiso   1.00
H357   H     0.81877   0.57101   0.69509   0.00000  Uiso   1.00
H358   H     0.98215   0.16376   0.70198   0.00000  Uiso   1.00
H359   H     0.90452   0.85284   0.38833   0.00000  Uiso   1.00
O360   O     0.74483   0.57359   0.62692   0.00000  Uiso   1.00
O361   O     0.95918   0.35126   0.63598   0.00000  Uiso   1.00
O362   O     0.85733   0.94335   0.53645   0.00000  Uiso   1.00
N363   N     0.75029   0.73380   0.71748   0.00000  Uiso   1.00
N364   N     0.90303   0.28798   0.72390   0.00000  Uiso   1.00
N365   N     0.83046   0.99733   0.36558   0.00000  Uiso   1.00
N366   N     0.80198   0.63316   0.71245   0.00000  Uiso   1.00
N367   N     0.95473   0.18734   0.71887   0.00000  Uiso   1.00
N368   N     0.88216   0.89669   0.36056   0.00000  Uiso   1.00
