data_job_04192
_audit_creation_date              2018-12-19
_audit_creation_method            'Materials Studio'
_symmetry_space_group_name_H-M    'P1'
_symmetry_Int_Tables_number       1
_symmetry_cell_setting            triclinic
loop_
_symmetry_equiv_pos_as_xyz
  x,y,z
_cell_length_a                    13.1843
_cell_length_b                    13.1843
_cell_length_c                    38.9754
_cell_angle_alpha                 90.0000
_cell_angle_beta                  90.0000
_cell_angle_gamma                 90.0000
loop_
_atom_site_label
_atom_site_type_symbol
_atom_site_fract_x
_atom_site_fract_y
_atom_site_fract_z
_atom_site_U_iso_or_equiv
_atom_site_adp_type
_atom_site_occupancy
C1     C     0.99770   0.62440   0.07449   0.00000  Uiso   1.00
C2     C     0.07919   0.62610   0.04672   0.00000  Uiso   1.00
C3     C     0.06515   0.65597   0.01291   0.00000  Uiso   1.00
C4     C     0.14922   0.65205   0.99150   0.00000  Uiso   1.00
C5     C     0.26133   0.65961   0.94657   0.00000  Uiso   1.00
C6     C     0.99533   0.51606   0.08816   0.00000  Uiso   1.00
C7     C     0.91078   0.45342   0.08919   0.00000  Uiso   1.00
C8     C     0.92426   0.35687   0.10267   0.00000  Uiso   1.00
C9     C     0.90617   0.19361   0.12208   0.00000  Uiso   1.00
C10    C     0.03801   0.68986   0.10372   0.00000  Uiso   1.00
C11    C     0.98934   0.77334   0.11784   0.00000  Uiso   1.00
C12    C     0.03874   0.82310   0.14442   0.00000  Uiso   1.00
C13    C     0.08691   0.92969   0.18799   0.00000  Uiso   1.00
C14    C     0.17196   0.56432   0.09659   0.00000  Uiso   1.00
C15    C     0.17383   0.59346   0.05873   0.00000  Uiso   1.00
C16    C     0.25795   0.58950   0.03736   0.00000  Uiso   1.00
C17    C     0.24404   0.61937   0.00353   0.00000  Uiso   1.00
C18    C     0.08997   0.48342   0.10016   0.00000  Uiso   1.00
C19    C     0.10358   0.38694   0.11364   0.00000  Uiso   1.00
C20    C     0.01908   0.32417   0.11469   0.00000  Uiso   1.00
C21    C     0.13266   0.65723   0.11572   0.00000  Uiso   1.00
C22    C     0.18214   0.70687   0.14229   0.00000  Uiso   1.00
C23    C     0.13356   0.79041   0.15644   0.00000  Uiso   1.00
H24    H     0.92401   0.64980   0.06514   0.00000  Uiso   1.00
H25    H     0.99189   0.68122   0.00363   0.00000  Uiso   1.00
H26    H     0.83755   0.47870   0.07990   0.00000  Uiso   1.00
H27    H     0.91609   0.79857   0.10854   0.00000  Uiso   1.00
H28    H     0.10888   0.70162   0.94073   0.00000  Uiso   1.00
H29    H     0.78343   0.27461   0.10156   0.00000  Uiso   1.00
H30    H     0.94905   0.94912   0.16196   0.00000  Uiso   1.00
H31    H     0.24565   0.53891   0.10593   0.00000  Uiso   1.00
H32    H     0.33118   0.56424   0.04666   0.00000  Uiso   1.00
H33    H     0.17683   0.36172   0.12293   0.00000  Uiso   1.00
H34    H     0.25538   0.68159   0.15157   0.00000  Uiso   1.00
H35    H     0.38426   0.60667   0.97565   0.00000  Uiso   1.00
H36    H     0.05880   0.17966   0.13648   0.00000  Uiso   1.00
H37    H     0.22443   0.85417   0.19688   0.00000  Uiso   1.00
O38    O     0.29702   0.67278   0.91846   0.00000  Uiso   1.00
O39    O     0.87004   0.11256   0.12947   0.00000  Uiso   1.00
O40    O     0.08734   0.99751   0.20870   0.00000  Uiso   1.00
N41    N     0.16196   0.67582   0.95709   0.00000  Uiso   1.00
N42    N     0.85768   0.27658   0.10745   0.00000  Uiso   1.00
N43    N     0.01252   0.90718   0.16392   0.00000  Uiso   1.00
N44    N     0.31014   0.62473   0.97588   0.00000  Uiso   1.00
N45    N     0.00586   0.22549   0.12624   0.00000  Uiso   1.00
N46    N     0.16070   0.85609   0.18271   0.00000  Uiso   1.00
C47    C     0.00230   0.37560   0.57449   0.00000  Uiso   1.00
C48    C     0.92081   0.37390   0.54672   0.00000  Uiso   1.00
C49    C     0.93485   0.34403   0.51291   0.00000  Uiso   1.00
C50    C     0.85078   0.34795   0.49150   0.00000  Uiso   1.00
C51    C     0.73867   0.34039   0.44657   0.00000  Uiso   1.00
C52    C     0.00467   0.48394   0.58816   0.00000  Uiso   1.00
C53    C     0.08922   0.54658   0.58919   0.00000  Uiso   1.00
C54    C     0.07574   0.64313   0.60267   0.00000  Uiso   1.00
C55    C     0.09383   0.80639   0.62208   0.00000  Uiso   1.00
C56    C     0.96199   0.31014   0.60372   0.00000  Uiso   1.00
C57    C     0.01066   0.22666   0.61784   0.00000  Uiso   1.00
C58    C     0.96126   0.17690   0.64442   0.00000  Uiso   1.00
C59    C     0.91309   0.07031   0.68799   0.00000  Uiso   1.00
C60    C     0.82804   0.43568   0.59659   0.00000  Uiso   1.00
C61    C     0.82617   0.40654   0.55873   0.00000  Uiso   1.00
C62    C     0.74205   0.41050   0.53736   0.00000  Uiso   1.00
C63    C     0.75596   0.38063   0.50353   0.00000  Uiso   1.00
C64    C     0.91003   0.51658   0.60016   0.00000  Uiso   1.00
C65    C     0.89642   0.61306   0.61364   0.00000  Uiso   1.00
C66    C     0.98092   0.67583   0.61469   0.00000  Uiso   1.00
C67    C     0.86734   0.34277   0.61572   0.00000  Uiso   1.00
C68    C     0.81786   0.29313   0.64229   0.00000  Uiso   1.00
C69    C     0.86644   0.20959   0.65644   0.00000  Uiso   1.00
H70    H     0.07599   0.35020   0.56514   0.00000  Uiso   1.00
H71    H     0.00811   0.31878   0.50363   0.00000  Uiso   1.00
H72    H     0.16245   0.52130   0.57990   0.00000  Uiso   1.00
H73    H     0.08391   0.20143   0.60854   0.00000  Uiso   1.00
H74    H     0.89112   0.29838   0.44073   0.00000  Uiso   1.00
H75    H     0.21657   0.72539   0.60156   0.00000  Uiso   1.00
H76    H     0.05095   0.05088   0.66196   0.00000  Uiso   1.00
H77    H     0.75435   0.46109   0.60593   0.00000  Uiso   1.00
H78    H     0.66882   0.43576   0.54666   0.00000  Uiso   1.00
H79    H     0.82317   0.63828   0.62293   0.00000  Uiso   1.00
H80    H     0.74462   0.31841   0.65157   0.00000  Uiso   1.00
H81    H     0.61574   0.39333   0.47565   0.00000  Uiso   1.00
H82    H     0.94120   0.82034   0.63648   0.00000  Uiso   1.00
H83    H     0.77557   0.14583   0.69688   0.00000  Uiso   1.00
O84    O     0.70298   0.32722   0.41846   0.00000  Uiso   1.00
O85    O     0.12996   0.88744   0.62947   0.00000  Uiso   1.00
O86    O     0.91266   0.00249   0.70870   0.00000  Uiso   1.00
N87    N     0.83804   0.32418   0.45709   0.00000  Uiso   1.00
N88    N     0.14232   0.72342   0.60745   0.00000  Uiso   1.00
N89    N     0.98748   0.09282   0.66392   0.00000  Uiso   1.00
N90    N     0.68986   0.37527   0.47588   0.00000  Uiso   1.00
N91    N     0.99414   0.77451   0.62624   0.00000  Uiso   1.00
N92    N     0.83930   0.14391   0.68271   0.00000  Uiso   1.00
C93    C     0.87560   0.49770   0.82449   0.00000  Uiso   1.00
C94    C     0.87390   0.57919   0.79672   0.00000  Uiso   1.00
C95    C     0.84403   0.56515   0.76291   0.00000  Uiso   1.00
C96    C     0.84795   0.64922   0.74150   0.00000  Uiso   1.00
C97    C     0.84039   0.76133   0.69657   0.00000  Uiso   1.00
C98    C     0.98394   0.49533   0.83816   0.00000  Uiso   1.00
C99    C     0.04658   0.41078   0.83919   0.00000  Uiso   1.00
C100   C     0.14313   0.42426   0.85267   0.00000  Uiso   1.00
C101   C     0.30639   0.40617   0.87208   0.00000  Uiso   1.00
C102   C     0.81014   0.53801   0.85372   0.00000  Uiso   1.00
C103   C     0.72666   0.48934   0.86784   0.00000  Uiso   1.00
C104   C     0.67690   0.53874   0.89442   0.00000  Uiso   1.00
C105   C     0.57031   0.58691   0.93799   0.00000  Uiso   1.00
C106   C     0.93568   0.67196   0.84659   0.00000  Uiso   1.00
C107   C     0.90654   0.67383   0.80873   0.00000  Uiso   1.00
C108   C     0.91050   0.75795   0.78736   0.00000  Uiso   1.00
C109   C     0.88063   0.74404   0.75353   0.00000  Uiso   1.00
C110   C     0.01658   0.58997   0.85016   0.00000  Uiso   1.00
C111   C     0.11306   0.60358   0.86364   0.00000  Uiso   1.00
C112   C     0.17583   0.51908   0.86469   0.00000  Uiso   1.00
C113   C     0.84277   0.63266   0.86572   0.00000  Uiso   1.00
C114   C     0.79313   0.68214   0.89229   0.00000  Uiso   1.00
C115   C     0.70959   0.63356   0.90644   0.00000  Uiso   1.00
H116   H     0.85020   0.42401   0.81514   0.00000  Uiso   1.00
H117   H     0.81878   0.49189   0.75363   0.00000  Uiso   1.00
H118   H     0.02130   0.33755   0.82990   0.00000  Uiso   1.00
H119   H     0.70143   0.41609   0.85854   0.00000  Uiso   1.00
H120   H     0.79838   0.60888   0.69073   0.00000  Uiso   1.00
H121   H     0.22539   0.28343   0.85156   0.00000  Uiso   1.00
H122   H     0.55088   0.44905   0.91196   0.00000  Uiso   1.00
H123   H     0.96109   0.74565   0.85593   0.00000  Uiso   1.00
H124   H     0.93576   0.83118   0.79666   0.00000  Uiso   1.00
H125   H     0.13828   0.67683   0.87293   0.00000  Uiso   1.00
H126   H     0.81841   0.75538   0.90157   0.00000  Uiso   1.00
H127   H     0.89333   0.88426   0.72565   0.00000  Uiso   1.00
H128   H     0.32034   0.55880   0.88648   0.00000  Uiso   1.00
H129   H     0.64583   0.72443   0.94688   0.00000  Uiso   1.00
O130   O     0.82722   0.79702   0.66846   0.00000  Uiso   1.00
O131   O     0.38744   0.37004   0.87947   0.00000  Uiso   1.00
O132   O     0.50249   0.58734   0.95870   0.00000  Uiso   1.00
N133   N     0.82418   0.66196   0.70709   0.00000  Uiso   1.00
N134   N     0.22342   0.35768   0.85745   0.00000  Uiso   1.00
N135   N     0.59282   0.51252   0.91392   0.00000  Uiso   1.00
N136   N     0.87527   0.81014   0.72588   0.00000  Uiso   1.00
N137   N     0.27451   0.50586   0.87624   0.00000  Uiso   1.00
N138   N     0.64391   0.66070   0.93271   0.00000  Uiso   1.00
C139   C     0.12440   0.50230   0.32449   0.00000  Uiso   1.00
C140   C     0.12610   0.42081   0.29672   0.00000  Uiso   1.00
C141   C     0.15597   0.43485   0.26291   0.00000  Uiso   1.00
C142   C     0.15205   0.35078   0.24150   0.00000  Uiso   1.00
C143   C     0.15961   0.23867   0.19657   0.00000  Uiso   1.00
C144   C     0.01606   0.50467   0.33816   0.00000  Uiso   1.00
C145   C     0.95342   0.58922   0.33919   0.00000  Uiso   1.00
C146   C     0.85687   0.57574   0.35267   0.00000  Uiso   1.00
C147   C     0.69361   0.59383   0.37208   0.00000  Uiso   1.00
C148   C     0.18986   0.46199   0.35372   0.00000  Uiso   1.00
C149   C     0.27334   0.51066   0.36784   0.00000  Uiso   1.00
C150   C     0.32310   0.46126   0.39442   0.00000  Uiso   1.00
C151   C     0.42969   0.41309   0.43799   0.00000  Uiso   1.00
C152   C     0.06432   0.32804   0.34659   0.00000  Uiso   1.00
C153   C     0.09346   0.32617   0.30873   0.00000  Uiso   1.00
C154   C     0.08950   0.24205   0.28736   0.00000  Uiso   1.00
C155   C     0.11937   0.25596   0.25353   0.00000  Uiso   1.00
C156   C     0.98342   0.41003   0.35016   0.00000  Uiso   1.00
C157   C     0.88694   0.39642   0.36364   0.00000  Uiso   1.00
C158   C     0.82417   0.48092   0.36469   0.00000  Uiso   1.00
C159   C     0.15723   0.36734   0.36572   0.00000  Uiso   1.00
C160   C     0.20687   0.31786   0.39229   0.00000  Uiso   1.00
C161   C     0.29041   0.36644   0.40644   0.00000  Uiso   1.00
H162   H     0.14980   0.57599   0.31514   0.00000  Uiso   1.00
H163   H     0.18122   0.50811   0.25363   0.00000  Uiso   1.00
H164   H     0.97870   0.66245   0.32990   0.00000  Uiso   1.00
H165   H     0.29857   0.58391   0.35854   0.00000  Uiso   1.00
H166   H     0.20162   0.39112   0.19073   0.00000  Uiso   1.00
H167   H     0.77461   0.71657   0.35156   0.00000  Uiso   1.00
H168   H     0.44912   0.55095   0.41196   0.00000  Uiso   1.00
H169   H     0.03891   0.25435   0.35593   0.00000  Uiso   1.00
H170   H     0.06424   0.16882   0.29666   0.00000  Uiso   1.00
H171   H     0.86172   0.32317   0.37293   0.00000  Uiso   1.00
H172   H     0.18159   0.24462   0.40157   0.00000  Uiso   1.00
H173   H     0.10667   0.11574   0.22565   0.00000  Uiso   1.00
H174   H     0.67966   0.44120   0.38648   0.00000  Uiso   1.00
H175   H     0.35417   0.27557   0.44688   0.00000  Uiso   1.00
O176   O     0.17278   0.20298   0.16846   0.00000  Uiso   1.00
O177   O     0.61256   0.62996   0.37947   0.00000  Uiso   1.00
O178   O     0.49751   0.41266   0.45870   0.00000  Uiso   1.00
N179   N     0.17582   0.33804   0.20709   0.00000  Uiso   1.00
N180   N     0.77658   0.64232   0.35745   0.00000  Uiso   1.00
N181   N     0.40718   0.48748   0.41392   0.00000  Uiso   1.00
N182   N     0.12473   0.18986   0.22588   0.00000  Uiso   1.00
N183   N     0.72549   0.49414   0.37624   0.00000  Uiso   1.00
N184   N     0.35609   0.33930   0.43271   0.00000  Uiso   1.00
C185   C     0.50230   0.12440   0.67551   0.00000  Uiso   1.00
C186   C     0.42081   0.12610   0.70328   0.00000  Uiso   1.00
C187   C     0.43485   0.15597   0.73709   0.00000  Uiso   1.00
C188   C     0.35078   0.15205   0.75850   0.00000  Uiso   1.00
C189   C     0.23867   0.15961   0.80343   0.00000  Uiso   1.00
C190   C     0.50467   0.01606   0.66184   0.00000  Uiso   1.00
C191   C     0.58922   0.95342   0.66081   0.00000  Uiso   1.00
C192   C     0.57574   0.85687   0.64733   0.00000  Uiso   1.00
C193   C     0.59383   0.69361   0.62792   0.00000  Uiso   1.00
C194   C     0.46199   0.18986   0.64628   0.00000  Uiso   1.00
C195   C     0.51066   0.27334   0.63216   0.00000  Uiso   1.00
C196   C     0.46126   0.32310   0.60558   0.00000  Uiso   1.00
C197   C     0.41309   0.42969   0.56201   0.00000  Uiso   1.00
C198   C     0.32804   0.06432   0.65341   0.00000  Uiso   1.00
C199   C     0.32617   0.09346   0.69127   0.00000  Uiso   1.00
C200   C     0.24205   0.08950   0.71264   0.00000  Uiso   1.00
C201   C     0.25596   0.11937   0.74647   0.00000  Uiso   1.00
C202   C     0.41003   0.98342   0.64984   0.00000  Uiso   1.00
C203   C     0.39642   0.88694   0.63636   0.00000  Uiso   1.00
C204   C     0.48092   0.82417   0.63531   0.00000  Uiso   1.00
C205   C     0.36734   0.15723   0.63428   0.00000  Uiso   1.00
C206   C     0.31786   0.20687   0.60771   0.00000  Uiso   1.00
C207   C     0.36644   0.29041   0.59356   0.00000  Uiso   1.00
H208   H     0.57599   0.14980   0.68486   0.00000  Uiso   1.00
H209   H     0.50811   0.18122   0.74637   0.00000  Uiso   1.00
H210   H     0.66245   0.97870   0.67010   0.00000  Uiso   1.00
H211   H     0.58391   0.29857   0.64146   0.00000  Uiso   1.00
H212   H     0.39112   0.20162   0.80927   0.00000  Uiso   1.00
H213   H     0.71657   0.77461   0.64844   0.00000  Uiso   1.00
H214   H     0.55095   0.44912   0.58804   0.00000  Uiso   1.00
H215   H     0.25435   0.03891   0.64407   0.00000  Uiso   1.00
H216   H     0.16882   0.06424   0.70334   0.00000  Uiso   1.00
H217   H     0.32317   0.86172   0.62707   0.00000  Uiso   1.00
H218   H     0.24462   0.18159   0.59843   0.00000  Uiso   1.00
H219   H     0.11574   0.10667   0.77435   0.00000  Uiso   1.00
H220   H     0.44120   0.67966   0.61352   0.00000  Uiso   1.00
H221   H     0.27557   0.35417   0.55312   0.00000  Uiso   1.00
O222   O     0.20298   0.17278   0.83154   0.00000  Uiso   1.00
O223   O     0.62996   0.61256   0.62053   0.00000  Uiso   1.00
O224   O     0.41266   0.49751   0.54130   0.00000  Uiso   1.00
N225   N     0.33804   0.17582   0.79291   0.00000  Uiso   1.00
N226   N     0.64232   0.77658   0.64255   0.00000  Uiso   1.00
N227   N     0.48748   0.40718   0.58608   0.00000  Uiso   1.00
N228   N     0.18986   0.12473   0.77412   0.00000  Uiso   1.00
N229   N     0.49414   0.72549   0.62376   0.00000  Uiso   1.00
N230   N     0.33930   0.35609   0.56729   0.00000  Uiso   1.00
C231   C     0.49770   0.87560   0.17551   0.00000  Uiso   1.00
C232   C     0.57919   0.87390   0.20328   0.00000  Uiso   1.00
C233   C     0.56515   0.84403   0.23709   0.00000  Uiso   1.00
C234   C     0.64922   0.84795   0.25850   0.00000  Uiso   1.00
C235   C     0.76133   0.84039   0.30343   0.00000  Uiso   1.00
C236   C     0.49533   0.98394   0.16184   0.00000  Uiso   1.00
C237   C     0.41078   0.04658   0.16081   0.00000  Uiso   1.00
C238   C     0.42426   0.14313   0.14733   0.00000  Uiso   1.00
C239   C     0.40617   0.30639   0.12792   0.00000  Uiso   1.00
C240   C     0.53801   0.81014   0.14628   0.00000  Uiso   1.00
C241   C     0.48934   0.72666   0.13216   0.00000  Uiso   1.00
C242   C     0.53874   0.67690   0.10558   0.00000  Uiso   1.00
C243   C     0.58691   0.57031   0.06201   0.00000  Uiso   1.00
C244   C     0.67196   0.93568   0.15341   0.00000  Uiso   1.00
C245   C     0.67383   0.90654   0.19127   0.00000  Uiso   1.00
C246   C     0.75795   0.91050   0.21264   0.00000  Uiso   1.00
C247   C     0.74404   0.88063   0.24647   0.00000  Uiso   1.00
C248   C     0.58997   0.01658   0.14984   0.00000  Uiso   1.00
C249   C     0.60358   0.11306   0.13636   0.00000  Uiso   1.00
C250   C     0.51908   0.17583   0.13531   0.00000  Uiso   1.00
C251   C     0.63266   0.84277   0.13428   0.00000  Uiso   1.00
C252   C     0.68214   0.79313   0.10771   0.00000  Uiso   1.00
C253   C     0.63356   0.70959   0.09356   0.00000  Uiso   1.00
H254   H     0.42401   0.85020   0.18486   0.00000  Uiso   1.00
H255   H     0.49189   0.81878   0.24637   0.00000  Uiso   1.00
H256   H     0.33755   0.02130   0.17010   0.00000  Uiso   1.00
H257   H     0.41609   0.70143   0.14146   0.00000  Uiso   1.00
H258   H     0.60888   0.79838   0.30927   0.00000  Uiso   1.00
H259   H     0.28343   0.22539   0.14844   0.00000  Uiso   1.00
H260   H     0.44905   0.55088   0.08804   0.00000  Uiso   1.00
H261   H     0.74565   0.96109   0.14407   0.00000  Uiso   1.00
H262   H     0.83118   0.93576   0.20334   0.00000  Uiso   1.00
H263   H     0.67683   0.13828   0.12707   0.00000  Uiso   1.00
H264   H     0.75538   0.81841   0.09843   0.00000  Uiso   1.00
H265   H     0.88426   0.89333   0.27435   0.00000  Uiso   1.00
H266   H     0.55880   0.32034   0.11352   0.00000  Uiso   1.00
H267   H     0.72443   0.64583   0.05312   0.00000  Uiso   1.00
O268   O     0.79702   0.82722   0.33154   0.00000  Uiso   1.00
O269   O     0.37004   0.38744   0.12053   0.00000  Uiso   1.00
O270   O     0.58734   0.50249   0.04130   0.00000  Uiso   1.00
N271   N     0.66196   0.82418   0.29291   0.00000  Uiso   1.00
N272   N     0.35768   0.22342   0.14255   0.00000  Uiso   1.00
N273   N     0.51252   0.59282   0.08608   0.00000  Uiso   1.00
N274   N     0.81014   0.87527   0.27412   0.00000  Uiso   1.00
N275   N     0.50586   0.27451   0.12376   0.00000  Uiso   1.00
N276   N     0.66070   0.64391   0.06729   0.00000  Uiso   1.00
C277   C     0.62440   0.99770   0.92551   0.00000  Uiso   1.00
C278   C     0.62610   0.07919   0.95328   0.00000  Uiso   1.00
C279   C     0.65597   0.06515   0.98709   0.00000  Uiso   1.00
C280   C     0.65205   0.14922   0.00850   0.00000  Uiso   1.00
C281   C     0.65961   0.26133   0.05343   0.00000  Uiso   1.00
C282   C     0.51606   0.99533   0.91184   0.00000  Uiso   1.00
C283   C     0.45342   0.91078   0.91081   0.00000  Uiso   1.00
C284   C     0.35687   0.92426   0.89733   0.00000  Uiso   1.00
C285   C     0.19361   0.90617   0.87792   0.00000  Uiso   1.00
C286   C     0.68986   0.03801   0.89628   0.00000  Uiso   1.00
C287   C     0.77334   0.98934   0.88216   0.00000  Uiso   1.00
C288   C     0.82310   0.03874   0.85558   0.00000  Uiso   1.00
C289   C     0.92969   0.08691   0.81201   0.00000  Uiso   1.00
C290   C     0.56432   0.17196   0.90341   0.00000  Uiso   1.00
C291   C     0.59346   0.17383   0.94127   0.00000  Uiso   1.00
C292   C     0.58950   0.25795   0.96264   0.00000  Uiso   1.00
C293   C     0.61937   0.24404   0.99647   0.00000  Uiso   1.00
C294   C     0.48342   0.08997   0.89984   0.00000  Uiso   1.00
C295   C     0.38694   0.10358   0.88636   0.00000  Uiso   1.00
C296   C     0.32417   0.01908   0.88531   0.00000  Uiso   1.00
C297   C     0.65723   0.13266   0.88428   0.00000  Uiso   1.00
C298   C     0.70687   0.18214   0.85771   0.00000  Uiso   1.00
C299   C     0.79041   0.13356   0.84356   0.00000  Uiso   1.00
H300   H     0.64980   0.92401   0.93486   0.00000  Uiso   1.00
H301   H     0.68122   0.99189   0.99637   0.00000  Uiso   1.00
H302   H     0.47870   0.83755   0.92010   0.00000  Uiso   1.00
H303   H     0.79857   0.91609   0.89146   0.00000  Uiso   1.00
H304   H     0.70162   0.10888   0.05927   0.00000  Uiso   1.00
H305   H     0.27461   0.78343   0.89844   0.00000  Uiso   1.00
H306   H     0.94912   0.94905   0.83804   0.00000  Uiso   1.00
H307   H     0.53891   0.24565   0.89407   0.00000  Uiso   1.00
H308   H     0.56424   0.33118   0.95334   0.00000  Uiso   1.00
H309   H     0.36172   0.17683   0.87707   0.00000  Uiso   1.00
H310   H     0.68159   0.25538   0.84843   0.00000  Uiso   1.00
H311   H     0.60667   0.38426   0.02435   0.00000  Uiso   1.00
H312   H     0.17966   0.05880   0.86352   0.00000  Uiso   1.00
H313   H     0.85417   0.22443   0.80312   0.00000  Uiso   1.00
O314   O     0.67278   0.29702   0.08154   0.00000  Uiso   1.00
O315   O     0.11256   0.87004   0.87053   0.00000  Uiso   1.00
O316   O     0.99751   0.08734   0.79130   0.00000  Uiso   1.00
N317   N     0.67582   0.16196   0.04291   0.00000  Uiso   1.00
N318   N     0.27658   0.85768   0.89255   0.00000  Uiso   1.00
N319   N     0.90718   0.01252   0.83608   0.00000  Uiso   1.00
N320   N     0.62473   0.31014   0.02412   0.00000  Uiso   1.00
N321   N     0.22549   0.00586   0.87376   0.00000  Uiso   1.00
N322   N     0.85609   0.16070   0.81729   0.00000  Uiso   1.00
C323   C     0.37560   0.00230   0.42551   0.00000  Uiso   1.00
C324   C     0.37390   0.92081   0.45328   0.00000  Uiso   1.00
C325   C     0.34403   0.93485   0.48709   0.00000  Uiso   1.00
C326   C     0.34795   0.85078   0.50850   0.00000  Uiso   1.00
C327   C     0.34039   0.73867   0.55343   0.00000  Uiso   1.00
C328   C     0.48394   0.00467   0.41184   0.00000  Uiso   1.00
C329   C     0.54658   0.08922   0.41081   0.00000  Uiso   1.00
C330   C     0.64313   0.07574   0.39733   0.00000  Uiso   1.00
C331   C     0.80639   0.09383   0.37792   0.00000  Uiso   1.00
C332   C     0.31014   0.96199   0.39628   0.00000  Uiso   1.00
C333   C     0.22666   0.01066   0.38216   0.00000  Uiso   1.00
C334   C     0.17690   0.96126   0.35558   0.00000  Uiso   1.00
C335   C     0.07031   0.91309   0.31201   0.00000  Uiso   1.00
C336   C     0.43568   0.82804   0.40341   0.00000  Uiso   1.00
C337   C     0.40654   0.82617   0.44127   0.00000  Uiso   1.00
C338   C     0.41050   0.74205   0.46264   0.00000  Uiso   1.00
C339   C     0.38063   0.75596   0.49647   0.00000  Uiso   1.00
C340   C     0.51658   0.91003   0.39984   0.00000  Uiso   1.00
C341   C     0.61306   0.89642   0.38636   0.00000  Uiso   1.00
C342   C     0.67583   0.98092   0.38531   0.00000  Uiso   1.00
C343   C     0.34277   0.86734   0.38428   0.00000  Uiso   1.00
C344   C     0.29313   0.81786   0.35771   0.00000  Uiso   1.00
C345   C     0.20959   0.86644   0.34356   0.00000  Uiso   1.00
H346   H     0.35020   0.07599   0.43486   0.00000  Uiso   1.00
H347   H     0.31878   0.00811   0.49637   0.00000  Uiso   1.00
H348   H     0.52130   0.16245   0.42010   0.00000  Uiso   1.00
H349   H     0.20143   0.08391   0.39146   0.00000  Uiso   1.00
H350   H     0.29838   0.89112   0.55927   0.00000  Uiso   1.00
H351   H     0.72539   0.21657   0.39844   0.00000  Uiso   1.00
H352   H     0.05088   0.05095   0.33804   0.00000  Uiso   1.00
H353   H     0.46109   0.75435   0.39407   0.00000  Uiso   1.00
H354   H     0.43576   0.66882   0.45334   0.00000  Uiso   1.00
H355   H     0.63828   0.82317   0.37707   0.00000  Uiso   1.00
H356   H     0.31841   0.74462   0.34843   0.00000  Uiso   1.00
H357   H     0.39333   0.61574   0.52435   0.00000  Uiso   1.00
H358   H     0.82034   0.94120   0.36352   0.00000  Uiso   1.00
H359   H     0.14583   0.77557   0.30312   0.00000  Uiso   1.00
O360   O     0.32722   0.70298   0.58154   0.00000  Uiso   1.00
O361   O     0.88744   0.12996   0.37053   0.00000  Uiso   1.00
O362   O     0.00249   0.91266   0.29130   0.00000  Uiso   1.00
N363   N     0.32418   0.83804   0.54291   0.00000  Uiso   1.00
N364   N     0.72342   0.14232   0.39255   0.00000  Uiso   1.00
N365   N     0.09282   0.98748   0.33608   0.00000  Uiso   1.00
N366   N     0.37527   0.68986   0.52412   0.00000  Uiso   1.00
N367   N     0.77451   0.99414   0.37376   0.00000  Uiso   1.00
N368   N     0.14391   0.83930   0.31729   0.00000  Uiso   1.00
