data_job_06726
_audit_creation_date              2018-12-19
_audit_creation_method            'Materials Studio'
_symmetry_space_group_name_H-M    'P1'
_symmetry_Int_Tables_number       1
_symmetry_cell_setting            triclinic
loop_
_symmetry_equiv_pos_as_xyz
  x,y,z
_cell_length_a                    19.7385
_cell_length_b                    22.3120
_cell_length_c                    23.1942
_cell_angle_alpha                 75.4410
_cell_angle_beta                  65.5485
_cell_angle_gamma                 65.7920
loop_
_atom_site_label
_atom_site_type_symbol
_atom_site_fract_x
_atom_site_fract_y
_atom_site_fract_z
_atom_site_U_iso_or_equiv
_atom_site_adp_type
_atom_site_occupancy
C1     C     0.78925   0.76157   0.13677   0.00000  Uiso   1.00
C2     C     0.71821   0.77375   0.19884   0.00000  Uiso   1.00
C3     C     0.72112   0.77053   0.25834   0.00000  Uiso   1.00
C4     C     0.64958   0.78330   0.30922   0.00000  Uiso   1.00
C5     C     0.55020   0.79983   0.40688   0.00000  Uiso   1.00
C6     C     0.78797   0.70679   0.10943   0.00000  Uiso   1.00
C7     C     0.84954   0.64727   0.09376   0.00000  Uiso   1.00
C8     C     0.83672   0.60366   0.06937   0.00000  Uiso   1.00
C9     C     0.84567   0.51625   0.02817   0.00000  Uiso   1.00
C10    C     0.77095   0.82364   0.09145   0.00000  Uiso   1.00
C11    C     0.81822   0.86236   0.06065   0.00000  Uiso   1.00
C12    C     0.79107   0.91713   0.02111   0.00000  Uiso   1.00
C13    C     0.77359   0.01114   0.95201   0.00000  Uiso   1.00
C14    C     0.65701   0.78998   0.12131   0.00000  Uiso   1.00
C15    C     0.64639   0.78918   0.19043   0.00000  Uiso   1.00
C16    C     0.57482   0.80196   0.24124   0.00000  Uiso   1.00
C17    C     0.57762   0.79876   0.30081   0.00000  Uiso   1.00
C18    C     0.71615   0.72221   0.10103   0.00000  Uiso   1.00
C19    C     0.70323   0.67869   0.07665   0.00000  Uiso   1.00
C20    C     0.76476   0.61912   0.06095   0.00000  Uiso   1.00
C21    C     0.69912   0.83907   0.08305   0.00000  Uiso   1.00
C22    C     0.67191   0.89379   0.04355   0.00000  Uiso   1.00
C23    C     0.71912   0.93258   0.01270   0.00000  Uiso   1.00
H24    H     0.84518   0.74956   0.14331   0.00000  Uiso   1.00
H25    H     0.77672   0.75858   0.26483   0.00000  Uiso   1.00
H26    H     0.90512   0.63534   0.10026   0.00000  Uiso   1.00
H27    H     0.87380   0.85040   0.06716   0.00000  Uiso   1.00
H28    H     0.66916   0.77537   0.39585   0.00000  Uiso   1.00
H29    H     0.93990   0.51552   0.04883   0.00000  Uiso   1.00
H30    H     0.87386   0.96901   0.97904   0.00000  Uiso   1.00
H31    H     0.60109   0.80199   0.11477   0.00000  Uiso   1.00
H32    H     0.51924   0.81390   0.23472   0.00000  Uiso   1.00
H33    H     0.64764   0.69065   0.07015   0.00000  Uiso   1.00
H34    H     0.61632   0.90571   0.03706   0.00000  Uiso   1.00
H35    H     0.46018   0.82026   0.37142   0.00000  Uiso   1.00
H36    H     0.73093   0.56041   0.02439   0.00000  Uiso   1.00
H37    H     0.66487   0.01390   0.95461   0.00000  Uiso   1.00
O38    O     0.51523   0.80468   0.46306   0.00000  Uiso   1.00
O39    O     0.87045   0.46377   0.00778   0.00000  Uiso   1.00
O40    O     0.78379   0.05874   0.91622   0.00000  Uiso   1.00
N41    N     0.63120   0.78432   0.37364   0.00000  Uiso   1.00
N42    N     0.88433   0.54136   0.04920   0.00000  Uiso   1.00
N43    N     0.82259   0.96533   0.98394   0.00000  Uiso   1.00
N44    N     0.51875   0.80847   0.36049   0.00000  Uiso   1.00
N45    N     0.77188   0.56552   0.03606   0.00000  Uiso   1.00
N46    N     0.71014   0.98949   0.97079   0.00000  Uiso   1.00
C47    C     0.82129   0.16663   0.26991   0.00000  Uiso   1.00
C48    C     0.90787   0.12143   0.25399   0.00000  Uiso   1.00
C49    C     0.93575   0.05340   0.25345   0.00000  Uiso   1.00
C50    C     0.01706   0.02097   0.23765   0.00000  Uiso   1.00
C51    C     0.14366   0.94554   0.21519   0.00000  Uiso   1.00
C52    C     0.80283   0.20389   0.32450   0.00000  Uiso   1.00
C53    C     0.74239   0.20519   0.38324   0.00000  Uiso   1.00
C54    C     0.73528   0.24219   0.42678   0.00000  Uiso   1.00
C55    C     0.69877   0.29482   0.51377   0.00000  Uiso   1.00
C56    C     0.81813   0.21802   0.21268   0.00000  Uiso   1.00
C57    C     0.77055   0.23121   0.17741   0.00000  Uiso   1.00
C58    C     0.77630   0.28012   0.12683   0.00000  Uiso   1.00
C59    C     0.76356   0.35468   0.04021   0.00000  Uiso   1.00
C60    C     0.91610   0.23002   0.24280   0.00000  Uiso   1.00
C61    C     0.95936   0.15586   0.23926   0.00000  Uiso   1.00
C62    C     0.04065   0.12353   0.22345   0.00000  Uiso   1.00
C63    C     0.06865   0.05546   0.22289   0.00000  Uiso   1.00
C64    C     0.85432   0.23832   0.30977   0.00000  Uiso   1.00
C65    C     0.84729   0.27533   0.35324   0.00000  Uiso   1.00
C66    C     0.78687   0.27668   0.41203   0.00000  Uiso   1.00
C67    C     0.86963   0.25245   0.19795   0.00000  Uiso   1.00
C68    C     0.87545   0.30135   0.14741   0.00000  Uiso   1.00
C69    C     0.82789   0.31461   0.11207   0.00000  Uiso   1.00
H70    H     0.78119   0.13983   0.28138   0.00000  Uiso   1.00
H71    H     0.89588   0.02677   0.26486   0.00000  Uiso   1.00
H72    H     0.70254   0.17855   0.39462   0.00000  Uiso   1.00
H73    H     0.73070   0.20456   0.18883   0.00000  Uiso   1.00
H74    H     0.04574   0.91660   0.24007   0.00000  Uiso   1.00
H75    H     0.63807   0.23665   0.51366   0.00000  Uiso   1.00
H76    H     0.69744   0.29151   0.07971   0.00000  Uiso   1.00
H77    H     0.95619   0.25683   0.23133   0.00000  Uiso   1.00
H78    H     0.08049   0.15019   0.21206   0.00000  Uiso   1.00
H79    H     0.88715   0.30197   0.34182   0.00000  Uiso   1.00
H80    H     0.91531   0.32798   0.13603   0.00000  Uiso   1.00
H81    H     0.19558   0.01677   0.19721   0.00000  Uiso   1.00
H82    H     0.78790   0.33683   0.47081   0.00000  Uiso   1.00
H83    H     0.84728   0.39169   0.03686   0.00000  Uiso   1.00
O84    O     0.19926   0.89442   0.20688   0.00000  Uiso   1.00
O85    O     0.66440   0.31433   0.56583   0.00000  Uiso   1.00
O86    O     0.74231   0.38630   0.99649   0.00000  Uiso   1.00
N87    N     0.06395   0.95481   0.23261   0.00000  Uiso   1.00
N88    N     0.68281   0.25403   0.48841   0.00000  Uiso   1.00
N89    N     0.73830   0.30533   0.08272   0.00000  Uiso   1.00
N90    N     0.14457   0.00872   0.20955   0.00000  Uiso   1.00
N91    N     0.76343   0.30794   0.46535   0.00000  Uiso   1.00
N92    N     0.81893   0.35924   0.05966   0.00000  Uiso   1.00
C93    C     0.38186   0.01105   0.79419   0.00000  Uiso   1.00
C94    C     0.40107   0.95156   0.76175   0.00000  Uiso   1.00
C95    C     0.39582   0.89075   0.79237   0.00000  Uiso   1.00
C96    C     0.41602   0.84268   0.75420   0.00000  Uiso   1.00
C97    C     0.44214   0.74841   0.71392   0.00000  Uiso   1.00
C98    C     0.45639   0.02953   0.76543   0.00000  Uiso   1.00
C99    C     0.49764   0.03428   0.79916   0.00000  Uiso   1.00
C100   C     0.56440   0.05185   0.76408   0.00000  Uiso   1.00
C101   C     0.67638   0.07867   0.72952   0.00000  Uiso   1.00
C102   C     0.31911   0.06767   0.77162   0.00000  Uiso   1.00
C103   C     0.24495   0.10452   0.81055   0.00000  Uiso   1.00
C104   C     0.19614   0.15422   0.78069   0.00000  Uiso   1.00
C105   C     0.09497   0.24027   0.75575   0.00000  Uiso   1.00
C106   C     0.42706   0.03382   0.67194   0.00000  Uiso   1.00
C107   C     0.42562   0.96393   0.69534   0.00000  Uiso   1.00
C108   C     0.44582   0.91594   0.65711   0.00000  Uiso   1.00
C109   C     0.44060   0.85507   0.68768   0.00000  Uiso   1.00
C110   C     0.48094   0.04189   0.69903   0.00000  Uiso   1.00
C111   C     0.54765   0.05947   0.66390   0.00000  Uiso   1.00
C112   C     0.58899   0.06424   0.69756   0.00000  Uiso   1.00
C113   C     0.34366   0.08004   0.70522   0.00000  Uiso   1.00
C114   C     0.29495   0.12970   0.67529   0.00000  Uiso   1.00
C115   C     0.22073   0.16661   0.71417   0.00000  Uiso   1.00
H116   H     0.36276   0.00143   0.84589   0.00000  Uiso   1.00
H117   H     0.37683   0.88120   0.84376   0.00000  Uiso   1.00
H118   H     0.47863   0.02471   0.85054   0.00000  Uiso   1.00
H119   H     0.22597   0.09493   0.86194   0.00000  Uiso   1.00
H120   H     0.40328   0.75335   0.81212   0.00000  Uiso   1.00
H121   H     0.61792   0.05597   0.82642   0.00000  Uiso   1.00
H122   H     0.08515   0.20405   0.85045   0.00000  Uiso   1.00
H123   H     0.44617   0.04345   0.62024   0.00000  Uiso   1.00
H124   H     0.46482   0.92552   0.60573   0.00000  Uiso   1.00
H125   H     0.56662   0.06904   0.61251   0.00000  Uiso   1.00
H126   H     0.31397   0.13926   0.62390   0.00000  Uiso   1.00
H127   H     0.47470   0.78932   0.61892   0.00000  Uiso   1.00
H128   H     0.68934   0.09195   0.63322   0.00000  Uiso   1.00
H129   H     0.15657   0.24003   0.65725   0.00000  Uiso   1.00
O130   O     0.44978   0.69300   0.71005   0.00000  Uiso   1.00
O131   O     0.73137   0.09004   0.72881   0.00000  Uiso   1.00
O132   O     0.03238   0.28431   0.76033   0.00000  Uiso   1.00
N133   N     0.41752   0.77800   0.76864   0.00000  Uiso   1.00
N134   N     0.61820   0.06093   0.78201   0.00000  Uiso   1.00
N135   N     0.12011   0.19938   0.80447   0.00000  Uiso   1.00
N136   N     0.45595   0.79736   0.66468   0.00000  Uiso   1.00
N137   N     0.65663   0.08029   0.67805   0.00000  Uiso   1.00
N138   N     0.15854   0.21874   0.70052   0.00000  Uiso   1.00
C139   C     0.14349   0.29277   0.25428   0.00000  Uiso   1.00
C140   C     0.18489   0.26955   0.30283   0.00000  Uiso   1.00
C141   C     0.16248   0.23273   0.36074   0.00000  Uiso   1.00
C142   C     0.20807   0.21642   0.39840   0.00000  Uiso   1.00
C143   C     0.26238   0.17732   0.47676   0.00000  Uiso   1.00
C144   C     0.20693   0.26615   0.19212   0.00000  Uiso   1.00
C145   C     0.20304   0.22648   0.15693   0.00000  Uiso   1.00
C146   C     0.26717   0.20731   0.10139   0.00000  Uiso   1.00
C147   C     0.35567   0.16297   0.00784   0.00000  Uiso   1.00
C148   C     0.12146   0.36762   0.24316   0.00000  Uiso   1.00
C149   C     0.04571   0.41326   0.25088   0.00000  Uiso   1.00
C150   C     0.03789   0.47952   0.23830   0.00000  Uiso   1.00
C151   C     0.99369   0.59273   0.22401   0.00000  Uiso   1.00
C152   C     0.26430   0.32928   0.21820   0.00000  Uiso   1.00
C153   C     0.25051   0.28938   0.28323   0.00000  Uiso   1.00
C154   C     0.29613   0.27312   0.32082   0.00000  Uiso   1.00
C155   C     0.27380   0.23629   0.37878   0.00000  Uiso   1.00
C156   C     0.27254   0.28598   0.17252   0.00000  Uiso   1.00
C157   C     0.33669   0.26687   0.11702   0.00000  Uiso   1.00
C158   C     0.33290   0.22717   0.08176   0.00000  Uiso   1.00
C159   C     0.18707   0.38745   0.22357   0.00000  Uiso   1.00
C160   C     0.17936   0.45365   0.21097   0.00000  Uiso   1.00
C161   C     0.10362   0.49939   0.21867   0.00000  Uiso   1.00
H162   H     0.09241   0.27733   0.26953   0.00000  Uiso   1.00
H163   H     0.11170   0.21739   0.37588   0.00000  Uiso   1.00
H164   H     0.15225   0.21115   0.17211   0.00000  Uiso   1.00
H165   H     0.99495   0.39790   0.26604   0.00000  Uiso   1.00
H166   H     0.16204   0.15966   0.48514   0.00000  Uiso   1.00
H167   H     0.24753   0.14651   0.05546   0.00000  Uiso   1.00
H168   H     0.91582   0.54032   0.25354   0.00000  Uiso   1.00
H169   H     0.31538   0.34471   0.20294   0.00000  Uiso   1.00
H170   H     0.34691   0.28847   0.30565   0.00000  Uiso   1.00
H171   H     0.38745   0.28222   0.10187   0.00000  Uiso   1.00
H172   H     0.23015   0.46898   0.19581   0.00000  Uiso   1.00
H173   H     0.35295   0.21735   0.42813   0.00000  Uiso   1.00
H174   H     0.43843   0.20420   0.99845   0.00000  Uiso   1.00
H175   H     0.10673   0.59801   0.19653   0.00000  Uiso   1.00
O176   O     0.27423   0.15027   0.52539   0.00000  Uiso   1.00
O177   O     0.38637   0.13303   0.96165   0.00000  Uiso   1.00
O178   O     0.95118   0.64970   0.22154   0.00000  Uiso   1.00
N179   N     0.20264   0.18097   0.45763   0.00000  Uiso   1.00
N180   N     0.28256   0.16866   0.05591   0.00000  Uiso   1.00
N181   N     0.97245   0.53684   0.24109   0.00000  Uiso   1.00
N182   N     0.30536   0.21201   0.42696   0.00000  Uiso   1.00
N183   N     0.38529   0.19971   0.02524   0.00000  Uiso   1.00
N184   N     0.07517   0.56788   0.21041   0.00000  Uiso   1.00
C185   C     0.14747   0.61413   0.58665   0.00000  Uiso   1.00
C186   C     0.10187   0.62888   0.65591   0.00000  Uiso   1.00
C187   C     0.11829   0.58843   0.70820   0.00000  Uiso   1.00
C188   C     0.06965   0.61077   0.76763   0.00000  Uiso   1.00
C189   C     0.00841   0.62447   0.87414   0.00000  Uiso   1.00
C190   C     0.17500   0.67240   0.55190   0.00000  Uiso   1.00
C191   C     0.25292   0.66853   0.51673   0.00000  Uiso   1.00
C192   C     0.26583   0.72750   0.48860   0.00000  Uiso   1.00
C193   C     0.31813   0.80877   0.43359   0.00000  Uiso   1.00
C194   C     0.08632   0.61758   0.56073   0.00000  Uiso   1.00
C195   C     0.08967   0.56763   0.53297   0.00000  Uiso   1.00
C196   C     0.02793   0.58046   0.51225   0.00000  Uiso   1.00
C197   C     0.94254   0.57661   0.47096   0.00000  Uiso   1.00
C198   C     0.03186   0.72574   0.59920   0.00000  Uiso   1.00
C199   C     0.03907   0.68951   0.66273   0.00000  Uiso   1.00
C200   C     0.99038   0.71191   0.72210   0.00000  Uiso   1.00
C201   C     0.00673   0.67150   0.77447   0.00000  Uiso   1.00
C202   C     0.11221   0.73302   0.55872   0.00000  Uiso   1.00
C203   C     0.12500   0.79201   0.53063   0.00000  Uiso   1.00
C204   C     0.20292   0.78824   0.49543   0.00000  Uiso   1.00
C205   C     0.02352   0.67820   0.56755   0.00000  Uiso   1.00
C206   C     0.96176   0.69111   0.54687   0.00000  Uiso   1.00
C207   C     0.96502   0.64119   0.51908   0.00000  Uiso   1.00
H208   H     0.19636   0.56693   0.58133   0.00000  Uiso   1.00
H209   H     0.16690   0.54152   0.70290   0.00000  Uiso   1.00
H210   H     0.30150   0.62161   0.51146   0.00000  Uiso   1.00
H211   H     0.13828   0.52073   0.52770   0.00000  Uiso   1.00
H212   H     0.10657   0.54009   0.84069   0.00000  Uiso   1.00
H213   H     0.39037   0.70896   0.43700   0.00000  Uiso   1.00
H214   H     0.04619   0.49623   0.47124   0.00000  Uiso   1.00
H215   H     0.98296   0.77293   0.60451   0.00000  Uiso   1.00
H216   H     0.94179   0.75883   0.72736   0.00000  Uiso   1.00
H217   H     0.07639   0.83892   0.53591   0.00000  Uiso   1.00
H218   H     0.91317   0.73803   0.55215   0.00000  Uiso   1.00
H219   H     0.92386   0.71647   0.86054   0.00000  Uiso   1.00
H220   H     0.20767   0.88534   0.45685   0.00000  Uiso   1.00
H221   H     0.86348   0.67261   0.49109   0.00000  Uiso   1.00
O222   O     0.99200   0.61529   0.93101   0.00000  Uiso   1.00
O223   O     0.36433   0.83684   0.40137   0.00000  Uiso   1.00
O224   O     0.91278   0.55774   0.44630   0.00000  Uiso   1.00
N225   N     0.06921   0.58353   0.82851   0.00000  Uiso   1.00
N226   N     0.33455   0.74142   0.45109   0.00000  Uiso   1.00
N227   N     0.01278   0.54254   0.48309   0.00000  Uiso   1.00
N228   N     0.97089   0.67844   0.83919   0.00000  Uiso   1.00
N229   N     0.23624   0.83632   0.46177   0.00000  Uiso   1.00
N230   N     0.91447   0.63744   0.49377   0.00000  Uiso   1.00
C231   C     0.52588   0.42400   0.88029   0.00000  Uiso   1.00
C232   C     0.52680   0.35438   0.88445   0.00000  Uiso   1.00
C233   C     0.58707   0.29618   0.89216   0.00000  Uiso   1.00
C234   C     0.57668   0.23751   0.89488   0.00000  Uiso   1.00
C235   C     0.58846   0.12947   0.90210   0.00000  Uiso   1.00
C236   C     0.45004   0.45818   0.93275   0.00000  Uiso   1.00
C237   C     0.44577   0.48725   0.98106   0.00000  Uiso   1.00
C238   C     0.37076   0.51596   0.02444   0.00000  Uiso   1.00
C239   C     0.26337   0.56911   0.10662   0.00000  Uiso   1.00
C240   C     0.51472   0.45896   0.81760   0.00000  Uiso   1.00
C241   C     0.56482   0.48871   0.76910   0.00000  Uiso   1.00
C242   C     0.54426   0.51809   0.71554   0.00000  Uiso   1.00
C243   C     0.53729   0.57245   0.61894   0.00000  Uiso   1.00
C244   C     0.40026   0.42330   0.87142   0.00000  Uiso   1.00
C245   C     0.45856   0.35401   0.87963   0.00000  Uiso   1.00
C246   C     0.44808   0.29541   0.88234   0.00000  Uiso   1.00
C247   C     0.50832   0.23713   0.89005   0.00000  Uiso   1.00
C248   C     0.38180   0.45780   0.92793   0.00000  Uiso   1.00
C249   C     0.30678   0.48648   0.97124   0.00000  Uiso   1.00
C250   C     0.30240   0.51558   0.01961   0.00000  Uiso   1.00
C251   C     0.44648   0.45858   0.81278   0.00000  Uiso   1.00
C252   C     0.42583   0.48793   0.75928   0.00000  Uiso   1.00
C253   C     0.47590   0.51771   0.71071   0.00000  Uiso   1.00
H254   H     0.57900   0.42430   0.88405   0.00000  Uiso   1.00
H255   H     0.63987   0.29650   0.89589   0.00000  Uiso   1.00
H256   H     0.49859   0.48755   0.98478   0.00000  Uiso   1.00
H257   H     0.61762   0.48899   0.77285   0.00000  Uiso   1.00
H258   H     0.67723   0.15464   0.90692   0.00000  Uiso   1.00
H259   H     0.37934   0.55749   0.09433   0.00000  Uiso   1.00
H260   H     0.63034   0.56055   0.64744   0.00000  Uiso   1.00
H261   H     0.34713   0.42300   0.86766   0.00000  Uiso   1.00
H262   H     0.39527   0.29513   0.87860   0.00000  Uiso   1.00
H263   H     0.25399   0.48617   0.96749   0.00000  Uiso   1.00
H264   H     0.37302   0.48762   0.75557   0.00000  Uiso   1.00
H265   H     0.47871   0.15353   0.89289   0.00000  Uiso   1.00
H266   H     0.18081   0.55638   0.08030   0.00000  Uiso   1.00
H267   H     0.43182   0.55944   0.63341   0.00000  Uiso   1.00
O268   O     0.61381   0.06999   0.90742   0.00000  Uiso   1.00
O269   O     0.22298   0.59852   0.15328   0.00000  Uiso   1.00
O270   O     0.55230   0.60253   0.56698   0.00000  Uiso   1.00
N271   N     0.62391   0.17193   0.90210   0.00000  Uiso   1.00
N272   N     0.34540   0.54856   0.07732   0.00000  Uiso   1.00
N273   N     0.58006   0.55144   0.65953   0.00000  Uiso   1.00
N274   N     0.51709   0.17133   0.89455   0.00000  Uiso   1.00
N275   N     0.23857   0.54796   0.06978   0.00000  Uiso   1.00
N276   N     0.47323   0.55084   0.65198   0.00000  Uiso   1.00
C277   C     0.09206   0.34083   0.88254   0.00000  Uiso   1.00
C278   C     0.17454   0.30814   0.83561   0.00000  Uiso   1.00
C279   C     0.19866   0.32076   0.76984   0.00000  Uiso   1.00
C280   C     0.27658   0.28573   0.73526   0.00000  Uiso   1.00
C281   C     0.39677   0.24199   0.65781   0.00000  Uiso   1.00
C282   C     0.10431   0.37159   0.92757   0.00000  Uiso   1.00
C283   C     0.06937   0.43755   0.93911   0.00000  Uiso   1.00
C284   C     0.08816   0.45592   0.98196   0.00000  Uiso   1.00
C285   C     0.09927   0.51067   0.04730   0.00000  Uiso   1.00
C286   C     0.06278   0.28476   0.92251   0.00000  Uiso   1.00
C287   C     0.99290   0.27772   0.92983   0.00000  Uiso   1.00
C288   C     0.97672   0.22300   0.96843   0.00000  Uiso   1.00
C289   C     0.92333   0.14294   0.02592   0.00000  Uiso   1.00
C290   C     0.18755   0.25618   0.93810   0.00000  Uiso   1.00
C291   C     0.22640   0.26216   0.86579   0.00000  Uiso   1.00
C292   C     0.30431   0.22710   0.83131   0.00000  Uiso   1.00
C293   C     0.32854   0.23967   0.76550   0.00000  Uiso   1.00
C294   C     0.15617   0.32561   0.95774   0.00000  Uiso   1.00
C295   C     0.17501   0.34389   0.00058   0.00000  Uiso   1.00
C296   C     0.14012   0.40986   0.01219   0.00000  Uiso   1.00
C297   C     0.11464   0.23878   0.95269   0.00000  Uiso   1.00
C298   C     0.09855   0.18406   0.99129   0.00000  Uiso   1.00
C299   C     0.02867   0.17694   0.99866   0.00000  Uiso   1.00
H300   H     0.05169   0.37663   0.85905   0.00000  Uiso   1.00
H301   H     0.15851   0.35635   0.74650   0.00000  Uiso   1.00
H302   H     0.02924   0.47311   0.91576   0.00000  Uiso   1.00
H303   H     0.95279   0.31331   0.90647   0.00000  Uiso   1.00
H304   H     0.29983   0.31361   0.63504   0.00000  Uiso   1.00
H305   H     0.02722   0.55981   0.99194   0.00000  Uiso   1.00
H306   H     0.86600   0.22284   0.97235   0.00000  Uiso   1.00
H307   H     0.22792   0.22038   0.96160   0.00000  Uiso   1.00
H308   H     0.34443   0.19153   0.85467   0.00000  Uiso   1.00
H309   H     0.21515   0.30829   0.02393   0.00000  Uiso   1.00
H310   H     0.13870   0.14849   0.01464   0.00000  Uiso   1.00
H311   H     0.45072   0.17984   0.72283   0.00000  Uiso   1.00
H312   H     0.17811   0.42603   0.07974   0.00000  Uiso   1.00
H313   H     0.01690   0.08906   0.06014   0.00000  Uiso   1.00
O314   O     0.44874   0.23058   0.60675   0.00000  Uiso   1.00
O315   O     0.09108   0.55357   0.07500   0.00000  Uiso   1.00
O316   O     0.87957   0.11148   0.04929   0.00000  Uiso   1.00
N317   N     0.31935   0.28608   0.67037   0.00000  Uiso   1.00
N318   N     0.06449   0.51626   0.00404   0.00000  Uiso   1.00
N319   N     0.91375   0.20123   0.98574   0.00000  Uiso   1.00
N320   N     0.40054   0.21409   0.71761   0.00000  Uiso   1.00
N321   N     0.14568   0.44427   0.05129   0.00000  Uiso   1.00
N322   N     0.99495   0.12924   0.03299   0.00000  Uiso   1.00
C323   C     0.19784   0.95899   0.62661   0.00000  Uiso   1.00
C324   C     0.18344   0.98004   0.56362   0.00000  Uiso   1.00
C325   C     0.23071   0.00509   0.50772   0.00000  Uiso   1.00
C326   C     0.20747   0.02142   0.45524   0.00000  Uiso   1.00
C327   C     0.19548   0.05536   0.35691   0.00000  Uiso   1.00
C328   C     0.20167   0.88737   0.64469   0.00000  Uiso   1.00
C329   C     0.26427   0.83450   0.65696   0.00000  Uiso   1.00
C330   C     0.25636   0.77283   0.67272   0.00000  Uiso   1.00
C331   C     0.27265   0.66290   0.70030   0.00000  Uiso   1.00
C332   C     0.12251   0.99891   0.67578   0.00000  Uiso   1.00
C333   C     0.11856   0.03981   0.71420   0.00000  Uiso   1.00
C334   C     0.04400   0.07203   0.75615   0.00000  Uiso   1.00
C335   C     0.93740   0.13529   0.83199   0.00000  Uiso   1.00
C336   C     0.07248   0.94346   0.63281   0.00000  Uiso   1.00
C337   C     0.11535   0.97160   0.56699   0.00000  Uiso   1.00
C338   C     0.09202   0.98790   0.51458   0.00000  Uiso   1.00
C339   C     0.13925   0.01297   0.45861   0.00000  Uiso   1.00
C340   C     0.13358   0.87893   0.64805   0.00000  Uiso   1.00
C341   C     0.12557   0.81732   0.66381   0.00000  Uiso   1.00
C342   C     0.18814   0.76437   0.67609   0.00000  Uiso   1.00
C343   C     0.05442   0.99047   0.67914   0.00000  Uiso   1.00
C344   C     0.97986   0.02263   0.72104   0.00000  Uiso   1.00
C345   C     0.97579   0.06358   0.75952   0.00000  Uiso   1.00
H346   H     0.25086   0.96555   0.62400   0.00000  Uiso   1.00
H347   H     0.28341   0.01160   0.50514   0.00000  Uiso   1.00
H348   H     0.31695   0.84105   0.65436   0.00000  Uiso   1.00
H349   H     0.17126   0.04633   0.71158   0.00000  Uiso   1.00
H350   H     0.28949   0.05891   0.37484   0.00000  Uiso   1.00
H351   H     0.36021   0.69930   0.68949   0.00000  Uiso   1.00
H352   H     0.05299   0.13217   0.81016   0.00000  Uiso   1.00
H353   H     0.01947   0.93689   0.63543   0.00000  Uiso   1.00
H354   H     0.03932   0.98137   0.51719   0.00000  Uiso   1.00
H355   H     0.07287   0.81081   0.66641   0.00000  Uiso   1.00
H356   H     0.92718   0.01609   0.72364   0.00000  Uiso   1.00
H357   H     0.09138   0.03437   0.38462   0.00000  Uiso   1.00
H358   H     0.16210   0.67475   0.69928   0.00000  Uiso   1.00
H359   H     0.85488   0.10762   0.81995   0.00000  Uiso   1.00
O360   O     0.20769   0.07640   0.30174   0.00000  Uiso   1.00
O361   O     0.30046   0.60460   0.71457   0.00000  Uiso   1.00
O362   O     0.89740   0.17252   0.87288   0.00000  Uiso   1.00
N363   N     0.24013   0.04705   0.39337   0.00000  Uiso   1.00
N364   N     0.30625   0.71082   0.68754   0.00000  Uiso   1.00
N365   N     0.01904   0.11551   0.80037   0.00000  Uiso   1.00
N366   N     0.13353   0.03384   0.39863   0.00000  Uiso   1.00
N367   N     0.19965   0.69762   0.69281   0.00000  Uiso   1.00
N368   N     0.91244   0.10230   0.80564   0.00000  Uiso   1.00
C369   C     0.61610   0.12705   0.09841   0.00000  Uiso   1.00
C370   C     0.58536   0.19878   0.11186   0.00000  Uiso   1.00
C371   C     0.59857   0.25112   0.06709   0.00000  Uiso   1.00
C372   C     0.56536   0.31302   0.08892   0.00000  Uiso   1.00
C373   C     0.52442   0.42302   0.10002   0.00000  Uiso   1.00
C374   C     0.54318   0.10685   0.12255   0.00000  Uiso   1.00
C375   C     0.52094   0.08189   0.08678   0.00000  Uiso   1.00
C376   C     0.45223   0.06639   0.11762   0.00000  Uiso   1.00
C377   C     0.34584   0.03363   0.14533   0.00000  Uiso   1.00
C378   C     0.66323   0.08704   0.14194   0.00000  Uiso   1.00
C379   C     0.74191   0.04540   0.12247   0.00000  Uiso   1.00
C380   C     0.77426   0.01321   0.16964   0.00000  Uiso   1.00
C381   C     0.85426   0.94968   0.22746   0.00000  Uiso   1.00
C382   C     0.53364   0.14389   0.21680   0.00000  Uiso   1.00
C383   C     0.54057   0.20793   0.17616   0.00000  Uiso   1.00
C384   C     0.50734   0.26976   0.19807   0.00000  Uiso   1.00
C385   C     0.52050   0.32218   0.15334   0.00000  Uiso   1.00
C386   C     0.49840   0.11600   0.18686   0.00000  Uiso   1.00
C387   C     0.42971   0.10053   0.21776   0.00000  Uiso   1.00
C388   C     0.40736   0.07556   0.18204   0.00000  Uiso   1.00
C389   C     0.61844   0.09619   0.20625   0.00000  Uiso   1.00
C390   C     0.65068   0.06405   0.25346   0.00000  Uiso   1.00
C391   C     0.72939   0.02237   0.23406   0.00000  Uiso   1.00
H392   H     0.65096   0.11992   0.04835   0.00000  Uiso   1.00
H393   H     0.63323   0.24402   0.01733   0.00000  Uiso   1.00
H394   H     0.55561   0.07481   0.03702   0.00000  Uiso   1.00
H395   H     0.77655   0.03834   0.07271   0.00000  Uiso   1.00
H396   H     0.59379   0.38566   0.01129   0.00000  Uiso   1.00
H397   H     0.43015   0.02884   0.05281   0.00000  Uiso   1.00
H398   H     0.89604   0.95192   0.12807   0.00000  Uiso   1.00
H399   H     0.49877   0.15101   0.26686   0.00000  Uiso   1.00
H400   H     0.47268   0.27683   0.24784   0.00000  Uiso   1.00
H401   H     0.39507   0.10761   0.26752   0.00000  Uiso   1.00
H402   H     0.61600   0.07114   0.30321   0.00000  Uiso   1.00
H403   H     0.46348   0.41228   0.19838   0.00000  Uiso   1.00
H404   H     0.29984   0.05546   0.23990   0.00000  Uiso   1.00
H405   H     0.76573   0.97854   0.31516   0.00000  Uiso   1.00
O406   O     0.51420   0.48118   0.08838   0.00000  Uiso   1.00
O407   O     0.29952   0.01304   0.14285   0.00000  Uiso   1.00
O408   O     0.91075   0.91212   0.24159   0.00000  Uiso   1.00
N409   N     0.56672   0.37465   0.05794   0.00000  Uiso   1.00
N410   N     0.41372   0.04107   0.09675   0.00000  Uiso   1.00
N411   N     0.84927   0.96913   0.16712   0.00000  Uiso   1.00
N412   N     0.49660   0.38898   0.15861   0.00000  Uiso   1.00
N413   N     0.34360   0.05539   0.19742   0.00000  Uiso   1.00
N414   N     0.77916   0.98346   0.26779   0.00000  Uiso   1.00
C415   C     0.73485   0.85878   0.42349   0.00000  Uiso   1.00
C416   C     0.65298   0.90892   0.42686   0.00000  Uiso   1.00
C417   C     0.62082   0.92604   0.37945   0.00000  Uiso   1.00
C418   C     0.54503   0.97295   0.39171   0.00000  Uiso   1.00
C419   C     0.42432   0.04645   0.38818   0.00000  Uiso   1.00
C420   C     0.77752   0.89551   0.43528   0.00000  Uiso   1.00
C421   C     0.85008   0.90136   0.39494   0.00000  Uiso   1.00
C422   C     0.87913   0.93698   0.41429   0.00000  Uiso   1.00
C423   C     0.95181   0.98963   0.42383   0.00000  Uiso   1.00
C424   C     0.72099   0.80814   0.48101   0.00000  Uiso   1.00
C425   C     0.74604   0.74052   0.47914   0.00000  Uiso   1.00
C426   C     0.72751   0.70257   0.53700   0.00000  Uiso   1.00
C427   C     0.71241   0.61957   0.61756   0.00000  Uiso   1.00
C428   C     0.65743   0.91163   0.52957   0.00000  Uiso   1.00
C429   C     0.61094   0.93762   0.48448   0.00000  Uiso   1.00
C430   C     0.53517   0.98451   0.49682   0.00000  Uiso   1.00
C431   C     0.50290   0.00170   0.44944   0.00000  Uiso   1.00
C432   C     0.73548   0.92422   0.49289   0.00000  Uiso   1.00
C433   C     0.76443   0.95983   0.51231   0.00000  Uiso   1.00
C434   C     0.83701   0.96573   0.47201   0.00000  Uiso   1.00
C435   C     0.67894   0.83684   0.53863   0.00000  Uiso   1.00
C436   C     0.66038   0.79899   0.59651   0.00000  Uiso   1.00
C437   C     0.68539   0.73133   0.59472   0.00000  Uiso   1.00
H438   H     0.76759   0.83644   0.37863   0.00000  Uiso   1.00
H439   H     0.65338   0.90382   0.33487   0.00000  Uiso   1.00
H440   H     0.88261   0.87914   0.35036   0.00000  Uiso   1.00
H441   H     0.77857   0.71833   0.43454   0.00000  Uiso   1.00
H442   H     0.50823   0.99121   0.31175   0.00000  Uiso   1.00
H443   H     0.99159   0.93914   0.34442   0.00000  Uiso   1.00
H444   H     0.77221   0.60003   0.52194   0.00000  Uiso   1.00
H445   H     0.62470   0.93398   0.57443   0.00000  Uiso   1.00
H446   H     0.50265   0.00671   0.54141   0.00000  Uiso   1.00
H447   H     0.73188   0.98203   0.55690   0.00000  Uiso   1.00
H448   H     0.62784   0.82122   0.64109   0.00000  Uiso   1.00
H449   H     0.38590   0.07472   0.47939   0.00000  Uiso   1.00
H450   H     0.86925   0.02265   0.51206   0.00000  Uiso   1.00
H451   H     0.64987   0.68355   0.68958   0.00000  Uiso   1.00
O452   O     0.36937   0.07907   0.37031   0.00000  Uiso   1.00
O453   O     0.00351   0.01075   0.41317   0.00000  Uiso   1.00
O454   O     0.71569   0.56585   0.64608   0.00000  Uiso   1.00
N455   N     0.49619   0.00087   0.35574   0.00000  Uiso   1.00
N456   N     0.94808   0.95220   0.38628   0.00000  Uiso   1.00
N457   N     0.74300   0.63516   0.55225   0.00000  Uiso   1.00
N458   N     0.43036   0.04581   0.44595   0.00000  Uiso   1.00
N459   N     0.88225   0.99714   0.47648   0.00000  Uiso   1.00
N460   N     0.67717   0.68010   0.64245   0.00000  Uiso   1.00
C461   C     0.86227   0.36275   0.58328   0.00000  Uiso   1.00
C462   C     0.83655   0.41266   0.53119   0.00000  Uiso   1.00
C463   C     0.76729   0.46741   0.54076   0.00000  Uiso   1.00
C464   C     0.75455   0.50703   0.48690   0.00000  Uiso   1.00
C465   C     0.70628   0.58675   0.41533   0.00000  Uiso   1.00
C466   C     0.87505   0.29543   0.56810   0.00000  Uiso   1.00
C467   C     0.83818   0.25160   0.60871   0.00000  Uiso   1.00
C468   C     0.85786   0.19253   0.58593   0.00000  Uiso   1.00
C469   C     0.86941   0.09021   0.57168   0.00000  Uiso   1.00
C470   C     0.94411   0.36165   0.57333   0.00000  Uiso   1.00
C471   C     0.96531   0.37349   0.61835   0.00000  Uiso   1.00
C472   C     0.04315   0.37016   0.59998   0.00000  Uiso   1.00
C473   C     0.16193   0.37066   0.59385   0.00000  Uiso   1.00
C474   C     0.96281   0.33575   0.47061   0.00000  Uiso   1.00
C475   C     0.89115   0.39800   0.46999   0.00000  Uiso   1.00
C476   C     0.87852   0.43755   0.41611   0.00000  Uiso   1.00
C477   C     0.80926   0.49235   0.42560   0.00000  Uiso   1.00
C478   C     0.92966   0.28076   0.50691   0.00000  Uiso   1.00
C479   C     0.94941   0.22173   0.48406   0.00000  Uiso   1.00
C480   C     0.91257   0.17783   0.52462   0.00000  Uiso   1.00
C481   C     0.99872   0.34699   0.51214   0.00000  Uiso   1.00
C482   C     0.07654   0.34363   0.49370   0.00000  Uiso   1.00
C483   C     0.09786   0.35546   0.53867   0.00000  Uiso   1.00
H484   H     0.81976   0.37416   0.63092   0.00000  Uiso   1.00
H485   H     0.72504   0.47874   0.58812   0.00000  Uiso   1.00
H486   H     0.79592   0.26296   0.65607   0.00000  Uiso   1.00
H487   H     0.92304   0.38484   0.66570   0.00000  Uiso   1.00
H488   H     0.64410   0.58821   0.51369   0.00000  Uiso   1.00
H489   H     0.79358   0.13321   0.65696   0.00000  Uiso   1.00
H490   H     0.06162   0.39021   0.67727   0.00000  Uiso   1.00
H491   H     0.00533   0.32433   0.42297   0.00000  Uiso   1.00
H492   H     0.92079   0.42619   0.36876   0.00000  Uiso   1.00
H493   H     0.99167   0.21040   0.43670   0.00000  Uiso   1.00
H494   H     0.11879   0.33228   0.44634   0.00000  Uiso   1.00
H495   H     0.80297   0.54555   0.33564   0.00000  Uiso   1.00
H496   H     0.95246   0.09055   0.47892   0.00000  Uiso   1.00
H497   H     0.22050   0.34755   0.49923   0.00000  Uiso   1.00
O498   O     0.66457   0.63477   0.39275   0.00000  Uiso   1.00
O499   O     0.86069   0.03783   0.58073   0.00000  Uiso   1.00
O500   O     0.21235   0.37500   0.60738   0.00000  Uiso   1.00
N501   N     0.69310   0.56420   0.47922   0.00000  Uiso   1.00
N502   N     0.83284   0.13881   0.61317   0.00000  Uiso   1.00
N503   N     0.08345   0.37906   0.63217   0.00000  Uiso   1.00
N504   N     0.77859   0.54125   0.38342   0.00000  Uiso   1.00
N505   N     0.91834   0.11586   0.51737   0.00000  Uiso   1.00
N506   N     0.16894   0.35611   0.53636   0.00000  Uiso   1.00
C507   C     0.47666   0.61621   0.16893   0.00000  Uiso   1.00
C508   C     0.44470   0.68887   0.14542   0.00000  Uiso   1.00
C509   C     0.44695   0.71350   0.08369   0.00000  Uiso   1.00
C510   C     0.41461   0.78151   0.07176   0.00000  Uiso   1.00
C511   C     0.37010   0.88798   0.02793   0.00000  Uiso   1.00
C512   C     0.53595   0.61071   0.19786   0.00000  Uiso   1.00
C513   C     0.61491   0.56960   0.18022   0.00000  Uiso   1.00
C514   C     0.65936   0.57181   0.21244   0.00000  Uiso   1.00
C515   C     0.75650   0.55689   0.25005   0.00000  Uiso   1.00
C516   C     0.40723   0.60181   0.22423   0.00000  Uiso   1.00
C517   C     0.37797   0.55321   0.22877   0.00000  Uiso   1.00
C518   C     0.31406   0.54792   0.28320   0.00000  Uiso   1.00
C519   C     0.21133   0.51919   0.36175   0.00000  Uiso   1.00
C520   C     0.41521   0.69320   0.25753   0.00000  Uiso   1.00
C521   C     0.41133   0.73069   0.19355   0.00000  Uiso   1.00
C522   C     0.37897   0.79869   0.18171   0.00000  Uiso   1.00
C523   C     0.38117   0.82341   0.11997   0.00000  Uiso   1.00
C524   C     0.50257   0.65253   0.24598   0.00000  Uiso   1.00
C525   C     0.54692   0.65479   0.27824   0.00000  Uiso   1.00
C526   C     0.62593   0.61371   0.26065   0.00000  Uiso   1.00
C527   C     0.37384   0.64363   0.27235   0.00000  Uiso   1.00
C528   C     0.30998   0.63841   0.32679   0.00000  Uiso   1.00
C529   C     0.28062   0.58982   0.33141   0.00000  Uiso   1.00
H530   H     0.50265   0.58365   0.13147   0.00000  Uiso   1.00
H531   H     0.47280   0.68112   0.04646   0.00000  Uiso   1.00
H532   H     0.64072   0.53724   0.14298   0.00000  Uiso   1.00
H533   H     0.40381   0.52086   0.19152   0.00000  Uiso   1.00
H534   H     0.42501   0.80763   0.97343   0.00000  Uiso   1.00
H535   H     0.77907   0.50424   0.17697   0.00000  Uiso   1.00
H536   H     0.27951   0.46969   0.27932   0.00000  Uiso   1.00
H537   H     0.38922   0.72577   0.29499   0.00000  Uiso   1.00
H538   H     0.35314   0.83104   0.21896   0.00000  Uiso   1.00
H539   H     0.52107   0.68716   0.31548   0.00000  Uiso   1.00
H540   H     0.28416   0.67078   0.36402   0.00000  Uiso   1.00
H541   H     0.32789   0.92931   0.11343   0.00000  Uiso   1.00
H542   H     0.68196   0.62591   0.31697   0.00000  Uiso   1.00
H543   H     0.18240   0.59137   0.41932   0.00000  Uiso   1.00
O544   O     0.35479   0.93516   0.99045   0.00000  Uiso   1.00
O545   O     0.81930   0.53711   0.25749   0.00000  Uiso   1.00
O546   O     0.16388   0.49179   0.39178   0.00000  Uiso   1.00
N547   N     0.40709   0.82182   0.01682   0.00000  Uiso   1.00
N548   N     0.73812   0.53817   0.20710   0.00000  Uiso   1.00
N549   N     0.27109   0.50586   0.30280   0.00000  Uiso   1.00
N550   N     0.35483   0.88730   0.09215   0.00000  Uiso   1.00
N551   N     0.68586   0.60365   0.28244   0.00000  Uiso   1.00
N552   N     0.21883   0.57134   0.37814   0.00000  Uiso   1.00
