data_job_02339
_audit_creation_date              2018-12-19
_audit_creation_method            'Materials Studio'
_symmetry_space_group_name_H-M    'P1'
_symmetry_Int_Tables_number       1
_symmetry_cell_setting            triclinic
loop_
_symmetry_equiv_pos_as_xyz
  x,y,z
_cell_length_a                    15.4758
_cell_length_b                    27.2693
_cell_length_c                    13.7547
_cell_angle_alpha                 90.0000
_cell_angle_beta                  150.7929
_cell_angle_gamma                 90.0000
loop_
_atom_site_label
_atom_site_type_symbol
_atom_site_fract_x
_atom_site_fract_y
_atom_site_fract_z
_atom_site_U_iso_or_equiv
_atom_site_adp_type
_atom_site_occupancy
C1     C     0.32611   0.65287   0.97793   0.00000  Uiso   1.00
C2     C     0.33851   0.60961   0.06003   0.00000  Uiso   1.00
C3     C     0.20593   0.59405   0.99250   0.00000  Uiso   1.00
C4     C     0.24318   0.55374   0.08724   0.00000  Uiso   1.00
C5     C     0.23752   0.49021   0.19097   0.00000  Uiso   1.00
C6     C     0.48056   0.68658   0.15479   0.00000  Uiso   1.00
C7     C     0.46740   0.73575   0.16692   0.00000  Uiso   1.00
C8     C     0.62424   0.76023   0.34142   0.00000  Uiso   1.00
C9     C     0.83912   0.81622   0.59220   0.00000  Uiso   1.00
C10    C     0.36619   0.63231   0.91658   0.00000  Uiso   1.00
C11    C     0.25690   0.63585   0.72843   0.00000  Uiso   1.00
C12    C     0.31748   0.61464   0.70238   0.00000  Uiso   1.00
C13    C     0.35478   0.58635   0.58330   0.00000  Uiso   1.00
C14    C     0.62805   0.60893   0.26626   0.00000  Uiso   1.00
C15    C     0.50252   0.58574   0.21664   0.00000  Uiso   1.00
C16    C     0.53998   0.54544   0.31150   0.00000  Uiso   1.00
C17    C     0.40748   0.52982   0.24413   0.00000  Uiso   1.00
C18    C     0.64456   0.66272   0.31139   0.00000  Uiso   1.00
C19    C     0.80146   0.68713   0.48592   0.00000  Uiso   1.00
C20    C     0.78854   0.73632   0.49832   0.00000  Uiso   1.00
C21    C     0.53019   0.60844   0.07318   0.00000  Uiso   1.00
C22    C     0.59096   0.58723   0.04743   0.00000  Uiso   1.00
C23    C     0.48178   0.59073   0.85928   0.00000  Uiso   1.00
H24    H     0.19844   0.67145   0.85601   0.00000  Uiso   1.00
H25    H     0.07903   0.61254   0.87131   0.00000  Uiso   1.00
H26    H     0.34047   0.75421   0.04569   0.00000  Uiso   1.00
H27    H     0.13000   0.65432   0.60727   0.00000  Uiso   1.00
H28    H     0.01900   0.53670   0.95739   0.00000  Uiso   1.00
H29    H     0.57025   0.83543   0.32505   0.00000  Uiso   1.00
H30    H     0.12644   0.62480   0.40055   0.00000  Uiso   1.00
H31    H     0.75574   0.59035   0.38819   0.00000  Uiso   1.00
H32    H     0.66691   0.52697   0.43269   0.00000  Uiso   1.00
H33    H     0.92834   0.66865   0.60707   0.00000  Uiso   1.00
H34    H     0.71788   0.56876   0.16865   0.00000  Uiso   1.00
H35    H     0.49614   0.46726   0.41303   0.00000  Uiso   1.00
H36    H     0.04740   0.76599   0.78069   0.00000  Uiso   1.00
H37    H     0.60358   0.55535   0.85620   0.00000  Uiso   1.00
O38    O     0.18910   0.46177   0.20493   0.00000  Uiso   1.00
O39    O     0.91232   0.85369   0.68726   0.00000  Uiso   1.00
O40    O     0.33005   0.57734   0.47435   0.00000  Uiso   1.00
N41    N     0.14347   0.52905   0.05849   0.00000  Uiso   1.00
N42    N     0.65886   0.80834   0.40225   0.00000  Uiso   1.00
N43    N     0.24395   0.61143   0.53793   0.00000  Uiso   1.00
N44    N     0.40022   0.49168   0.30367   0.00000  Uiso   1.00
N45    N     0.91560   0.77097   0.64742   0.00000  Uiso   1.00
N46    N     0.50070   0.57406   0.78311   0.00000  Uiso   1.00
C47    C     0.67389   0.15287   0.52207   0.00000  Uiso   1.00
C48    C     0.66149   0.10961   0.43997   0.00000  Uiso   1.00
C49    C     0.79407   0.09405   0.50750   0.00000  Uiso   1.00
C50    C     0.75682   0.05374   0.41276   0.00000  Uiso   1.00
C51    C     0.76248   0.99021   0.30903   0.00000  Uiso   1.00
C52    C     0.51944   0.18658   0.34521   0.00000  Uiso   1.00
C53    C     0.53260   0.23575   0.33308   0.00000  Uiso   1.00
C54    C     0.37576   0.26023   0.15858   0.00000  Uiso   1.00
C55    C     0.16088   0.31622   0.90780   0.00000  Uiso   1.00
C56    C     0.63381   0.13231   0.58342   0.00000  Uiso   1.00
C57    C     0.74310   0.13585   0.77157   0.00000  Uiso   1.00
C58    C     0.68252   0.11464   0.79762   0.00000  Uiso   1.00
C59    C     0.64522   0.08635   0.91670   0.00000  Uiso   1.00
C60    C     0.37195   0.10893   0.23374   0.00000  Uiso   1.00
C61    C     0.49748   0.08574   0.28336   0.00000  Uiso   1.00
C62    C     0.46002   0.04544   0.18850   0.00000  Uiso   1.00
C63    C     0.59252   0.02982   0.25587   0.00000  Uiso   1.00
C64    C     0.35544   0.16272   0.18861   0.00000  Uiso   1.00
C65    C     0.19854   0.18713   0.01408   0.00000  Uiso   1.00
C66    C     0.21146   0.23632   0.00168   0.00000  Uiso   1.00
C67    C     0.46981   0.10844   0.42682   0.00000  Uiso   1.00
C68    C     0.40904   0.08723   0.45257   0.00000  Uiso   1.00
C69    C     0.51822   0.09073   0.64072   0.00000  Uiso   1.00
H70    H     0.80156   0.17145   0.64399   0.00000  Uiso   1.00
H71    H     0.92097   0.11254   0.62869   0.00000  Uiso   1.00
H72    H     0.65953   0.25421   0.45431   0.00000  Uiso   1.00
H73    H     0.87000   0.15432   0.89273   0.00000  Uiso   1.00
H74    H     0.98100   0.03670   0.54261   0.00000  Uiso   1.00
H75    H     0.42975   0.33543   0.17495   0.00000  Uiso   1.00
H76    H     0.87356   0.12480   0.09945   0.00000  Uiso   1.00
H77    H     0.24426   0.09035   0.11181   0.00000  Uiso   1.00
H78    H     0.33309   0.02697   0.06731   0.00000  Uiso   1.00
H79    H     0.07166   0.16865   0.89293   0.00000  Uiso   1.00
H80    H     0.28212   0.06876   0.33135   0.00000  Uiso   1.00
H81    H     0.50386   0.96726   0.08697   0.00000  Uiso   1.00
H82    H     0.95260   0.26599   0.71931   0.00000  Uiso   1.00
H83    H     0.39642   0.05535   0.64380   0.00000  Uiso   1.00
O84    O     0.81090   0.96177   0.29507   0.00000  Uiso   1.00
O85    O     0.08768   0.35369   0.81274   0.00000  Uiso   1.00
O86    O     0.66995   0.07734   0.02565   0.00000  Uiso   1.00
N87    N     0.85653   0.02905   0.44151   0.00000  Uiso   1.00
N88    N     0.34114   0.30834   0.09775   0.00000  Uiso   1.00
N89    N     0.75605   0.11143   0.96207   0.00000  Uiso   1.00
N90    N     0.59978   0.99168   0.19633   0.00000  Uiso   1.00
N91    N     0.08440   0.27097   0.85258   0.00000  Uiso   1.00
N92    N     0.49930   0.07406   0.71689   0.00000  Uiso   1.00
C93    C     0.67389   0.34713   0.02207   0.00000  Uiso   1.00
C94    C     0.66149   0.39039   0.93997   0.00000  Uiso   1.00
C95    C     0.79407   0.40595   0.00750   0.00000  Uiso   1.00
C96    C     0.75682   0.44626   0.91276   0.00000  Uiso   1.00
C97    C     0.76248   0.50979   0.80903   0.00000  Uiso   1.00
C98    C     0.51944   0.31342   0.84521   0.00000  Uiso   1.00
C99    C     0.53260   0.26425   0.83308   0.00000  Uiso   1.00
C100   C     0.37576   0.23977   0.65858   0.00000  Uiso   1.00
C101   C     0.16088   0.18378   0.40780   0.00000  Uiso   1.00
C102   C     0.63381   0.36769   0.08342   0.00000  Uiso   1.00
C103   C     0.74310   0.36415   0.27157   0.00000  Uiso   1.00
C104   C     0.68252   0.38536   0.29762   0.00000  Uiso   1.00
C105   C     0.64522   0.41365   0.41670   0.00000  Uiso   1.00
C106   C     0.37195   0.39107   0.73374   0.00000  Uiso   1.00
C107   C     0.49748   0.41426   0.78336   0.00000  Uiso   1.00
C108   C     0.46002   0.45456   0.68850   0.00000  Uiso   1.00
C109   C     0.59252   0.47018   0.75587   0.00000  Uiso   1.00
C110   C     0.35544   0.33728   0.68861   0.00000  Uiso   1.00
C111   C     0.19854   0.31287   0.51408   0.00000  Uiso   1.00
C112   C     0.21146   0.26368   0.50168   0.00000  Uiso   1.00
C113   C     0.46981   0.39156   0.92682   0.00000  Uiso   1.00
C114   C     0.40904   0.41277   0.95257   0.00000  Uiso   1.00
C115   C     0.51822   0.40927   0.14072   0.00000  Uiso   1.00
H116   H     0.80156   0.32855   0.14399   0.00000  Uiso   1.00
H117   H     0.92097   0.38746   0.12869   0.00000  Uiso   1.00
H118   H     0.65953   0.24579   0.95431   0.00000  Uiso   1.00
H119   H     0.87000   0.34568   0.39273   0.00000  Uiso   1.00
H120   H     0.98100   0.46330   0.04261   0.00000  Uiso   1.00
H121   H     0.42975   0.16457   0.67495   0.00000  Uiso   1.00
H122   H     0.87356   0.37520   0.59945   0.00000  Uiso   1.00
H123   H     0.24426   0.40965   0.61181   0.00000  Uiso   1.00
H124   H     0.33309   0.47303   0.56731   0.00000  Uiso   1.00
H125   H     0.07166   0.33135   0.39293   0.00000  Uiso   1.00
H126   H     0.28212   0.43124   0.83135   0.00000  Uiso   1.00
H127   H     0.50386   0.53274   0.58697   0.00000  Uiso   1.00
H128   H     0.95260   0.23401   0.21931   0.00000  Uiso   1.00
H129   H     0.39642   0.44465   0.14380   0.00000  Uiso   1.00
O130   O     0.81090   0.53823   0.79507   0.00000  Uiso   1.00
O131   O     0.08768   0.14631   0.31274   0.00000  Uiso   1.00
O132   O     0.66995   0.42266   0.52565   0.00000  Uiso   1.00
N133   N     0.85653   0.47095   0.94151   0.00000  Uiso   1.00
N134   N     0.34114   0.19166   0.59775   0.00000  Uiso   1.00
N135   N     0.75605   0.38857   0.46207   0.00000  Uiso   1.00
N136   N     0.59978   0.50832   0.69633   0.00000  Uiso   1.00
N137   N     0.08440   0.22903   0.35258   0.00000  Uiso   1.00
N138   N     0.49930   0.42594   0.21689   0.00000  Uiso   1.00
C139   C     0.32611   0.84713   0.47793   0.00000  Uiso   1.00
C140   C     0.33851   0.89039   0.56003   0.00000  Uiso   1.00
C141   C     0.20593   0.90595   0.49250   0.00000  Uiso   1.00
C142   C     0.24318   0.94626   0.58724   0.00000  Uiso   1.00
C143   C     0.23752   0.00979   0.69097   0.00000  Uiso   1.00
C144   C     0.48056   0.81342   0.65479   0.00000  Uiso   1.00
C145   C     0.46740   0.76425   0.66692   0.00000  Uiso   1.00
C146   C     0.62424   0.73977   0.84142   0.00000  Uiso   1.00
C147   C     0.83912   0.68378   0.09220   0.00000  Uiso   1.00
C148   C     0.36619   0.86769   0.41658   0.00000  Uiso   1.00
C149   C     0.25690   0.86415   0.22843   0.00000  Uiso   1.00
C150   C     0.31748   0.88536   0.20238   0.00000  Uiso   1.00
C151   C     0.35478   0.91365   0.08330   0.00000  Uiso   1.00
C152   C     0.62805   0.89107   0.76626   0.00000  Uiso   1.00
C153   C     0.50252   0.91426   0.71664   0.00000  Uiso   1.00
C154   C     0.53998   0.95456   0.81150   0.00000  Uiso   1.00
C155   C     0.40748   0.97018   0.74413   0.00000  Uiso   1.00
C156   C     0.64456   0.83728   0.81139   0.00000  Uiso   1.00
C157   C     0.80146   0.81287   0.98592   0.00000  Uiso   1.00
C158   C     0.78854   0.76368   0.99832   0.00000  Uiso   1.00
C159   C     0.53019   0.89156   0.57318   0.00000  Uiso   1.00
C160   C     0.59096   0.91277   0.54743   0.00000  Uiso   1.00
C161   C     0.48178   0.90927   0.35928   0.00000  Uiso   1.00
H162   H     0.19844   0.82855   0.35601   0.00000  Uiso   1.00
H163   H     0.07903   0.88746   0.37131   0.00000  Uiso   1.00
H164   H     0.34047   0.74579   0.54569   0.00000  Uiso   1.00
H165   H     0.13000   0.84568   0.10727   0.00000  Uiso   1.00
H166   H     0.01900   0.96330   0.45739   0.00000  Uiso   1.00
H167   H     0.57025   0.66457   0.82505   0.00000  Uiso   1.00
H168   H     0.12644   0.87520   0.90055   0.00000  Uiso   1.00
H169   H     0.75574   0.90965   0.88819   0.00000  Uiso   1.00
H170   H     0.66691   0.97303   0.93269   0.00000  Uiso   1.00
H171   H     0.92834   0.83135   0.10707   0.00000  Uiso   1.00
H172   H     0.71788   0.93124   0.66865   0.00000  Uiso   1.00
H173   H     0.49614   0.03274   0.91303   0.00000  Uiso   1.00
H174   H     0.04740   0.73401   0.28069   0.00000  Uiso   1.00
H175   H     0.60358   0.94465   0.35620   0.00000  Uiso   1.00
O176   O     0.18910   0.03823   0.70493   0.00000  Uiso   1.00
O177   O     0.91232   0.64631   0.18726   0.00000  Uiso   1.00
O178   O     0.33005   0.92266   0.97435   0.00000  Uiso   1.00
N179   N     0.14347   0.97095   0.55849   0.00000  Uiso   1.00
N180   N     0.65886   0.69166   0.90225   0.00000  Uiso   1.00
N181   N     0.24395   0.88857   0.03793   0.00000  Uiso   1.00
N182   N     0.40022   0.00832   0.80367   0.00000  Uiso   1.00
N183   N     0.91560   0.72903   0.14742   0.00000  Uiso   1.00
N184   N     0.50070   0.92594   0.28311   0.00000  Uiso   1.00
