data_job_03854
_audit_creation_date              2018-12-19
_audit_creation_method            'Materials Studio'
_symmetry_space_group_name_H-M    'P1'
_symmetry_Int_Tables_number       1
_symmetry_cell_setting            triclinic
loop_
_symmetry_equiv_pos_as_xyz
  x,y,z
_cell_length_a                    20.0495
_cell_length_b                    9.9952
_cell_length_c                    17.7678
_cell_angle_alpha                 90.0000
_cell_angle_beta                  100.7450
_cell_angle_gamma                 90.0000
loop_
_atom_site_label
_atom_site_type_symbol
_atom_site_fract_x
_atom_site_fract_y
_atom_site_fract_z
_atom_site_U_iso_or_equiv
_atom_site_adp_type
_atom_site_occupancy
C1     C     0.20247   0.28502   0.56478   0.00000  Uiso   1.00
C2     C     0.26049   0.19640   0.60424   0.00000  Uiso   1.00
C3     C     0.27627   0.16940   0.68215   0.00000  Uiso   1.00
C4     C     0.33131   0.08590   0.70699   0.00000  Uiso   1.00
C5     C     0.41567   0.95663   0.77607   0.00000  Uiso   1.00
C6     C     0.23490   0.39176   0.52194   0.00000  Uiso   1.00
C7     C     0.22915   0.52902   0.53064   0.00000  Uiso   1.00
C8     C     0.26265   0.60998   0.48618   0.00000  Uiso   1.00
C9     C     0.30723   0.78403   0.42743   0.00000  Uiso   1.00
C10    C     0.15979   0.19819   0.50346   0.00000  Uiso   1.00
C11    C     0.09087   0.17272   0.49660   0.00000  Uiso   1.00
C12    C     0.06112   0.09073   0.43657   0.00000  Uiso   1.00
C13    C     0.98908   0.96422   0.34913   0.00000  Uiso   1.00
C14    C     0.27217   0.18474   0.47035   0.00000  Uiso   1.00
C15    C     0.29835   0.14193   0.55295   0.00000  Uiso   1.00
C16    C     0.35339   0.05845   0.57767   0.00000  Uiso   1.00
C17    C     0.36924   0.03133   0.65561   0.00000  Uiso   1.00
C18    C     0.27276   0.33730   0.47064   0.00000  Uiso   1.00
C19    C     0.30627   0.41808   0.42615   0.00000  Uiso   1.00
C20    C     0.30058   0.55542   0.43479   0.00000  Uiso   1.00
C21    C     0.19765   0.14372   0.45216   0.00000  Uiso   1.00
C22    C     0.16799   0.06177   0.39212   0.00000  Uiso   1.00
C23    C     0.09905   0.03617   0.38518   0.00000  Uiso   1.00
H24    H     0.17300   0.32743   0.60472   0.00000  Uiso   1.00
H25    H     0.24696   0.21158   0.72183   0.00000  Uiso   1.00
H26    H     0.19984   0.57114   0.57033   0.00000  Uiso   1.00
H27    H     0.06159   0.21489   0.53631   0.00000  Uiso   1.00
H28    H     0.34568   0.05915   0.82906   0.00000  Uiso   1.00
H29    H     0.24631   0.81732   0.50959   0.00000  Uiso   1.00
H30    H     0.95477   0.06608   0.43785   0.00000  Uiso   1.00
H31    H     0.30165   0.14234   0.43041   0.00000  Uiso   1.00
H32    H     0.38268   0.01632   0.53796   0.00000  Uiso   1.00
H33    H     0.33556   0.37589   0.38646   0.00000  Uiso   1.00
H34    H     0.19731   0.01963   0.35244   0.00000  Uiso   1.00
H35    H     0.45583   0.90068   0.67983   0.00000  Uiso   1.00
H36    H     0.35646   0.65885   0.36035   0.00000  Uiso   1.00
H37    H     0.06492   0.90761   0.28861   0.00000  Uiso   1.00
O38    O     0.45175   0.90040   0.82835   0.00000  Uiso   1.00
O39    O     0.32137   0.89508   0.40920   0.00000  Uiso   1.00
O40    O     0.93888   0.90947   0.31508   0.00000  Uiso   1.00
N41    N     0.36047   0.03913   0.77918   0.00000  Uiso   1.00
N42    N     0.26758   0.74797   0.48050   0.00000  Uiso   1.00
N43    N     0.99501   0.04566   0.41341   0.00000  Uiso   1.00
N44    N     0.41975   0.95385   0.69887   0.00000  Uiso   1.00
N45    N     0.32685   0.66269   0.40020   0.00000  Uiso   1.00
N46    N     0.05428   0.96038   0.33311   0.00000  Uiso   1.00
C47    C     0.79753   0.28502   0.93522   0.00000  Uiso   1.00
C48    C     0.73951   0.19640   0.89576   0.00000  Uiso   1.00
C49    C     0.72373   0.16940   0.81785   0.00000  Uiso   1.00
C50    C     0.66869   0.08590   0.79301   0.00000  Uiso   1.00
C51    C     0.58433   0.95663   0.72393   0.00000  Uiso   1.00
C52    C     0.76510   0.39176   0.97806   0.00000  Uiso   1.00
C53    C     0.77085   0.52902   0.96936   0.00000  Uiso   1.00
C54    C     0.73735   0.60998   0.01382   0.00000  Uiso   1.00
C55    C     0.69277   0.78403   0.07257   0.00000  Uiso   1.00
C56    C     0.84021   0.19819   0.99654   0.00000  Uiso   1.00
C57    C     0.90913   0.17272   0.00340   0.00000  Uiso   1.00
C58    C     0.93888   0.09073   0.06343   0.00000  Uiso   1.00
C59    C     0.01092   0.96422   0.15087   0.00000  Uiso   1.00
C60    C     0.72783   0.18474   0.02965   0.00000  Uiso   1.00
C61    C     0.70165   0.14193   0.94705   0.00000  Uiso   1.00
C62    C     0.64661   0.05845   0.92233   0.00000  Uiso   1.00
C63    C     0.63076   0.03133   0.84439   0.00000  Uiso   1.00
C64    C     0.72724   0.33730   0.02936   0.00000  Uiso   1.00
C65    C     0.69373   0.41808   0.07385   0.00000  Uiso   1.00
C66    C     0.69942   0.55542   0.06521   0.00000  Uiso   1.00
C67    C     0.80235   0.14372   0.04784   0.00000  Uiso   1.00
C68    C     0.83201   0.06177   0.10788   0.00000  Uiso   1.00
C69    C     0.90095   0.03617   0.11482   0.00000  Uiso   1.00
H70    H     0.82700   0.32743   0.89528   0.00000  Uiso   1.00
H71    H     0.75304   0.21158   0.77817   0.00000  Uiso   1.00
H72    H     0.80016   0.57114   0.92967   0.00000  Uiso   1.00
H73    H     0.93841   0.21489   0.96369   0.00000  Uiso   1.00
H74    H     0.65432   0.05915   0.67094   0.00000  Uiso   1.00
H75    H     0.75369   0.81732   0.99041   0.00000  Uiso   1.00
H76    H     0.04523   0.06608   0.06215   0.00000  Uiso   1.00
H77    H     0.69835   0.14234   0.06959   0.00000  Uiso   1.00
H78    H     0.61732   0.01632   0.96204   0.00000  Uiso   1.00
H79    H     0.66444   0.37589   0.11354   0.00000  Uiso   1.00
H80    H     0.80269   0.01963   0.14756   0.00000  Uiso   1.00
H81    H     0.54417   0.90068   0.82017   0.00000  Uiso   1.00
H82    H     0.64354   0.65885   0.13965   0.00000  Uiso   1.00
H83    H     0.93508   0.90761   0.21139   0.00000  Uiso   1.00
O84    O     0.54825   0.90040   0.67165   0.00000  Uiso   1.00
O85    O     0.67863   0.89508   0.09080   0.00000  Uiso   1.00
O86    O     0.06112   0.90947   0.18492   0.00000  Uiso   1.00
N87    N     0.63953   0.03913   0.72082   0.00000  Uiso   1.00
N88    N     0.73242   0.74797   0.01950   0.00000  Uiso   1.00
N89    N     0.00499   0.04566   0.08659   0.00000  Uiso   1.00
N90    N     0.58025   0.95385   0.80113   0.00000  Uiso   1.00
N91    N     0.67315   0.66269   0.09980   0.00000  Uiso   1.00
N92    N     0.94572   0.96038   0.16689   0.00000  Uiso   1.00
C93    C     0.79753   0.71498   0.43522   0.00000  Uiso   1.00
C94    C     0.73951   0.80360   0.39576   0.00000  Uiso   1.00
C95    C     0.72373   0.83060   0.31785   0.00000  Uiso   1.00
C96    C     0.66869   0.91410   0.29301   0.00000  Uiso   1.00
C97    C     0.58433   0.04337   0.22393   0.00000  Uiso   1.00
C98    C     0.76510   0.60824   0.47806   0.00000  Uiso   1.00
C99    C     0.77085   0.47098   0.46936   0.00000  Uiso   1.00
C100   C     0.73735   0.39002   0.51382   0.00000  Uiso   1.00
C101   C     0.69277   0.21597   0.57257   0.00000  Uiso   1.00
C102   C     0.84021   0.80181   0.49654   0.00000  Uiso   1.00
C103   C     0.90913   0.82728   0.50340   0.00000  Uiso   1.00
C104   C     0.93888   0.90927   0.56343   0.00000  Uiso   1.00
C105   C     0.01092   0.03578   0.65087   0.00000  Uiso   1.00
C106   C     0.72783   0.81526   0.52965   0.00000  Uiso   1.00
C107   C     0.70165   0.85807   0.44705   0.00000  Uiso   1.00
C108   C     0.64661   0.94155   0.42233   0.00000  Uiso   1.00
C109   C     0.63076   0.96867   0.34439   0.00000  Uiso   1.00
C110   C     0.72724   0.66270   0.52936   0.00000  Uiso   1.00
C111   C     0.69373   0.58192   0.57385   0.00000  Uiso   1.00
C112   C     0.69942   0.44458   0.56521   0.00000  Uiso   1.00
C113   C     0.80235   0.85628   0.54784   0.00000  Uiso   1.00
C114   C     0.83201   0.93823   0.60788   0.00000  Uiso   1.00
C115   C     0.90095   0.96383   0.61482   0.00000  Uiso   1.00
H116   H     0.82700   0.67257   0.39528   0.00000  Uiso   1.00
H117   H     0.75304   0.78842   0.27817   0.00000  Uiso   1.00
H118   H     0.80016   0.42886   0.42967   0.00000  Uiso   1.00
H119   H     0.93841   0.78511   0.46369   0.00000  Uiso   1.00
H120   H     0.65432   0.94085   0.17094   0.00000  Uiso   1.00
H121   H     0.75369   0.18268   0.49041   0.00000  Uiso   1.00
H122   H     0.04523   0.93392   0.56215   0.00000  Uiso   1.00
H123   H     0.69835   0.85766   0.56959   0.00000  Uiso   1.00
H124   H     0.61732   0.98368   0.46204   0.00000  Uiso   1.00
H125   H     0.66444   0.62411   0.61354   0.00000  Uiso   1.00
H126   H     0.80269   0.98037   0.64756   0.00000  Uiso   1.00
H127   H     0.54417   0.09932   0.32017   0.00000  Uiso   1.00
H128   H     0.64354   0.34115   0.63965   0.00000  Uiso   1.00
H129   H     0.93508   0.09239   0.71139   0.00000  Uiso   1.00
O130   O     0.54825   0.09960   0.17165   0.00000  Uiso   1.00
O131   O     0.67863   0.10492   0.59080   0.00000  Uiso   1.00
O132   O     0.06112   0.09053   0.68492   0.00000  Uiso   1.00
N133   N     0.63953   0.96087   0.22082   0.00000  Uiso   1.00
N134   N     0.73242   0.25203   0.51950   0.00000  Uiso   1.00
N135   N     0.00499   0.95434   0.58659   0.00000  Uiso   1.00
N136   N     0.58025   0.04615   0.30113   0.00000  Uiso   1.00
N137   N     0.67315   0.33731   0.59980   0.00000  Uiso   1.00
N138   N     0.94572   0.03962   0.66689   0.00000  Uiso   1.00
C139   C     0.20247   0.71498   0.06478   0.00000  Uiso   1.00
C140   C     0.26049   0.80360   0.10424   0.00000  Uiso   1.00
C141   C     0.27627   0.83060   0.18215   0.00000  Uiso   1.00
C142   C     0.33131   0.91410   0.20699   0.00000  Uiso   1.00
C143   C     0.41567   0.04337   0.27607   0.00000  Uiso   1.00
C144   C     0.23490   0.60824   0.02194   0.00000  Uiso   1.00
C145   C     0.22915   0.47098   0.03064   0.00000  Uiso   1.00
C146   C     0.26265   0.39002   0.98618   0.00000  Uiso   1.00
C147   C     0.30723   0.21597   0.92743   0.00000  Uiso   1.00
C148   C     0.15979   0.80181   0.00346   0.00000  Uiso   1.00
C149   C     0.09087   0.82728   0.99660   0.00000  Uiso   1.00
C150   C     0.06112   0.90927   0.93657   0.00000  Uiso   1.00
C151   C     0.98908   0.03578   0.84913   0.00000  Uiso   1.00
C152   C     0.27217   0.81526   0.97035   0.00000  Uiso   1.00
C153   C     0.29835   0.85807   0.05295   0.00000  Uiso   1.00
C154   C     0.35339   0.94155   0.07767   0.00000  Uiso   1.00
C155   C     0.36924   0.96867   0.15561   0.00000  Uiso   1.00
C156   C     0.27276   0.66270   0.97064   0.00000  Uiso   1.00
C157   C     0.30627   0.58192   0.92615   0.00000  Uiso   1.00
C158   C     0.30058   0.44458   0.93479   0.00000  Uiso   1.00
C159   C     0.19765   0.85628   0.95216   0.00000  Uiso   1.00
C160   C     0.16799   0.93823   0.89212   0.00000  Uiso   1.00
C161   C     0.09905   0.96383   0.88518   0.00000  Uiso   1.00
H162   H     0.17300   0.67257   0.10472   0.00000  Uiso   1.00
H163   H     0.24696   0.78842   0.22183   0.00000  Uiso   1.00
H164   H     0.19984   0.42886   0.07033   0.00000  Uiso   1.00
H165   H     0.06159   0.78511   0.03631   0.00000  Uiso   1.00
H166   H     0.34568   0.94085   0.32906   0.00000  Uiso   1.00
H167   H     0.24631   0.18268   0.00959   0.00000  Uiso   1.00
H168   H     0.95477   0.93392   0.93785   0.00000  Uiso   1.00
H169   H     0.30165   0.85766   0.93041   0.00000  Uiso   1.00
H170   H     0.38268   0.98368   0.03796   0.00000  Uiso   1.00
H171   H     0.33556   0.62411   0.88646   0.00000  Uiso   1.00
H172   H     0.19731   0.98037   0.85244   0.00000  Uiso   1.00
H173   H     0.45583   0.09932   0.17983   0.00000  Uiso   1.00
H174   H     0.35646   0.34115   0.86035   0.00000  Uiso   1.00
H175   H     0.06492   0.09239   0.78861   0.00000  Uiso   1.00
O176   O     0.45175   0.09960   0.32835   0.00000  Uiso   1.00
O177   O     0.32137   0.10492   0.90920   0.00000  Uiso   1.00
O178   O     0.93888   0.09053   0.81508   0.00000  Uiso   1.00
N179   N     0.36047   0.96087   0.27918   0.00000  Uiso   1.00
N180   N     0.26758   0.25203   0.98050   0.00000  Uiso   1.00
N181   N     0.99501   0.95434   0.91341   0.00000  Uiso   1.00
N182   N     0.41975   0.04615   0.19887   0.00000  Uiso   1.00
N183   N     0.32685   0.33731   0.90020   0.00000  Uiso   1.00
N184   N     0.05428   0.03962   0.83311   0.00000  Uiso   1.00
