data_job_02042
_audit_creation_date              2018-12-19
_audit_creation_method            'Materials Studio'
_symmetry_space_group_name_H-M    'P1'
_symmetry_Int_Tables_number       1
_symmetry_cell_setting            triclinic
loop_
_symmetry_equiv_pos_as_xyz
  x,y,z
_cell_length_a                    10.1039
_cell_length_b                    10.3242
_cell_length_c                    14.1199
_cell_angle_alpha                 78.0254
_cell_angle_beta                  101.5565
_cell_angle_gamma                 70.2140
loop_
_atom_site_label
_atom_site_type_symbol
_atom_site_fract_x
_atom_site_fract_y
_atom_site_fract_z
_atom_site_U_iso_or_equiv
_atom_site_adp_type
_atom_site_occupancy
C1     C     0.52854   0.76682   0.68616   0.00000  Uiso   1.00
C2     C     0.53936   0.61432   0.69175   0.00000  Uiso   1.00
C3     C     0.45215   0.57712   0.62226   0.00000  Uiso   1.00
C4     C     0.47930   0.43167   0.64089   0.00000  Uiso   1.00
C5     C     0.47927   0.21076   0.63666   0.00000  Uiso   1.00
C6     C     0.50452   0.79042   0.78553   0.00000  Uiso   1.00
C7     C     0.38802   0.90130   0.79489   0.00000  Uiso   1.00
C8     C     0.38586   0.90410   0.89247   0.00000  Uiso   1.00
C9     C     0.33179   0.95665   0.03383   0.00000  Uiso   1.00
C10    C     0.68104   0.76405   0.68855   0.00000  Uiso   1.00
C11    C     0.71297   0.85277   0.61637   0.00000  Uiso   1.00
C12    C     0.85942   0.83339   0.63231   0.00000  Uiso   1.00
C13    C     0.07943   0.84499   0.62308   0.00000  Uiso   1.00
C14    C     0.73185   0.57468   0.84281   0.00000  Uiso   1.00
C15    C     0.64980   0.50996   0.77684   0.00000  Uiso   1.00
C16    C     0.67709   0.36453   0.79558   0.00000  Uiso   1.00
C17    C     0.58994   0.32711   0.72612   0.00000  Uiso   1.00
C18    C     0.61495   0.68606   0.87062   0.00000  Uiso   1.00
C19    C     0.61296   0.68871   0.96821   0.00000  Uiso   1.00
C20    C     0.49649   0.79955   0.97771   0.00000  Uiso   1.00
C21    C     0.79148   0.65968   0.77363   0.00000  Uiso   1.00
C22    C     0.93791   0.64017   0.78969   0.00000  Uiso   1.00
C23    C     0.97005   0.72884   0.71755   0.00000  Uiso   1.00
H24    H     0.44256   0.84808   0.61992   0.00000  Uiso   1.00
H25    H     0.36669   0.65792   0.55643   0.00000  Uiso   1.00
H26    H     0.30259   0.98206   0.72903   0.00000  Uiso   1.00
H27    H     0.62748   0.93353   0.55054   0.00000  Uiso   1.00
H28    H     0.33124   0.40107   0.52358   0.00000  Uiso   1.00
H29    H     0.19610   0.08455   0.88752   0.00000  Uiso   1.00
H30    H     0.88120   0.98223   0.51113   0.00000  Uiso   1.00
H31    H     0.81783   0.49342   0.90906   0.00000  Uiso   1.00
H32    H     0.76256   0.28378   0.86143   0.00000  Uiso   1.00
H33    H     0.69845   0.60793   0.03403   0.00000  Uiso   1.00
H34    H     0.02334   0.55940   0.85554   0.00000  Uiso   1.00
H35    H     0.65254   0.09741   0.77113   0.00000  Uiso   1.00
H36    H     0.51739   0.78090   0.13508   0.00000  Uiso   1.00
H37    H     0.20250   0.67857   0.75869   0.00000  Uiso   1.00
O38    O     0.44873   0.11774   0.61082   0.00000  Uiso   1.00
O39    O     0.27144   0.01447   0.08830   0.00000  Uiso   1.00
O40    O     0.17027   0.88021   0.59449   0.00000  Uiso   1.00
N41    N     0.41447   0.35837   0.58836   0.00000  Uiso   1.00
N42    N     0.28810   0.99737   0.92863   0.00000  Uiso   1.00
N43    N     0.92861   0.90173   0.57675   0.00000  Uiso   1.00
N44    N     0.58735   0.19497   0.72157   0.00000  Uiso   1.00
N45    N     0.46099   0.83398   0.06184   0.00000  Uiso   1.00
N46    N     0.10150   0.73834   0.70996   0.00000  Uiso   1.00
C47    C     0.47146   0.23318   0.31384   0.00000  Uiso   1.00
C48    C     0.46064   0.38568   0.30825   0.00000  Uiso   1.00
C49    C     0.54785   0.42288   0.37774   0.00000  Uiso   1.00
C50    C     0.52070   0.56833   0.35911   0.00000  Uiso   1.00
C51    C     0.52073   0.78924   0.36334   0.00000  Uiso   1.00
C52    C     0.49548   0.20958   0.21447   0.00000  Uiso   1.00
C53    C     0.61198   0.09870   0.20511   0.00000  Uiso   1.00
C54    C     0.61414   0.09590   0.10753   0.00000  Uiso   1.00
C55    C     0.66821   0.04335   0.96617   0.00000  Uiso   1.00
C56    C     0.31896   0.23595   0.31145   0.00000  Uiso   1.00
C57    C     0.28703   0.14723   0.38363   0.00000  Uiso   1.00
C58    C     0.14058   0.16661   0.36769   0.00000  Uiso   1.00
C59    C     0.92057   0.15501   0.37692   0.00000  Uiso   1.00
C60    C     0.26815   0.42532   0.15719   0.00000  Uiso   1.00
C61    C     0.35020   0.49004   0.22316   0.00000  Uiso   1.00
C62    C     0.32291   0.63547   0.20442   0.00000  Uiso   1.00
C63    C     0.41006   0.67289   0.27388   0.00000  Uiso   1.00
C64    C     0.38505   0.31394   0.12938   0.00000  Uiso   1.00
C65    C     0.38704   0.31129   0.03179   0.00000  Uiso   1.00
C66    C     0.50351   0.20045   0.02229   0.00000  Uiso   1.00
C67    C     0.20852   0.34032   0.22637   0.00000  Uiso   1.00
C68    C     0.06209   0.35983   0.21031   0.00000  Uiso   1.00
C69    C     0.02995   0.27116   0.28245   0.00000  Uiso   1.00
H70    H     0.55744   0.15192   0.38008   0.00000  Uiso   1.00
H71    H     0.63331   0.34208   0.44357   0.00000  Uiso   1.00
H72    H     0.69741   0.01794   0.27097   0.00000  Uiso   1.00
H73    H     0.37252   0.06647   0.44946   0.00000  Uiso   1.00
H74    H     0.66876   0.59893   0.47642   0.00000  Uiso   1.00
H75    H     0.80390   0.91545   0.11248   0.00000  Uiso   1.00
H76    H     0.11880   0.01777   0.48887   0.00000  Uiso   1.00
H77    H     0.18217   0.50658   0.09094   0.00000  Uiso   1.00
H78    H     0.23744   0.71622   0.13857   0.00000  Uiso   1.00
H79    H     0.30155   0.39207   0.96597   0.00000  Uiso   1.00
H80    H     0.97666   0.44060   0.14446   0.00000  Uiso   1.00
H81    H     0.34746   0.90259   0.22887   0.00000  Uiso   1.00
H82    H     0.48261   0.21910   0.86492   0.00000  Uiso   1.00
H83    H     0.79750   0.32143   0.24131   0.00000  Uiso   1.00
O84    O     0.55127   0.88226   0.38918   0.00000  Uiso   1.00
O85    O     0.72856   0.98553   0.91170   0.00000  Uiso   1.00
O86    O     0.82973   0.11979   0.40551   0.00000  Uiso   1.00
N87    N     0.58553   0.64163   0.41164   0.00000  Uiso   1.00
N88    N     0.71190   0.00263   0.07137   0.00000  Uiso   1.00
N89    N     0.07139   0.09827   0.42325   0.00000  Uiso   1.00
N90    N     0.41265   0.80503   0.27843   0.00000  Uiso   1.00
N91    N     0.53901   0.16602   0.93816   0.00000  Uiso   1.00
N92    N     0.89850   0.26166   0.29004   0.00000  Uiso   1.00
