data_job_06094
_audit_creation_date              2018-12-19
_audit_creation_method            'Materials Studio'
_symmetry_space_group_name_H-M    'P1'
_symmetry_Int_Tables_number       1
_symmetry_cell_setting            triclinic
loop_
_symmetry_equiv_pos_as_xyz
  x,y,z
_cell_length_a                    12.4623
_cell_length_b                    19.9369
_cell_length_c                    20.0043
_cell_angle_alpha                 63.8150
_cell_angle_beta                  79.2368
_cell_angle_gamma                 100.7017
loop_
_atom_site_label
_atom_site_type_symbol
_atom_site_fract_x
_atom_site_fract_y
_atom_site_fract_z
_atom_site_U_iso_or_equiv
_atom_site_adp_type
_atom_site_occupancy
C1     C     0.88482   0.05820   0.33160   0.00000  Uiso   1.00
C2     C     0.84977   0.97641   0.40254   0.00000  Uiso   1.00
C3     C     0.80395   0.95708   0.47979   0.00000  Uiso   1.00
C4     C     0.77753   0.87896   0.53621   0.00000  Uiso   1.00
C5     C     0.72030   0.76058   0.64943   0.00000  Uiso   1.00
C6     C     0.01041   0.07589   0.28939   0.00000  Uiso   1.00
C7     C     0.09965   0.14021   0.27151   0.00000  Uiso   1.00
C8     C     0.20845   0.14583   0.23268   0.00000  Uiso   1.00
C9     C     0.40060   0.18193   0.17019   0.00000  Uiso   1.00
C10    C     0.81797   0.05078   0.27739   0.00000  Uiso   1.00
C11    C     0.74543   0.09401   0.24939   0.00000  Uiso   1.00
C12    C     0.69223   0.07850   0.20043   0.00000  Uiso   1.00
C13    C     0.58559   0.07561   0.11931   0.00000  Uiso   1.00
C14    C     0.91936   0.95382   0.29442   0.00000  Uiso   1.00
C15    C     0.86854   0.91972   0.38234   0.00000  Uiso   1.00
C16    C     0.84217   0.84160   0.43866   0.00000  Uiso   1.00
C17    C     0.79632   0.82216   0.51598   0.00000  Uiso   1.00
C18    C     0.02917   0.01920   0.26920   0.00000  Uiso   1.00
C19    C     0.13786   0.02473   0.23038   0.00000  Uiso   1.00
C20    C     0.22724   0.08903   0.21245   0.00000  Uiso   1.00
C21    C     0.83673   0.99409   0.25720   0.00000  Uiso   1.00
C22    C     0.78364   0.97852   0.20827   0.00000  Uiso   1.00
C23    C     0.71102   0.02170   0.18020   0.00000  Uiso   1.00
H24    H     0.87023   0.10234   0.34731   0.00000  Uiso   1.00
H25    H     0.78946   0.00098   0.49539   0.00000  Uiso   1.00
H26    H     0.08510   0.18408   0.28713   0.00000  Uiso   1.00
H27    H     0.73093   0.13787   0.26503   0.00000  Uiso   1.00
H28    H     0.70823   0.86359   0.65066   0.00000  Uiso   1.00
H29    H     0.33161   0.24969   0.21152   0.00000  Uiso   1.00
H30    H     0.58477   0.15226   0.16489   0.00000  Uiso   1.00
H31    H     0.93397   0.90968   0.27870   0.00000  Uiso   1.00
H32    H     0.85669   0.79774   0.42302   0.00000  Uiso   1.00
H33    H     0.15235   0.98084   0.21476   0.00000  Uiso   1.00
H34    H     0.79818   0.93464   0.19265   0.00000  Uiso   1.00
H35    H     0.76280   0.69864   0.59192   0.00000  Uiso   1.00
H36    H     0.38619   0.08474   0.15277   0.00000  Uiso   1.00
H37    H     0.63935   0.98730   0.10616   0.00000  Uiso   1.00
O38    O     0.68357   0.71096   0.71747   0.00000  Uiso   1.00
O39    O     0.50141   0.21751   0.14132   0.00000  Uiso   1.00
O40    O     0.52158   0.08968   0.08015   0.00000  Uiso   1.00
N41    N     0.73165   0.84013   0.61703   0.00000  Uiso   1.00
N42    N     0.31448   0.20110   0.20647   0.00000  Uiso   1.00
N43    N     0.61627   0.11003   0.16286   0.00000  Uiso   1.00
N44    N     0.76102   0.75137   0.58542   0.00000  Uiso   1.00
N45    N     0.34385   0.11234   0.17486   0.00000  Uiso   1.00
N46    N     0.64564   0.02127   0.13126   0.00000  Uiso   1.00
C47    C     0.83799   0.61202   0.05588   0.00000  Uiso   1.00
C48    C     0.87956   0.62206   0.97437   0.00000  Uiso   1.00
C49    C     0.85237   0.56426   0.95410   0.00000  Uiso   1.00
C50    C     0.89904   0.58512   0.87643   0.00000  Uiso   1.00
C51    C     0.95280   0.58914   0.75829   0.00000  Uiso   1.00
C52    C     0.94562   0.63532   0.07639   0.00000  Uiso   1.00
C53    C     0.97395   0.58867   0.14190   0.00000  Uiso   1.00
C54    C     0.07622   0.62069   0.15012   0.00000  Uiso   1.00
C55    C     0.23248   0.64532   0.19040   0.00000  Uiso   1.00
C56    C     0.77873   0.67451   0.04707   0.00000  Uiso   1.00
C57    C     0.66675   0.66083   0.08794   0.00000  Uiso   1.00
C58    C     0.62852   0.72587   0.07148   0.00000  Uiso   1.00
C59    C     0.52567   0.81135   0.06624   0.00000  Uiso   1.00
C60    C     0.96923   0.75185   0.95400   0.00000  Uiso   1.00
C61    C     0.95085   0.69801   0.91903   0.00000  Uiso   1.00
C62    C     0.99757   0.71896   0.84137   0.00000  Uiso   1.00
C63    C     0.97045   0.66120   0.82099   0.00000  Uiso   1.00
C64    C     0.01690   0.71126   0.02106   0.00000  Uiso   1.00
C65    C     0.11915   0.74337   0.02918   0.00000  Uiso   1.00
C66    C     0.14763   0.69678   0.09468   0.00000  Uiso   1.00
C67    C     0.85001   0.75046   0.99173   0.00000  Uiso   1.00
C68    C     0.81195   0.81553   0.97521   0.00000  Uiso   1.00
C69    C     0.69993   0.80195   0.01605   0.00000  Uiso   1.00
H70    H     0.78250   0.55289   0.09897   0.00000  Uiso   1.00
H71    H     0.79721   0.50549   0.99694   0.00000  Uiso   1.00
H72    H     0.91876   0.52990   0.18472   0.00000  Uiso   1.00
H73    H     0.61161   0.60205   0.13076   0.00000  Uiso   1.00
H74    H     0.84499   0.48641   0.85943   0.00000  Uiso   1.00
H75    H     0.10127   0.53789   0.25538   0.00000  Uiso   1.00
H76    H     0.45358   0.69004   0.14160   0.00000  Uiso   1.00
H77    H     0.02473   0.81098   0.91092   0.00000  Uiso   1.00
H78    H     0.05273   0.77774   0.79856   0.00000  Uiso   1.00
H79    H     0.17429   0.80214   0.98634   0.00000  Uiso   1.00
H80    H     0.86714   0.87430   0.93239   0.00000  Uiso   1.00
H81    H     0.05239   0.70738   0.69841   0.00000  Uiso   1.00
H82    H     0.30867   0.75886   0.09437   0.00000  Uiso   1.00
H83    H     0.66098   0.91101   0.98059   0.00000  Uiso   1.00
O84    O     0.96277   0.57037   0.70841   0.00000  Uiso   1.00
O85    O     0.29899   0.63791   0.22790   0.00000  Uiso   1.00
O86    O     0.44924   0.83752   0.07862   0.00000  Uiso   1.00
N87    N     0.88994   0.54299   0.83695   0.00000  Uiso   1.00
N88    N     0.12956   0.59111   0.20714   0.00000  Uiso   1.00
N89    N     0.52403   0.73336   0.10078   0.00000  Uiso   1.00
N90    N     0.00154   0.66189   0.75031   0.00000  Uiso   1.00
N91    N     0.24115   0.71001   0.12050   0.00000  Uiso   1.00
N92    N     0.63563   0.85226   0.01414   0.00000  Uiso   1.00
C93    C     0.21515   0.33133   0.61101   0.00000  Uiso   1.00
C94    C     0.24680   0.40262   0.62204   0.00000  Uiso   1.00
C95    C     0.27368   0.48032   0.56451   0.00000  Uiso   1.00
C96    C     0.30029   0.53701   0.58632   0.00000  Uiso   1.00
C97    C     0.34953   0.65080   0.59178   0.00000  Uiso   1.00
C98    C     0.29990   0.28645   0.63649   0.00000  Uiso   1.00
C99    C     0.37142   0.26646   0.59112   0.00000  Uiso   1.00
C100   C     0.44272   0.22535   0.62510   0.00000  Uiso   1.00
C101   C     0.57434   0.15874   0.65302   0.00000  Uiso   1.00
C102   C     0.09839   0.27924   0.67114   0.00000  Uiso   1.00
C103   C     0.00049   0.25316   0.65491   0.00000  Uiso   1.00
C104   C     0.90214   0.20596   0.71806   0.00000  Uiso   1.00
C105   C     0.72089   0.12815   0.79978   0.00000  Uiso   1.00
C106   C     0.21460   0.29386   0.75204   0.00000  Uiso   1.00
C107   C     0.24650   0.38227   0.69864   0.00000  Uiso   1.00
C108   C     0.27307   0.43886   0.72054   0.00000  Uiso   1.00
C109   C     0.29999   0.51662   0.66305   0.00000  Uiso   1.00
C110   C     0.29961   0.26610   0.71309   0.00000  Uiso   1.00
C111   C     0.37081   0.22501   0.74715   0.00000  Uiso   1.00
C112   C     0.44242   0.20496   0.70183   0.00000  Uiso   1.00
C113   C     0.09809   0.25889   0.74774   0.00000  Uiso   1.00
C114   C     0.99988   0.21171   0.81093   0.00000  Uiso   1.00
C115   C     0.90184   0.18557   0.79480   0.00000  Uiso   1.00
H116   H     0.21539   0.34718   0.55138   0.00000  Uiso   1.00
H117   H     0.27391   0.49604   0.50524   0.00000  Uiso   1.00
H118   H     0.37162   0.28222   0.53185   0.00000  Uiso   1.00
H119   H     0.00075   0.26893   0.59562   0.00000  Uiso   1.00
H120   H     0.33870   0.65212   0.48786   0.00000  Uiso   1.00
H121   H     0.54471   0.20123   0.54397   0.00000  Uiso   1.00
H122   H     0.76265   0.17320   0.67846   0.00000  Uiso   1.00
H123   H     0.21437   0.27801   0.81168   0.00000  Uiso   1.00
H124   H     0.27284   0.42309   0.77982   0.00000  Uiso   1.00
H125   H     0.37055   0.20926   0.80643   0.00000  Uiso   1.00
H126   H     0.99968   0.19597   0.87020   0.00000  Uiso   1.00
H127   H     0.33784   0.59290   0.71072   0.00000  Uiso   1.00
H128   H     0.54384   0.14201   0.76683   0.00000  Uiso   1.00
H129   H     0.76178   0.11398   0.90132   0.00000  Uiso   1.00
O130   O     0.37678   0.71919   0.57363   0.00000  Uiso   1.00
O131   O     0.64704   0.12764   0.64725   0.00000  Uiso   1.00
O132   O     0.62100   0.09086   0.82369   0.00000  Uiso   1.00
N133   N     0.33045   0.61827   0.54468   0.00000  Uiso   1.00
N134   N     0.52307   0.19673   0.59714   0.00000  Uiso   1.00
N135   N     0.79192   0.17050   0.72288   0.00000  Uiso   1.00
N136   N     0.32998   0.58641   0.66460   0.00000  Uiso   1.00
N137   N     0.52260   0.16487   0.71706   0.00000  Uiso   1.00
N138   N     0.79145   0.13864   0.84279   0.00000  Uiso   1.00
C139   C     0.11518   0.94180   0.66840   0.00000  Uiso   1.00
C140   C     0.15023   0.02359   0.59746   0.00000  Uiso   1.00
C141   C     0.19605   0.04292   0.52021   0.00000  Uiso   1.00
C142   C     0.22247   0.12104   0.46379   0.00000  Uiso   1.00
C143   C     0.27970   0.23942   0.35057   0.00000  Uiso   1.00
C144   C     0.98959   0.92411   0.71061   0.00000  Uiso   1.00
C145   C     0.90035   0.85979   0.72849   0.00000  Uiso   1.00
C146   C     0.79155   0.85417   0.76732   0.00000  Uiso   1.00
C147   C     0.59940   0.81807   0.82981   0.00000  Uiso   1.00
C148   C     0.18203   0.94922   0.72261   0.00000  Uiso   1.00
C149   C     0.25457   0.90599   0.75061   0.00000  Uiso   1.00
C150   C     0.30777   0.92150   0.79957   0.00000  Uiso   1.00
C151   C     0.41441   0.92439   0.88069   0.00000  Uiso   1.00
C152   C     0.08064   0.04618   0.70558   0.00000  Uiso   1.00
C153   C     0.13146   0.08028   0.61766   0.00000  Uiso   1.00
C154   C     0.15783   0.15840   0.56134   0.00000  Uiso   1.00
C155   C     0.20368   0.17784   0.48402   0.00000  Uiso   1.00
C156   C     0.97083   0.98080   0.73080   0.00000  Uiso   1.00
C157   C     0.86214   0.97527   0.76962   0.00000  Uiso   1.00
C158   C     0.77276   0.91097   0.78755   0.00000  Uiso   1.00
C159   C     0.16327   0.00591   0.74280   0.00000  Uiso   1.00
C160   C     0.21636   0.02148   0.79173   0.00000  Uiso   1.00
C161   C     0.28898   0.97830   0.81979   0.00000  Uiso   1.00
H162   H     0.12977   0.89766   0.65269   0.00000  Uiso   1.00
H163   H     0.21054   0.99902   0.50461   0.00000  Uiso   1.00
H164   H     0.91490   0.81592   0.71287   0.00000  Uiso   1.00
H165   H     0.26907   0.86213   0.73497   0.00000  Uiso   1.00
H166   H     0.29177   0.13641   0.34934   0.00000  Uiso   1.00
H167   H     0.66839   0.75031   0.78848   0.00000  Uiso   1.00
H168   H     0.41523   0.84774   0.83511   0.00000  Uiso   1.00
H169   H     0.06603   0.09032   0.72130   0.00000  Uiso   1.00
H170   H     0.14331   0.20226   0.57698   0.00000  Uiso   1.00
H171   H     0.84765   0.01916   0.78524   0.00000  Uiso   1.00
H172   H     0.20182   0.06536   0.80735   0.00000  Uiso   1.00
H173   H     0.23720   0.30136   0.40808   0.00000  Uiso   1.00
H174   H     0.61381   0.91526   0.84723   0.00000  Uiso   1.00
H175   H     0.36065   0.01270   0.89384   0.00000  Uiso   1.00
O176   O     0.31643   0.28904   0.28253   0.00000  Uiso   1.00
O177   O     0.49859   0.78249   0.85868   0.00000  Uiso   1.00
O178   O     0.47842   0.91032   0.91985   0.00000  Uiso   1.00
N179   N     0.26835   0.15987   0.38297   0.00000  Uiso   1.00
N180   N     0.68552   0.79890   0.79353   0.00000  Uiso   1.00
N181   N     0.38373   0.88997   0.83714   0.00000  Uiso   1.00
N182   N     0.23898   0.24863   0.41458   0.00000  Uiso   1.00
N183   N     0.65615   0.88766   0.82514   0.00000  Uiso   1.00
N184   N     0.35436   0.97873   0.86874   0.00000  Uiso   1.00
C185   C     0.16201   0.38798   0.94412   0.00000  Uiso   1.00
C186   C     0.12044   0.37794   0.02563   0.00000  Uiso   1.00
C187   C     0.14763   0.43574   0.04590   0.00000  Uiso   1.00
C188   C     0.10096   0.41488   0.12357   0.00000  Uiso   1.00
C189   C     0.04720   0.41086   0.24171   0.00000  Uiso   1.00
C190   C     0.05438   0.36468   0.92361   0.00000  Uiso   1.00
C191   C     0.02605   0.41133   0.85810   0.00000  Uiso   1.00
C192   C     0.92378   0.37931   0.84988   0.00000  Uiso   1.00
C193   C     0.76752   0.35468   0.80960   0.00000  Uiso   1.00
C194   C     0.22127   0.32549   0.95293   0.00000  Uiso   1.00
C195   C     0.33325   0.33917   0.91206   0.00000  Uiso   1.00
C196   C     0.37148   0.27413   0.92852   0.00000  Uiso   1.00
C197   C     0.47433   0.18865   0.93376   0.00000  Uiso   1.00
C198   C     0.03077   0.24815   0.04600   0.00000  Uiso   1.00
C199   C     0.04915   0.30199   0.08097   0.00000  Uiso   1.00
C200   C     0.00243   0.28104   0.15863   0.00000  Uiso   1.00
C201   C     0.02955   0.33880   0.17901   0.00000  Uiso   1.00
C202   C     0.98310   0.28874   0.97894   0.00000  Uiso   1.00
C203   C     0.88085   0.25663   0.97082   0.00000  Uiso   1.00
C204   C     0.85237   0.30322   0.90532   0.00000  Uiso   1.00
C205   C     0.14999   0.24954   0.00827   0.00000  Uiso   1.00
C206   C     0.18805   0.18447   0.02479   0.00000  Uiso   1.00
C207   C     0.30007   0.19805   0.98395   0.00000  Uiso   1.00
H208   H     0.21750   0.44711   0.90103   0.00000  Uiso   1.00
H209   H     0.20279   0.49451   0.00306   0.00000  Uiso   1.00
H210   H     0.08124   0.47010   0.81528   0.00000  Uiso   1.00
H211   H     0.38839   0.39795   0.86924   0.00000  Uiso   1.00
H212   H     0.15501   0.51359   0.14057   0.00000  Uiso   1.00
H213   H     0.89873   0.46211   0.74462   0.00000  Uiso   1.00
H214   H     0.54642   0.30996   0.85839   0.00000  Uiso   1.00
H215   H     0.97527   0.18902   0.08908   0.00000  Uiso   1.00
H216   H     0.94727   0.22226   0.20144   0.00000  Uiso   1.00
H217   H     0.82571   0.19785   0.01365   0.00000  Uiso   1.00
H218   H     0.13286   0.12570   0.06761   0.00000  Uiso   1.00
H219   H     0.94761   0.29262   0.30159   0.00000  Uiso   1.00
H220   H     0.69133   0.24114   0.90563   0.00000  Uiso   1.00
H221   H     0.33902   0.08899   0.01941   0.00000  Uiso   1.00
O222   O     0.03723   0.42963   0.29159   0.00000  Uiso   1.00
O223   O     0.70101   0.36209   0.77210   0.00000  Uiso   1.00
O224   O     0.55076   0.16248   0.92138   0.00000  Uiso   1.00
N225   N     0.11006   0.45701   0.16305   0.00000  Uiso   1.00
N226   N     0.87044   0.40889   0.79286   0.00000  Uiso   1.00
N227   N     0.47597   0.26664   0.89922   0.00000  Uiso   1.00
N228   N     0.99846   0.33811   0.24969   0.00000  Uiso   1.00
N229   N     0.75885   0.28999   0.87950   0.00000  Uiso   1.00
N230   N     0.36437   0.14774   0.98586   0.00000  Uiso   1.00
C231   C     0.78485   0.66867   0.38899   0.00000  Uiso   1.00
C232   C     0.75321   0.59738   0.37796   0.00000  Uiso   1.00
C233   C     0.72632   0.51968   0.43549   0.00000  Uiso   1.00
C234   C     0.69971   0.46299   0.41368   0.00000  Uiso   1.00
C235   C     0.65047   0.34920   0.40822   0.00000  Uiso   1.00
C236   C     0.70010   0.71355   0.36350   0.00000  Uiso   1.00
C237   C     0.62858   0.73354   0.40888   0.00000  Uiso   1.00
C238   C     0.55728   0.77464   0.37490   0.00000  Uiso   1.00
C239   C     0.42566   0.84126   0.34698   0.00000  Uiso   1.00
C240   C     0.90161   0.72076   0.32886   0.00000  Uiso   1.00
C241   C     0.99951   0.74684   0.34509   0.00000  Uiso   1.00
C242   C     0.09786   0.79404   0.28194   0.00000  Uiso   1.00
C243   C     0.27911   0.87185   0.20022   0.00000  Uiso   1.00
C244   C     0.78540   0.70614   0.24796   0.00000  Uiso   1.00
C245   C     0.75350   0.61773   0.30136   0.00000  Uiso   1.00
C246   C     0.72693   0.56114   0.27946   0.00000  Uiso   1.00
C247   C     0.70001   0.48338   0.33695   0.00000  Uiso   1.00
C248   C     0.70039   0.73390   0.28691   0.00000  Uiso   1.00
C249   C     0.62919   0.77499   0.25285   0.00000  Uiso   1.00
C250   C     0.55758   0.79504   0.29817   0.00000  Uiso   1.00
C251   C     0.90191   0.74111   0.25226   0.00000  Uiso   1.00
C252   C     0.00012   0.78829   0.18907   0.00000  Uiso   1.00
C253   C     0.09816   0.81443   0.20520   0.00000  Uiso   1.00
H254   H     0.78461   0.65282   0.44862   0.00000  Uiso   1.00
H255   H     0.72609   0.50396   0.49476   0.00000  Uiso   1.00
H256   H     0.62838   0.71778   0.46815   0.00000  Uiso   1.00
H257   H     0.99925   0.73107   0.40438   0.00000  Uiso   1.00
H258   H     0.66130   0.34788   0.51214   0.00000  Uiso   1.00
H259   H     0.45529   0.79877   0.45603   0.00000  Uiso   1.00
H260   H     0.23735   0.82680   0.32154   0.00000  Uiso   1.00
H261   H     0.78563   0.72199   0.18832   0.00000  Uiso   1.00
H262   H     0.72716   0.57691   0.22018   0.00000  Uiso   1.00
H263   H     0.62945   0.79074   0.19357   0.00000  Uiso   1.00
H264   H     0.00032   0.80403   0.12980   0.00000  Uiso   1.00
H265   H     0.66216   0.40710   0.28928   0.00000  Uiso   1.00
H266   H     0.45616   0.85799   0.23317   0.00000  Uiso   1.00
H267   H     0.23822   0.88602   0.09868   0.00000  Uiso   1.00
O268   O     0.62322   0.28081   0.42637   0.00000  Uiso   1.00
O269   O     0.35296   0.87236   0.35275   0.00000  Uiso   1.00
O270   O     0.37900   0.90914   0.17631   0.00000  Uiso   1.00
N271   N     0.66955   0.38173   0.45531   0.00000  Uiso   1.00
N272   N     0.47693   0.80327   0.40286   0.00000  Uiso   1.00
N273   N     0.20808   0.82950   0.27712   0.00000  Uiso   1.00
N274   N     0.67002   0.41359   0.33540   0.00000  Uiso   1.00
N275   N     0.47740   0.83513   0.28294   0.00000  Uiso   1.00
N276   N     0.20855   0.86136   0.15721   0.00000  Uiso   1.00
