data_job_02270
_audit_creation_date              2018-12-19
_audit_creation_method            'Materials Studio'
_symmetry_space_group_name_H-M    'P1'
_symmetry_Int_Tables_number       1
_symmetry_cell_setting            triclinic
loop_
_symmetry_equiv_pos_as_xyz
  x,y,z
_cell_length_a                    9.9187
_cell_length_b                    20.4014
_cell_length_c                    15.5519
_cell_angle_alpha                 90.0000
_cell_angle_beta                  129.8415
_cell_angle_gamma                 90.0000
loop_
_atom_site_label
_atom_site_type_symbol
_atom_site_fract_x
_atom_site_fract_y
_atom_site_fract_z
_atom_site_U_iso_or_equiv
_atom_site_adp_type
_atom_site_occupancy
C1     C     0.70300   0.25153   0.76563   0.00000  Uiso   1.00
C2     C     0.70096   0.28669   0.85131   0.00000  Uiso   1.00
C3     C     0.68378   0.35379   0.85632   0.00000  Uiso   1.00
C4     C     0.68499   0.37636   0.94103   0.00000  Uiso   1.00
C5     C     0.67921   0.43752   0.06241   0.00000  Uiso   1.00
C6     C     0.87423   0.21283   0.83293   0.00000  Uiso   1.00
C7     C     0.00271   0.21781   0.82248   0.00000  Uiso   1.00
C8     C     0.14977   0.17820   0.89172   0.00000  Uiso   1.00
C9     C     0.41292   0.12464   0.98451   0.00000  Uiso   1.00
C10    C     0.55626   0.20076   0.70964   0.00000  Uiso   1.00
C11    C     0.41741   0.19559   0.59551   0.00000  Uiso   1.00
C12    C     0.29678   0.14581   0.56094   0.00000  Uiso   1.00
C13    C     0.06624   0.07352   0.46230   0.00000  Uiso   1.00
C14    C     0.73572   0.17230   0.90716   0.00000  Uiso   1.00
C15    C     0.71874   0.24366   0.92819   0.00000  Uiso   1.00
C16    C     0.71997   0.26614   0.01291   0.00000  Uiso   1.00
C17    C     0.70279   0.33326   0.01804   0.00000  Uiso   1.00
C18    C     0.89201   0.16980   0.90981   0.00000  Uiso   1.00
C19    C     0.03890   0.13016   0.97907   0.00000  Uiso   1.00
C20    C     0.16757   0.13509   0.96873   0.00000  Uiso   1.00
C21    C     0.57403   0.15773   0.78651   0.00000  Uiso   1.00
C22    C     0.45360   0.10794   0.75211   0.00000  Uiso   1.00
C23    C     0.31459   0.10270   0.63795   0.00000  Uiso   1.00
H24    H     0.68918   0.28502   0.70578   0.00000  Uiso   1.00
H25    H     0.67004   0.38708   0.79681   0.00000  Uiso   1.00
H26    H     0.98891   0.25111   0.76297   0.00000  Uiso   1.00
H27    H     0.40370   0.22890   0.53604   0.00000  Uiso   1.00
H28    H     0.65673   0.48124   0.93167   0.00000  Uiso   1.00
H29    H     0.32905   0.19454   0.86029   0.00000  Uiso   1.00
H30    H     0.09502   0.14770   0.38176   0.00000  Uiso   1.00
H31    H     0.74956   0.13880   0.96702   0.00000  Uiso   1.00
H32    H     0.73373   0.23283   0.07239   0.00000  Uiso   1.00
H33    H     0.05260   0.09687   0.03855   0.00000  Uiso   1.00
H34    H     0.46739   0.07465   0.81162   0.00000  Uiso   1.00
H35    H     0.70843   0.35605   0.15535   0.00000  Uiso   1.00
H36    H     0.38075   0.06935   0.08396   0.00000  Uiso   1.00
H37    H     0.14672   0.02251   0.60544   0.00000  Uiso   1.00
O38    O     0.67114   0.48314   0.10814   0.00000  Uiso   1.00
O39    O     0.55317   0.10700   0.01447   0.00000  Uiso   1.00
O40    O     0.93416   0.04554   0.38665   0.00000  Uiso   1.00
N41    N     0.67103   0.43887   0.96984   0.00000  Uiso   1.00
N42    N     0.29963   0.17083   0.90311   0.00000  Uiso   1.00
N43    N     0.14594   0.12703   0.45573   0.00000  Uiso   1.00
N44    N     0.69885   0.37151   0.09020   0.00000  Uiso   1.00
N45    N     0.32744   0.10347   0.02347   0.00000  Uiso   1.00
N46    N     0.17375   0.05966   0.57608   0.00000  Uiso   1.00
C47    C     0.29700   0.75153   0.73437   0.00000  Uiso   1.00
C48    C     0.29904   0.78669   0.64869   0.00000  Uiso   1.00
C49    C     0.31622   0.85379   0.64368   0.00000  Uiso   1.00
C50    C     0.31501   0.87636   0.55897   0.00000  Uiso   1.00
C51    C     0.32079   0.93752   0.43759   0.00000  Uiso   1.00
C52    C     0.12577   0.71283   0.66707   0.00000  Uiso   1.00
C53    C     0.99729   0.71781   0.67752   0.00000  Uiso   1.00
C54    C     0.85023   0.67820   0.60828   0.00000  Uiso   1.00
C55    C     0.58708   0.62464   0.51549   0.00000  Uiso   1.00
C56    C     0.44374   0.70076   0.79036   0.00000  Uiso   1.00
C57    C     0.58259   0.69559   0.90449   0.00000  Uiso   1.00
C58    C     0.70322   0.64581   0.93906   0.00000  Uiso   1.00
C59    C     0.93376   0.57352   0.03770   0.00000  Uiso   1.00
C60    C     0.26428   0.67230   0.59284   0.00000  Uiso   1.00
C61    C     0.28126   0.74366   0.57181   0.00000  Uiso   1.00
C62    C     0.28003   0.76614   0.48709   0.00000  Uiso   1.00
C63    C     0.29721   0.83326   0.48196   0.00000  Uiso   1.00
C64    C     0.10799   0.66980   0.59019   0.00000  Uiso   1.00
C65    C     0.96110   0.63016   0.52093   0.00000  Uiso   1.00
C66    C     0.83243   0.63509   0.53127   0.00000  Uiso   1.00
C67    C     0.42597   0.65773   0.71349   0.00000  Uiso   1.00
C68    C     0.54640   0.60794   0.74789   0.00000  Uiso   1.00
C69    C     0.68541   0.60270   0.86205   0.00000  Uiso   1.00
H70    H     0.31082   0.78502   0.79422   0.00000  Uiso   1.00
H71    H     0.32996   0.88708   0.70319   0.00000  Uiso   1.00
H72    H     0.01109   0.75111   0.73703   0.00000  Uiso   1.00
H73    H     0.59630   0.72890   0.96396   0.00000  Uiso   1.00
H74    H     0.34327   0.98124   0.56833   0.00000  Uiso   1.00
H75    H     0.67095   0.69454   0.63971   0.00000  Uiso   1.00
H76    H     0.90498   0.64770   0.11824   0.00000  Uiso   1.00
H77    H     0.25044   0.63880   0.53298   0.00000  Uiso   1.00
H78    H     0.26627   0.73283   0.42761   0.00000  Uiso   1.00
H79    H     0.94740   0.59687   0.46145   0.00000  Uiso   1.00
H80    H     0.53261   0.57465   0.68838   0.00000  Uiso   1.00
H81    H     0.29157   0.85605   0.34465   0.00000  Uiso   1.00
H82    H     0.61925   0.56935   0.41604   0.00000  Uiso   1.00
H83    H     0.85328   0.52251   0.89456   0.00000  Uiso   1.00
O84    O     0.32886   0.98314   0.39186   0.00000  Uiso   1.00
O85    O     0.44683   0.60700   0.48553   0.00000  Uiso   1.00
O86    O     0.06584   0.54554   0.11335   0.00000  Uiso   1.00
N87    N     0.32897   0.93887   0.53016   0.00000  Uiso   1.00
N88    N     0.70037   0.67083   0.59689   0.00000  Uiso   1.00
N89    N     0.85406   0.62703   0.04427   0.00000  Uiso   1.00
N90    N     0.30115   0.87151   0.40980   0.00000  Uiso   1.00
N91    N     0.67256   0.60347   0.47653   0.00000  Uiso   1.00
N92    N     0.82625   0.55966   0.92392   0.00000  Uiso   1.00
C93    C     0.29700   0.74847   0.23437   0.00000  Uiso   1.00
C94    C     0.29904   0.71331   0.14869   0.00000  Uiso   1.00
C95    C     0.31622   0.64621   0.14368   0.00000  Uiso   1.00
C96    C     0.31501   0.62364   0.05897   0.00000  Uiso   1.00
C97    C     0.32079   0.56248   0.93759   0.00000  Uiso   1.00
C98    C     0.12577   0.78717   0.16707   0.00000  Uiso   1.00
C99    C     0.99729   0.78219   0.17752   0.00000  Uiso   1.00
C100   C     0.85023   0.82180   0.10828   0.00000  Uiso   1.00
C101   C     0.58708   0.87536   0.01549   0.00000  Uiso   1.00
C102   C     0.44374   0.79924   0.29036   0.00000  Uiso   1.00
C103   C     0.58259   0.80441   0.40449   0.00000  Uiso   1.00
C104   C     0.70322   0.85419   0.43906   0.00000  Uiso   1.00
C105   C     0.93376   0.92648   0.53770   0.00000  Uiso   1.00
C106   C     0.26428   0.82770   0.09284   0.00000  Uiso   1.00
C107   C     0.28126   0.75634   0.07181   0.00000  Uiso   1.00
C108   C     0.28003   0.73386   0.98709   0.00000  Uiso   1.00
C109   C     0.29721   0.66674   0.98196   0.00000  Uiso   1.00
C110   C     0.10799   0.83020   0.09019   0.00000  Uiso   1.00
C111   C     0.96110   0.86984   0.02093   0.00000  Uiso   1.00
C112   C     0.83243   0.86491   0.03127   0.00000  Uiso   1.00
C113   C     0.42597   0.84227   0.21349   0.00000  Uiso   1.00
C114   C     0.54640   0.89206   0.24789   0.00000  Uiso   1.00
C115   C     0.68541   0.89730   0.36205   0.00000  Uiso   1.00
H116   H     0.31082   0.71498   0.29422   0.00000  Uiso   1.00
H117   H     0.32996   0.61292   0.20319   0.00000  Uiso   1.00
H118   H     0.01109   0.74889   0.23703   0.00000  Uiso   1.00
H119   H     0.59630   0.77110   0.46396   0.00000  Uiso   1.00
H120   H     0.34327   0.51876   0.06833   0.00000  Uiso   1.00
H121   H     0.67095   0.80546   0.13971   0.00000  Uiso   1.00
H122   H     0.90498   0.85230   0.61824   0.00000  Uiso   1.00
H123   H     0.25044   0.86120   0.03298   0.00000  Uiso   1.00
H124   H     0.26627   0.76717   0.92761   0.00000  Uiso   1.00
H125   H     0.94740   0.90313   0.96145   0.00000  Uiso   1.00
H126   H     0.53261   0.92535   0.18838   0.00000  Uiso   1.00
H127   H     0.29157   0.64395   0.84465   0.00000  Uiso   1.00
H128   H     0.61925   0.93065   0.91604   0.00000  Uiso   1.00
H129   H     0.85328   0.97749   0.39456   0.00000  Uiso   1.00
O130   O     0.32886   0.51686   0.89186   0.00000  Uiso   1.00
O131   O     0.44683   0.89300   0.98553   0.00000  Uiso   1.00
O132   O     0.06584   0.95446   0.61335   0.00000  Uiso   1.00
N133   N     0.32897   0.56113   0.03016   0.00000  Uiso   1.00
N134   N     0.70037   0.82917   0.09689   0.00000  Uiso   1.00
N135   N     0.85406   0.87297   0.54427   0.00000  Uiso   1.00
N136   N     0.30115   0.62849   0.90980   0.00000  Uiso   1.00
N137   N     0.67256   0.89653   0.97653   0.00000  Uiso   1.00
N138   N     0.82625   0.94034   0.42392   0.00000  Uiso   1.00
C139   C     0.70300   0.24847   0.26563   0.00000  Uiso   1.00
C140   C     0.70096   0.21331   0.35131   0.00000  Uiso   1.00
C141   C     0.68378   0.14621   0.35632   0.00000  Uiso   1.00
C142   C     0.68499   0.12364   0.44103   0.00000  Uiso   1.00
C143   C     0.67921   0.06248   0.56241   0.00000  Uiso   1.00
C144   C     0.87423   0.28717   0.33293   0.00000  Uiso   1.00
C145   C     0.00271   0.28219   0.32248   0.00000  Uiso   1.00
C146   C     0.14977   0.32180   0.39172   0.00000  Uiso   1.00
C147   C     0.41292   0.37536   0.48451   0.00000  Uiso   1.00
C148   C     0.55626   0.29924   0.20964   0.00000  Uiso   1.00
C149   C     0.41741   0.30441   0.09551   0.00000  Uiso   1.00
C150   C     0.29678   0.35419   0.06094   0.00000  Uiso   1.00
C151   C     0.06624   0.42648   0.96230   0.00000  Uiso   1.00
C152   C     0.73572   0.32770   0.40716   0.00000  Uiso   1.00
C153   C     0.71874   0.25634   0.42819   0.00000  Uiso   1.00
C154   C     0.71997   0.23386   0.51291   0.00000  Uiso   1.00
C155   C     0.70279   0.16674   0.51804   0.00000  Uiso   1.00
C156   C     0.89201   0.33020   0.40981   0.00000  Uiso   1.00
C157   C     0.03890   0.36984   0.47907   0.00000  Uiso   1.00
C158   C     0.16757   0.36491   0.46873   0.00000  Uiso   1.00
C159   C     0.57403   0.34227   0.28651   0.00000  Uiso   1.00
C160   C     0.45360   0.39206   0.25211   0.00000  Uiso   1.00
C161   C     0.31459   0.39730   0.13795   0.00000  Uiso   1.00
H162   H     0.68918   0.21498   0.20578   0.00000  Uiso   1.00
H163   H     0.67004   0.11292   0.29681   0.00000  Uiso   1.00
H164   H     0.98891   0.24889   0.26297   0.00000  Uiso   1.00
H165   H     0.40370   0.27110   0.03604   0.00000  Uiso   1.00
H166   H     0.65673   0.01876   0.43167   0.00000  Uiso   1.00
H167   H     0.32905   0.30546   0.36029   0.00000  Uiso   1.00
H168   H     0.09502   0.35230   0.88176   0.00000  Uiso   1.00
H169   H     0.74956   0.36120   0.46702   0.00000  Uiso   1.00
H170   H     0.73373   0.26717   0.57239   0.00000  Uiso   1.00
H171   H     0.05260   0.40313   0.53855   0.00000  Uiso   1.00
H172   H     0.46739   0.42535   0.31162   0.00000  Uiso   1.00
H173   H     0.70843   0.14395   0.65535   0.00000  Uiso   1.00
H174   H     0.38075   0.43065   0.58396   0.00000  Uiso   1.00
H175   H     0.14672   0.47749   0.10544   0.00000  Uiso   1.00
O176   O     0.67114   0.01686   0.60814   0.00000  Uiso   1.00
O177   O     0.55317   0.39300   0.51447   0.00000  Uiso   1.00
O178   O     0.93416   0.45446   0.88665   0.00000  Uiso   1.00
N179   N     0.67103   0.06113   0.46984   0.00000  Uiso   1.00
N180   N     0.29963   0.32917   0.40311   0.00000  Uiso   1.00
N181   N     0.14594   0.37297   0.95573   0.00000  Uiso   1.00
N182   N     0.69885   0.12849   0.59020   0.00000  Uiso   1.00
N183   N     0.32744   0.39653   0.52347   0.00000  Uiso   1.00
N184   N     0.17375   0.44034   0.07608   0.00000  Uiso   1.00
