data_job_06499
_audit_creation_date              2018-12-19
_audit_creation_method            'Materials Studio'
_symmetry_space_group_name_H-M    'P1'
_symmetry_Int_Tables_number       1
_symmetry_cell_setting            triclinic
loop_
_symmetry_equiv_pos_as_xyz
  x,y,z
_cell_length_a                    19.9212
_cell_length_b                    20.5024
_cell_length_c                    21.6652
_cell_angle_alpha                 94.5645
_cell_angle_beta                  64.0459
_cell_angle_gamma                 70.7648
loop_
_atom_site_label
_atom_site_type_symbol
_atom_site_fract_x
_atom_site_fract_y
_atom_site_fract_z
_atom_site_U_iso_or_equiv
_atom_site_adp_type
_atom_site_occupancy
C1     C     0.92305   0.42544   0.32359   0.00000  Uiso   1.00
C2     C     0.01296   0.39578   0.30351   0.00000  Uiso   1.00
C3     C     0.04352   0.40868   0.34756   0.00000  Uiso   1.00
C4     C     0.12766   0.37664   0.31922   0.00000  Uiso   1.00
C5     C     0.25942   0.33722   0.29865   0.00000  Uiso   1.00
C6     C     0.91652   0.46519   0.26852   0.00000  Uiso   1.00
C7     C     0.86598   0.53645   0.28316   0.00000  Uiso   1.00
C8     C     0.86893   0.56283   0.22537   0.00000  Uiso   1.00
C9     C     0.85092   0.63116   0.15050   0.00000  Uiso   1.00
C10    C     0.90483   0.36062   0.31057   0.00000  Uiso   1.00
C11    C     0.84444   0.34396   0.36056   0.00000  Uiso   1.00
C12    C     0.83754   0.28230   0.33816   0.00000  Uiso   1.00
C13    C     0.80137   0.18826   0.32857   0.00000  Uiso   1.00
C14    C     0.01814   0.34558   0.19492   0.00000  Uiso   1.00
C15    C     0.06461   0.35241   0.23362   0.00000  Uiso   1.00
C16    C     0.14873   0.32033   0.20521   0.00000  Uiso   1.00
C17    C     0.17940   0.33318   0.24921   0.00000  Uiso   1.00
C18    C     0.96817   0.42182   0.19864   0.00000  Uiso   1.00
C19    C     0.97119   0.44810   0.14081   0.00000  Uiso   1.00
C20    C     0.92068   0.51938   0.15536   0.00000  Uiso   1.00
C21    C     0.95648   0.31724   0.24068   0.00000  Uiso   1.00
C22    C     0.94966   0.25560   0.21820   0.00000  Uiso   1.00
C23    C     0.88928   0.23885   0.26815   0.00000  Uiso   1.00
H24    H     0.88283   0.45921   0.37800   0.00000  Uiso   1.00
H25    H     0.00352   0.44226   0.40164   0.00000  Uiso   1.00
H26    H     0.82601   0.57000   0.33725   0.00000  Uiso   1.00
H27    H     0.80448   0.37754   0.41463   0.00000  Uiso   1.00
H28    H     0.16012   0.40436   0.39702   0.00000  Uiso   1.00
H29    H     0.78580   0.67371   0.26126   0.00000  Uiso   1.00
H30    H     0.74040   0.26785   0.42444   0.00000  Uiso   1.00
H31    H     0.05835   0.31181   0.14051   0.00000  Uiso   1.00
H32    H     0.18868   0.28677   0.15112   0.00000  Uiso   1.00
H33    H     0.01117   0.41451   0.08674   0.00000  Uiso   1.00
H34    H     0.98964   0.22205   0.16412   0.00000  Uiso   1.00
H35    H     0.31039   0.27816   0.19369   0.00000  Uiso   1.00
H36    H     0.93607   0.54751   0.05793   0.00000  Uiso   1.00
H37    H     0.89068   0.14165   0.22111   0.00000  Uiso   1.00
O38    O     0.31782   0.32747   0.30661   0.00000  Uiso   1.00
O39    O     0.82672   0.68083   0.12851   0.00000  Uiso   1.00
O40    O     0.76716   0.14836   0.34259   0.00000  Uiso   1.00
N41    N     0.17760   0.37808   0.34771   0.00000  Uiso   1.00
N42    N     0.82764   0.62991   0.22079   0.00000  Uiso   1.00
N43    N     0.78518   0.25048   0.37334   0.00000  Uiso   1.00
N44    N     0.25846   0.31017   0.23831   0.00000  Uiso   1.00
N45    N     0.90851   0.56200   0.11138   0.00000  Uiso   1.00
N46    N     0.86604   0.18257   0.26393   0.00000  Uiso   1.00
C47    C     0.41299   0.61480   0.21217   0.00000  Uiso   1.00
C48    C     0.39621   0.57233   0.26773   0.00000  Uiso   1.00
C49    C     0.33560   0.54643   0.29029   0.00000  Uiso   1.00
C50    C     0.33018   0.50885   0.34160   0.00000  Uiso   1.00
C51    C     0.29599   0.44464   0.42368   0.00000  Uiso   1.00
C52    C     0.40773   0.68454   0.24852   0.00000  Uiso   1.00
C53    C     0.35681   0.75299   0.25491   0.00000  Uiso   1.00
C54    C     0.36109   0.80987   0.29005   0.00000  Uiso   1.00
C55    C     0.34483   0.91987   0.34226   0.00000  Uiso   1.00
C56    C     0.50230   0.57335   0.15524   0.00000  Uiso   1.00
C57    C     0.53090   0.54832   0.08319   0.00000  Uiso   1.00
C58    C     0.61482   0.51159   0.03978   0.00000  Uiso   1.00
C59    C     0.74539   0.44895   0.94715   0.00000  Uiso   1.00
C60    C     0.51117   0.59409   0.26320   0.00000  Uiso   1.00
C61    C     0.44954   0.56108   0.29545   0.00000  Uiso   1.00
C62    C     0.44422   0.52352   0.34674   0.00000  Uiso   1.00
C63    C     0.38360   0.49757   0.36937   0.00000  Uiso   1.00
C64    C     0.46105   0.67329   0.27624   0.00000  Uiso   1.00
C65    C     0.46542   0.73008   0.31137   0.00000  Uiso   1.00
C66    C     0.41451   0.79860   0.31782   0.00000  Uiso   1.00
C67    C     0.55563   0.56209   0.18296   0.00000  Uiso   1.00
C68    C     0.63952   0.52540   0.13965   0.00000  Uiso   1.00
C69    C     0.66824   0.50033   0.06755   0.00000  Uiso   1.00
H70    H     0.37148   0.62356   0.19060   0.00000  Uiso   1.00
H71    H     0.29434   0.55516   0.26883   0.00000  Uiso   1.00
H72    H     0.31555   0.76168   0.23345   0.00000  Uiso   1.00
H73    H     0.48962   0.55704   0.06176   0.00000  Uiso   1.00
H74    H     0.23231   0.47438   0.36780   0.00000  Uiso   1.00
H75    H     0.27706   0.90985   0.29319   0.00000  Uiso   1.00
H76    H     0.64412   0.47832   0.93114   0.00000  Uiso   1.00
H77    H     0.55268   0.58533   0.28478   0.00000  Uiso   1.00
H78    H     0.48549   0.51482   0.36818   0.00000  Uiso   1.00
H79    H     0.50670   0.72135   0.33281   0.00000  Uiso   1.00
H80    H     0.68077   0.51671   0.16112   0.00000  Uiso   1.00
H81    H     0.38745   0.44165   0.44845   0.00000  Uiso   1.00
H82    H     0.43220   0.87712   0.37383   0.00000  Uiso   1.00
H83    H     0.79926   0.44559   0.01178   0.00000  Uiso   1.00
O84    O     0.26239   0.41234   0.46131   0.00000  Uiso   1.00
O85    O     0.32111   0.98366   0.36341   0.00000  Uiso   1.00
O86    O     0.80268   0.41750   0.88841   0.00000  Uiso   1.00
N87    N     0.27806   0.47634   0.37533   0.00000  Uiso   1.00
N88    N     0.31988   0.88348   0.30558   0.00000  Uiso   1.00
N89    N     0.66306   0.48005   0.96709   0.00000  Uiso   1.00
N90    N     0.36154   0.45872   0.41872   0.00000  Uiso   1.00
N91    N     0.40337   0.86586   0.34897   0.00000  Uiso   1.00
N92    N     0.74654   0.46244   0.01048   0.00000  Uiso   1.00
C93    C     0.07130   0.58289   0.80429   0.00000  Uiso   1.00
C94    C     0.06516   0.55525   0.74033   0.00000  Uiso   1.00
C95    C     0.09121   0.57516   0.67697   0.00000  Uiso   1.00
C96    C     0.08018   0.54381   0.62492   0.00000  Uiso   1.00
C97    C     0.07606   0.50844   0.52395   0.00000  Uiso   1.00
C98    C     0.98462   0.61417   0.86735   0.00000  Uiso   1.00
C99    C     0.94296   0.68361   0.91078   0.00000  Uiso   1.00
C100   C     0.86413   0.70185   0.96567   0.00000  Uiso   1.00
C101   C     0.73499   0.75794   0.06192   0.00000  Uiso   1.00
C102   C     0.11893   0.51684   0.81908   0.00000  Uiso   1.00
C103   C     0.19020   0.50447   0.82195   0.00000  Uiso   1.00
C104   C     0.22444   0.44077   0.83621   0.00000  Uiso   1.00
C105   C     0.30384   0.34575   0.85751   0.00000  Uiso   1.00
C106   C     0.00537   0.49180   0.82455   0.00000  Uiso   1.00
C107   C     0.02935   0.50577   0.75134   0.00000  Uiso   1.00
C108   C     0.01828   0.47437   0.69937   0.00000  Uiso   1.00
C109   C     0.04431   0.49424   0.63594   0.00000  Uiso   1.00
C110   C     0.94881   0.56469   0.87835   0.00000  Uiso   1.00
C111   C     0.87002   0.58283   0.93319   0.00000  Uiso   1.00
C112   C     0.82826   0.65228   0.97669   0.00000  Uiso   1.00
C113   C     0.08313   0.46736   0.83008   0.00000  Uiso   1.00
C114   C     0.11726   0.40368   0.84435   0.00000  Uiso   1.00
C115   C     0.18856   0.39121   0.84723   0.00000  Uiso   1.00
H116   H     0.09917   0.62142   0.79573   0.00000  Uiso   1.00
H117   H     0.11891   0.61346   0.66848   0.00000  Uiso   1.00
H118   H     0.97069   0.72189   0.90226   0.00000  Uiso   1.00
H119   H     0.21789   0.54277   0.81343   0.00000  Uiso   1.00
H120   H     0.12499   0.58284   0.53225   0.00000  Uiso   1.00
H121   H     0.81246   0.81146   0.02521   0.00000  Uiso   1.00
H122   H     0.33372   0.43375   0.83790   0.00000  Uiso   1.00
H123   H     0.97749   0.45328   0.83311   0.00000  Uiso   1.00
H124   H     0.99056   0.43609   0.70790   0.00000  Uiso   1.00
H125   H     0.84234   0.54452   0.94169   0.00000  Uiso   1.00
H126   H     0.08953   0.36540   0.85286   0.00000  Uiso   1.00
H127   H     0.02081   0.43888   0.56425   0.00000  Uiso   1.00
H128   H     0.70828   0.66750   0.05721   0.00000  Uiso   1.00
H129   H     0.22954   0.28980   0.86990   0.00000  Uiso   1.00
O130   O     0.08366   0.50260   0.46522   0.00000  Uiso   1.00
O131   O     0.67365   0.80254   0.11197   0.00000  Uiso   1.00
O132   O     0.35753   0.30700   0.86622   0.00000  Uiso   1.00
N133   N     0.09869   0.55130   0.55696   0.00000  Uiso   1.00
N134   N     0.80649   0.76506   0.01784   0.00000  Uiso   1.00
N135   N     0.29381   0.41194   0.84274   0.00000  Uiso   1.00
N136   N     0.04263   0.47384   0.57418   0.00000  Uiso   1.00
N137   N     0.75043   0.68759   0.03506   0.00000  Uiso   1.00
N138   N     0.23776   0.33448   0.85996   0.00000  Uiso   1.00
C139   C     0.94904   0.09114   0.67919   0.00000  Uiso   1.00
C140   C     0.99325   0.05701   0.71831   0.00000  Uiso   1.00
C141   C     0.03141   0.08677   0.74521   0.00000  Uiso   1.00
C142   C     0.06843   0.04708   0.77928   0.00000  Uiso   1.00
C143   C     0.13722   0.00430   0.83900   0.00000  Uiso   1.00
C144   C     0.86265   0.09474   0.72039   0.00000  Uiso   1.00
C145   C     0.79099   0.15622   0.74902   0.00000  Uiso   1.00
C146   C     0.71807   0.14829   0.78484   0.00000  Uiso   1.00
C147   C     0.58410   0.16407   0.84775   0.00000  Uiso   1.00
C148   C     0.98978   0.03712   0.60757   0.00000  Uiso   1.00
C149   C     0.02500   0.05015   0.54133   0.00000  Uiso   1.00
C150   C     0.05911   0.99371   0.48215   0.00000  Uiso   1.00
C151   C     0.12252   0.92003   0.36989   0.00000  Uiso   1.00
C152   C     0.94695   0.96775   0.69187   0.00000  Uiso   1.00
C153   C     0.99212   0.98999   0.72520   0.00000  Uiso   1.00
C154   C     0.02910   0.95024   0.75923   0.00000  Uiso   1.00
C155   C     0.06730   0.97994   0.78617   0.00000  Uiso   1.00
C156   C     0.86151   0.02772   0.72728   0.00000  Uiso   1.00
C157   C     0.78868   0.01970   0.76305   0.00000  Uiso   1.00
C158   C     0.71694   0.08114   0.79174   0.00000  Uiso   1.00
C159   C     0.98865   0.97010   0.61445   0.00000  Uiso   1.00
C160   C     0.02270   0.91363   0.55536   0.00000  Uiso   1.00
C161   C     0.05797   0.92657   0.48905   0.00000  Uiso   1.00
H162   H     0.94992   0.14333   0.67383   0.00000  Uiso   1.00
H163   H     0.03226   0.13864   0.73987   0.00000  Uiso   1.00
H164   H     0.79189   0.20808   0.74368   0.00000  Uiso   1.00
H165   H     0.02587   0.10203   0.53603   0.00000  Uiso   1.00
H166   H     0.12303   0.10390   0.81615   0.00000  Uiso   1.00
H167   H     0.61619   0.25031   0.82416   0.00000  Uiso   1.00
H168   H     0.10958   0.02668   0.38628   0.00000  Uiso   1.00
H169   H     0.94607   0.91557   0.69723   0.00000  Uiso   1.00
H170   H     0.02821   0.89838   0.76456   0.00000  Uiso   1.00
H171   H     0.78783   0.96782   0.76837   0.00000  Uiso   1.00
H172   H     0.02181   0.86177   0.56071   0.00000  Uiso   1.00
H173   H     0.11973   0.90890   0.83619   0.00000  Uiso   1.00
H174   H     0.61289   0.05530   0.84420   0.00000  Uiso   1.00
H175   H     0.10628   0.83168   0.40631   0.00000  Uiso   1.00
O176   O     0.17546   0.99922   0.87005   0.00000  Uiso   1.00
O177   O     0.51051   0.19129   0.88056   0.00000  Uiso   1.00
O178   O     0.15782   0.89790   0.30606   0.00000  Uiso   1.00
N179   N     0.11100   0.06036   0.81161   0.00000  Uiso   1.00
N180   N     0.63713   0.19724   0.81912   0.00000  Uiso   1.00
N181   N     0.09839   0.98818   0.40973   0.00000  Uiso   1.00
N182   N     0.10922   0.95543   0.82239   0.00000  Uiso   1.00
N183   N     0.63536   0.09231   0.82990   0.00000  Uiso   1.00
N184   N     0.09662   0.88325   0.42051   0.00000  Uiso   1.00
C185   C     0.78769   0.99279   0.36747   0.00000  Uiso   1.00
C186   C     0.86928   0.97715   0.30192   0.00000  Uiso   1.00
C187   C     0.87949   0.99504   0.23890   0.00000  Uiso   1.00
C188   C     0.95913   0.97607   0.18520   0.00000  Uiso   1.00
C189   C     0.07564   0.95724   0.08205   0.00000  Uiso   1.00
C190   C     0.78663   0.03559   0.42902   0.00000  Uiso   1.00
C191   C     0.72733   0.10260   0.47286   0.00000  Uiso   1.00
C192   C     0.73739   0.13282   0.52616   0.00000  Uiso   1.00
C193   C     0.72554   0.20468   0.62037   0.00000  Uiso   1.00
C194   C     0.79163   0.92075   0.38292   0.00000  Uiso   1.00
C195   C     0.73653   0.89121   0.38803   0.00000  Uiso   1.00
C196   C     0.75079   0.82474   0.40254   0.00000  Uiso   1.00
C197   C     0.74671   0.71829   0.42517   0.00000  Uiso   1.00
C198   C     0.91096   0.92729   0.38417   0.00000  Uiso   1.00
C199   C     0.93624   0.94158   0.31100   0.00000  Uiso   1.00
C200   C     0.01588   0.92257   0.25738   0.00000  Uiso   1.00
C201   C     0.02621   0.94043   0.19429   0.00000  Uiso   1.00
C202   C     0.85358   0.00001   0.43809   0.00000  Uiso   1.00
C203   C     0.86372   0.03013   0.49134   0.00000  Uiso   1.00
C204   C     0.80447   0.09718   0.53525   0.00000  Uiso   1.00
C205   C     0.85859   0.88517   0.39199   0.00000  Uiso   1.00
C206   C     0.87293   0.81873   0.40651   0.00000  Uiso   1.00
C207   C     0.81787   0.78910   0.41163   0.00000  Uiso   1.00
H208   H     0.73555   0.02049   0.36041   0.00000  Uiso   1.00
H209   H     0.82766   0.02258   0.23190   0.00000  Uiso   1.00
H210   H     0.67552   0.13012   0.46583   0.00000  Uiso   1.00
H211   H     0.68472   0.91875   0.38101   0.00000  Uiso   1.00
H212   H     0.95930   0.00923   0.09343   0.00000  Uiso   1.00
H213   H     0.63850   0.23597   0.58671   0.00000  Uiso   1.00
H214   H     0.65790   0.79027   0.40784   0.00000  Uiso   1.00
H215   H     0.96309   0.89959   0.39124   0.00000  Uiso   1.00
H216   H     0.06769   0.89504   0.26441   0.00000  Uiso   1.00
H217   H     0.91555   0.00258   0.49835   0.00000  Uiso   1.00
H218   H     0.92475   0.79122   0.41352   0.00000  Uiso   1.00
H219   H     0.15412   0.90572   0.11982   0.00000  Uiso   1.00
H220   H     0.83331   0.13246   0.61310   0.00000  Uiso   1.00
H221   H     0.85271   0.68675   0.43423   0.00000  Uiso   1.00
O222   O     0.12141   0.95669   0.02265   0.00000  Uiso   1.00
O223   O     0.70051   0.25416   0.66982   0.00000  Uiso   1.00
O224   O     0.72597   0.66940   0.43514   0.00000  Uiso   1.00
N225   N     0.99080   0.98548   0.11704   0.00000  Uiso   1.00
N226   N     0.69087   0.19748   0.57822   0.00000  Uiso   1.00
N227   N     0.70900   0.78079   0.41101   0.00000  Uiso   1.00
N228   N     0.09563   0.92978   0.13124   0.00000  Uiso   1.00
N229   N     0.79570   0.14178   0.59242   0.00000  Uiso   1.00
N230   N     0.81383   0.72509   0.42521   0.00000  Uiso   1.00
C231   C     0.46548   0.00998   0.87194   0.00000  Uiso   1.00
C232   C     0.43654   0.95262   0.85921   0.00000  Uiso   1.00
C233   C     0.36004   0.95327   0.90161   0.00000  Uiso   1.00
C234   C     0.34545   0.89583   0.88094   0.00000  Uiso   1.00
C235   C     0.29141   0.81530   0.87043   0.00000  Uiso   1.00
C236   C     0.49244   0.03528   0.80421   0.00000  Uiso   1.00
C237   C     0.46294   0.10543   0.80036   0.00000  Uiso   1.00
C238   C     0.49541   0.11757   0.73338   0.00000  Uiso   1.00
C239   C     0.52819   0.16538   0.63748   0.00000  Uiso   1.00
C240   C     0.54293   0.97133   0.87556   0.00000  Uiso   1.00
C241   C     0.55590   0.98773   0.93170   0.00000  Uiso   1.00
C242   C     0.63090   0.94604   0.92479   0.00000  Uiso   1.00
C243   C     0.74208   0.89457   0.93967   0.00000  Uiso   1.00
C244   C     0.57562   0.90679   0.75984   0.00000  Uiso   1.00
C245   C     0.49637   0.89658   0.79832   0.00000  Uiso   1.00
C246   C     0.48190   0.83911   0.77759   0.00000  Uiso   1.00
C247   C     0.40539   0.83968   0.81994   0.00000  Uiso   1.00
C248   C     0.55226   0.97924   0.74332   0.00000  Uiso   1.00
C249   C     0.58480   0.99127   0.67634   0.00000  Uiso   1.00
C250   C     0.55535   0.06142   0.67239   0.00000  Uiso   1.00
C251   C     0.60276   0.91529   0.81467   0.00000  Uiso   1.00
C252   C     0.67776   0.87356   0.80767   0.00000  Uiso   1.00
C253   C     0.69084   0.88989   0.86379   0.00000  Uiso   1.00
H254   H     0.41890   0.05362   0.91933   0.00000  Uiso   1.00
H255   H     0.31375   0.99666   0.94872   0.00000  Uiso   1.00
H256   H     0.41664   0.14880   0.84749   0.00000  Uiso   1.00
H257   H     0.50959   0.03111   0.97880   0.00000  Uiso   1.00
H258   H     0.22355   0.90881   0.95443   0.00000  Uiso   1.00
H259   H     0.44052   0.22960   0.74098   0.00000  Uiso   1.00
H260   H     0.63652   0.98143   0.01789   0.00000  Uiso   1.00
H261   H     0.62220   0.86316   0.71243   0.00000  Uiso   1.00
H262   H     0.52821   0.79575   0.73047   0.00000  Uiso   1.00
H263   H     0.63110   0.94788   0.62923   0.00000  Uiso   1.00
H264   H     0.72404   0.83020   0.76055   0.00000  Uiso   1.00
H265   H     0.39760   0.74574   0.77729   0.00000  Uiso   1.00
H266   H     0.61458   0.06653   0.56384   0.00000  Uiso   1.00
H267   H     0.81057   0.81837   0.84075   0.00000  Uiso   1.00
O268   O     0.24507   0.78638   0.88144   0.00000  Uiso   1.00
O269   O     0.52973   0.20724   0.60141   0.00000  Uiso   1.00
O270   O     0.78687   0.88165   0.96471   0.00000  Uiso   1.00
N271   N     0.27742   0.87968   0.91028   0.00000  Uiso   1.00
N272   N     0.48026   0.17959   0.71071   0.00000  Uiso   1.00
N273   N     0.66351   0.94759   0.96959   0.00000  Uiso   1.00
N274   N     0.37108   0.79193   0.81496   0.00000  Uiso   1.00
N275   N     0.57392   0.09185   0.61539   0.00000  Uiso   1.00
N276   N     0.75717   0.85985   0.87427   0.00000  Uiso   1.00
C277   C     0.42351   0.67846   0.50893   0.00000  Uiso   1.00
C278   C     0.33323   0.69874   0.56012   0.00000  Uiso   1.00
C279   C     0.27441   0.70268   0.54083   0.00000  Uiso   1.00
C280   C     0.19520   0.72220   0.59562   0.00000  Uiso   1.00
C281   C     0.05801   0.75138   0.66423   0.00000  Uiso   1.00
C282   C     0.47049   0.61504   0.52715   0.00000  Uiso   1.00
C283   C     0.52709   0.54860   0.48012   0.00000  Uiso   1.00
C284   C     0.56343   0.49767   0.50714   0.00000  Uiso   1.00
C285   C     0.63939   0.39691   0.52454   0.00000  Uiso   1.00
C286   C     0.44209   0.74054   0.52971   0.00000  Uiso   1.00
C287   C     0.47483   0.77963   0.48484   0.00000  Uiso   1.00
C288   C     0.48729   0.83435   0.51401   0.00000  Uiso   1.00
C289   C     0.51915   0.92846   0.53539   0.00000  Uiso   1.00
C290   C     0.38744   0.70612   0.64053   0.00000  Uiso   1.00
C291   C     0.31364   0.71376   0.63160   0.00000  Uiso   1.00
C292   C     0.23450   0.73329   0.68643   0.00000  Uiso   1.00
C293   C     0.17557   0.73726   0.66722   0.00000  Uiso   1.00
C294   C     0.45090   0.63006   0.59862   0.00000  Uiso   1.00
C295   C     0.48718   0.57921   0.62572   0.00000  Uiso   1.00
C296   C     0.54381   0.51272   0.57875   0.00000  Uiso   1.00
C297   C     0.42250   0.75557   0.60119   0.00000  Uiso   1.00
C298   C     0.43492   0.81024   0.63044   0.00000  Uiso   1.00
C299   C     0.46767   0.84940   0.58562   0.00000  Uiso   1.00
H300   H     0.43876   0.66675   0.45328   0.00000  Uiso   1.00
H301   H     0.28960   0.69104   0.48551   0.00000  Uiso   1.00
H302   H     0.54224   0.53699   0.42481   0.00000  Uiso   1.00
H303   H     0.48999   0.76798   0.42953   0.00000  Uiso   1.00
H304   H     0.11558   0.72457   0.55276   0.00000  Uiso   1.00
H305   H     0.64831   0.39976   0.42476   0.00000  Uiso   1.00
H306   H     0.53813   0.88685   0.43471   0.00000  Uiso   1.00
H307   H     0.37219   0.71782   0.69618   0.00000  Uiso   1.00
H308   H     0.21936   0.74491   0.74174   0.00000  Uiso   1.00
H309   H     0.47201   0.59086   0.68103   0.00000  Uiso   1.00
H310   H     0.41975   0.82185   0.68575   0.00000  Uiso   1.00
H311   H     0.05857   0.76829   0.76073   0.00000  Uiso   1.00
H312   H     0.59131   0.44348   0.63272   0.00000  Uiso   1.00
H313   H     0.48113   0.93057   0.64267   0.00000  Uiso   1.00
O314   O     0.98775   0.76331   0.68233   0.00000  Uiso   1.00
O315   O     0.68669   0.33717   0.51440   0.00000  Uiso   1.00
O316   O     0.54213   0.97623   0.52744   0.00000  Uiso   1.00
N317   N     0.12313   0.73115   0.59546   0.00000  Uiso   1.00
N318   N     0.62120   0.42747   0.47579   0.00000  Uiso   1.00
N319   N     0.51821   0.88285   0.48508   0.00000  Uiso   1.00
N320   N     0.09246   0.75468   0.70736   0.00000  Uiso   1.00
N321   N     0.59052   0.45100   0.58769   0.00000  Uiso   1.00
N322   N     0.48753   0.90638   0.59698   0.00000  Uiso   1.00
C323   C     0.78203   0.57508   0.73610   0.00000  Uiso   1.00
C324   C     0.79569   0.62849   0.69190   0.00000  Uiso   1.00
C325   C     0.85141   0.65883   0.68121   0.00000  Uiso   1.00
C326   C     0.85464   0.70651   0.63902   0.00000  Uiso   1.00
C327   C     0.88359   0.78687   0.57497   0.00000  Uiso   1.00
C328   C     0.79493   0.50960   0.68647   0.00000  Uiso   1.00
C329   C     0.85001   0.43999   0.67124   0.00000  Uiso   1.00
C330   C     0.85258   0.38759   0.62449   0.00000  Uiso   1.00
C331   C     0.88032   0.28337   0.55206   0.00000  Uiso   1.00
C332   C     0.69148   0.60820   0.79160   0.00000  Uiso   1.00
C333   C     0.65957   0.62147   0.86477   0.00000  Uiso   1.00
C334   C     0.57504   0.65207   0.90653   0.00000  Uiso   1.00
C335   C     0.44215   0.70095   0.99733   0.00000  Uiso   1.00
C336   C     0.68865   0.60580   0.68017   0.00000  Uiso   1.00
C337   C     0.74497   0.64517   0.66152   0.00000  Uiso   1.00
C338   C     0.74811   0.69282   0.61933   0.00000  Uiso   1.00
C339   C     0.80382   0.72323   0.60859   0.00000  Uiso   1.00
C340   C     0.74422   0.52629   0.65609   0.00000  Uiso   1.00
C341   C     0.74670   0.47398   0.60936   0.00000  Uiso   1.00
C342   C     0.80177   0.40431   0.59405   0.00000  Uiso   1.00
C343   C     0.64076   0.62489   0.76123   0.00000  Uiso   1.00
C344   C     0.55626   0.65547   0.80288   0.00000  Uiso   1.00
C345   C     0.52423   0.66879   0.87610   0.00000  Uiso   1.00
H346   H     0.82152   0.56208   0.75975   0.00000  Uiso   1.00
H347   H     0.89066   0.64589   0.70472   0.00000  Uiso   1.00
H348   H     0.88925   0.42709   0.69476   0.00000  Uiso   1.00
H349   H     0.69884   0.60855   0.88826   0.00000  Uiso   1.00
H350   H     0.94497   0.74616   0.63030   0.00000  Uiso   1.00
H351   H     0.94197   0.28478   0.60931   0.00000  Uiso   1.00
H352   H     0.54046   0.66743   0.01733   0.00000  Uiso   1.00
H353   H     0.64917   0.61880   0.65652   0.00000  Uiso   1.00
H354   H     0.70885   0.70573   0.59583   0.00000  Uiso   1.00
H355   H     0.70744   0.48691   0.58586   0.00000  Uiso   1.00
H356   H     0.51703   0.66838   0.77936   0.00000  Uiso   1.00
H357   H     0.79741   0.79472   0.54191   0.00000  Uiso   1.00
H358   H     0.79441   0.33334   0.52092   0.00000  Uiso   1.00
H359   H     0.39290   0.71599   0.92895   0.00000  Uiso   1.00
O360   O     0.91358   0.82658   0.54802   0.00000  Uiso   1.00
O361   O     0.90964   0.22127   0.52049   0.00000  Uiso   1.00
O362   O     0.38287   0.72330   0.05581   0.00000  Uiso   1.00
N363   N     0.90204   0.74567   0.61784   0.00000  Uiso   1.00
N364   N     0.89925   0.31431   0.59820   0.00000  Uiso   1.00
N365   N     0.52387   0.67204   0.97967   0.00000  Uiso   1.00
N366   N     0.82264   0.77180   0.57028   0.00000  Uiso   1.00
N367   N     0.81985   0.34044   0.55064   0.00000  Uiso   1.00
N368   N     0.44447   0.69817   0.93211   0.00000  Uiso   1.00
C369   C     0.14643   0.57634   0.13978   0.00000  Uiso   1.00
C370   C     0.14854   0.60563   0.20554   0.00000  Uiso   1.00
C371   C     0.11780   0.58807   0.26988   0.00000  Uiso   1.00
C372   C     0.12570   0.62063   0.32354   0.00000  Uiso   1.00
C373   C     0.12335   0.65873   0.42722   0.00000  Uiso   1.00
C374   C     0.23485   0.54296   0.07956   0.00000  Uiso   1.00
C375   C     0.27667   0.47271   0.03797   0.00000  Uiso   1.00
C376   C     0.35721   0.45252   0.98558   0.00000  Uiso   1.00
C377   C     0.48883   0.39333   0.89363   0.00000  Uiso   1.00
C378   C     0.10296   0.64144   0.12113   0.00000  Uiso   1.00
C379   C     0.03389   0.65399   0.11448   0.00000  Uiso   1.00
C380   C     0.00341   0.71671   0.09707   0.00000  Uiso   1.00
C381   C     0.93025   0.81044   0.06968   0.00000  Uiso   1.00
C382   C     0.21511   0.66539   0.12066   0.00000  Uiso   1.00
C383   C     0.18585   0.65400   0.19515   0.00000  Uiso   1.00
C384   C     0.19379   0.68660   0.24873   0.00000  Uiso   1.00
C385   C     0.16307   0.66909   0.31314   0.00000  Uiso   1.00
C386   C     0.27216   0.59133   0.06917   0.00000  Uiso   1.00
C387   C     0.35265   0.57124   0.01682   0.00000  Uiso   1.00
C388   C     0.39458   0.50097   0.97517   0.00000  Uiso   1.00
C389   C     0.14026   0.68982   0.11075   0.00000  Uiso   1.00
C390   C     0.10988   0.75253   0.09333   0.00000  Uiso   1.00
C391   C     0.04078   0.76517   0.08667   0.00000  Uiso   1.00
H392   H     0.11739   0.53868   0.14786   0.00000  Uiso   1.00
H393   H     0.08895   0.55063   0.27790   0.00000  Uiso   1.00
H394   H     0.24778   0.43529   0.04602   0.00000  Uiso   1.00
H395   H     0.00504   0.61655   0.12252   0.00000  Uiso   1.00
H396   H     0.07389   0.58519   0.41748   0.00000  Uiso   1.00
H397   H     0.40879   0.34200   0.92853   0.00000  Uiso   1.00
H398   H     0.89694   0.72422   0.08986   0.00000  Uiso   1.00
H399   H     0.24415   0.70305   0.11257   0.00000  Uiso   1.00
H400   H     0.22266   0.72403   0.24067   0.00000  Uiso   1.00
H401   H     0.38150   0.60869   0.00879   0.00000  Uiso   1.00
H402   H     0.13876   0.78995   0.08530   0.00000  Uiso   1.00
H403   H     0.18242   0.72593   0.38727   0.00000  Uiso   1.00
H404   H     0.51733   0.48273   0.89832   0.00000  Uiso   1.00
H405   H     0.00547   0.86496   0.05965   0.00000  Uiso   1.00
O406   O     0.11176   0.66638   0.48727   0.00000  Uiso   1.00
O407   O     0.55113   0.34732   0.84579   0.00000  Uiso   1.00
O408   O     0.87959   0.84878   0.05745   0.00000  Uiso   1.00
N409   N     0.10237   0.61545   0.39279   0.00000  Uiso   1.00
N410   N     0.41549   0.38807   0.93567   0.00000  Uiso   1.00
N411   N     0.93696   0.74541   0.08647   0.00000  Uiso   1.00
N412   N     0.16077   0.69118   0.37654   0.00000  Uiso   1.00
N413   N     0.47389   0.46380   0.91941   0.00000  Uiso   1.00
N414   N     0.99536   0.82114   0.07022   0.00000  Uiso   1.00
C415   C     0.22483   0.05135   0.19188   0.00000  Uiso   1.00
C416   C     0.23731   0.09250   0.13505   0.00000  Uiso   1.00
C417   C     0.19385   0.10610   0.09859   0.00000  Uiso   1.00
C418   C     0.21448   0.14466   0.04860   0.00000  Uiso   1.00
C419   C     0.22447   0.20486   0.96230   0.00000  Uiso   1.00
C420   C     0.30768   0.99032   0.16632   0.00000  Uiso   1.00
C421   C     0.32338   0.91801   0.15618   0.00000  Uiso   1.00
C422   C     0.40325   0.87057   0.13253   0.00000  Uiso   1.00
C423   C     0.52248   0.77214   0.09484   0.00000  Uiso   1.00
C424   C     0.20758   0.10158   0.25787   0.00000  Uiso   1.00
C425   C     0.13912   0.12282   0.32471   0.00000  Uiso   1.00
C426   C     0.13472   0.16904   0.37815   0.00000  Uiso   1.00
C427   C     0.09853   0.24337   0.48260   0.00000  Uiso   1.00
C428   C     0.33876   0.09565   0.16795   0.00000  Uiso   1.00
C429   C     0.29919   0.11655   0.12204   0.00000  Uiso   1.00
C430   C     0.31989   0.15511   0.07210   0.00000  Uiso   1.00
C431   C     0.27647   0.16877   0.03558   0.00000  Uiso   1.00
C432   C     0.36956   0.01438   0.15332   0.00000  Uiso   1.00
C433   C     0.44943   0.96703   0.12969   0.00000  Uiso   1.00
C434   C     0.46524   0.89467   0.11950   0.00000  Uiso   1.00
C435   C     0.26946   0.12565   0.24487   0.00000  Uiso   1.00
C436   C     0.26517   0.17184   0.29822   0.00000  Uiso   1.00
C437   C     0.19671   0.19314   0.36512   0.00000  Uiso   1.00
H438   H     0.17666   0.03261   0.20201   0.00000  Uiso   1.00
H439   H     0.14597   0.08746   0.10866   0.00000  Uiso   1.00
H440   H     0.27548   0.89941   0.16625   0.00000  Uiso   1.00
H441   H     0.09125   0.10419   0.33475   0.00000  Uiso   1.00
H442   H     0.13925   0.15886   0.99942   0.00000  Uiso   1.00
H443   H     0.41233   0.76235   0.12086   0.00000  Uiso   1.00
H444   H     0.02384   0.19416   0.47619   0.00000  Uiso   1.00
H445   H     0.38694   0.11438   0.15782   0.00000  Uiso   1.00
H446   H     0.36778   0.17372   0.06205   0.00000  Uiso   1.00
H447   H     0.49730   0.98567   0.11964   0.00000  Uiso   1.00
H448   H     0.31306   0.19045   0.28814   0.00000  Uiso   1.00
H449   H     0.31929   0.22887   0.96158   0.00000  Uiso   1.00
H450   H     0.59237   0.83235   0.08304   0.00000  Uiso   1.00
H451   H     0.20387   0.26417   0.43836   0.00000  Uiso   1.00
O452   O     0.21290   0.23141   0.91828   0.00000  Uiso   1.00
O453   O     0.57116   0.71120   0.07763   0.00000  Uiso   1.00
O454   O     0.06146   0.27773   0.54380   0.00000  Uiso   1.00
N455   N     0.18424   0.16721   0.00367   0.00000  Uiso   1.00
N456   N     0.43955   0.79649   0.11720   0.00000  Uiso   1.00
N457   N     0.07636   0.20018   0.44941   0.00000  Uiso   1.00
N458   N     0.28112   0.20488   0.98331   0.00000  Uiso   1.00
N459   N     0.53643   0.83416   0.09685   0.00000  Uiso   1.00
N460   N     0.17323   0.23786   0.42905   0.00000  Uiso   1.00
C461   C     0.24910   0.15117   0.68696   0.00000  Uiso   1.00
C462   C     0.16294   0.19855   0.74687   0.00000  Uiso   1.00
C463   C     0.13680   0.20975   0.81914   0.00000  Uiso   1.00
C464   C     0.05557   0.25500   0.86548   0.00000  Uiso   1.00
C465   C     0.92984   0.32355   0.96233   0.00000  Uiso   1.00
C466   C     0.23997   0.09724   0.64188   0.00000  Uiso   1.00
C467   C     0.27861   0.02328   0.62587   0.00000  Uiso   1.00
C468   C     0.26223   0.98325   0.58381   0.00000  Uiso   1.00
C469   C     0.25614   0.89452   0.51761   0.00000  Uiso   1.00
C470   C     0.27740   0.19911   0.64044   0.00000  Uiso   1.00
C471   C     0.34752   0.21078   0.62320   0.00000  Uiso   1.00
C472   C     0.36267   0.25651   0.57992   0.00000  Uiso   1.00
C473   C     0.41470   0.32595   0.51150   0.00000  Uiso   1.00
C474   C     0.15132   0.21160   0.64073   0.00000  Uiso   1.00
C475   C     0.10983   0.23137   0.72176   0.00000  Uiso   1.00
C476   C     0.02862   0.27662   0.76799   0.00000  Uiso   1.00
C477   C     0.00237   0.28789   0.84032   0.00000  Uiso   1.00
C478   C     0.18686   0.13007   0.61677   0.00000  Uiso   1.00
C479   C     0.17043   0.09014   0.57472   0.00000  Uiso   1.00
C480   C     0.20903   0.01613   0.55865   0.00000  Uiso   1.00
C481   C     0.22429   0.23194   0.61533   0.00000  Uiso   1.00
C482   C     0.23933   0.27765   0.57206   0.00000  Uiso   1.00
C483   C     0.30946   0.28939   0.55476   0.00000  Uiso   1.00
H484   H     0.29045   0.12561   0.70650   0.00000  Uiso   1.00
H485   H     0.17792   0.18433   0.83855   0.00000  Uiso   1.00
H486   H     0.31971   0.99789   0.64530   0.00000  Uiso   1.00
H487   H     0.38861   0.18537   0.64264   0.00000  Uiso   1.00
H488   H     0.02972   0.26390   0.97388   0.00000  Uiso   1.00
H489   H     0.32872   0.87077   0.56638   0.00000  Uiso   1.00
H490   H     0.47401   0.26611   0.56077   0.00000  Uiso   1.00
H491   H     0.10997   0.23716   0.62117   0.00000  Uiso   1.00
H492   H     0.98753   0.30201   0.74855   0.00000  Uiso   1.00
H493   H     0.12932   0.11556   0.55529   0.00000  Uiso   1.00
H494   H     0.19822   0.30304   0.55264   0.00000  Uiso   1.00
H495   H     0.87520   0.35941   0.90083   0.00000  Uiso   1.00
H496   H     0.17420   0.96628   0.49332   0.00000  Uiso   1.00
H497   H     0.31948   0.36162   0.48772   0.00000  Uiso   1.00
O498   O     0.87516   0.35228   0.02268   0.00000  Uiso   1.00
O499   O     0.26745   0.83651   0.48805   0.00000  Uiso   1.00
O500   O     0.45806   0.35519   0.48070   0.00000  Uiso   1.00
N501   N     0.01016   0.27749   0.93921   0.00000  Uiso   1.00
N502   N     0.28970   0.90994   0.55823   0.00000  Uiso   1.00
N503   N     0.42554   0.27953   0.55297   0.00000  Uiso   1.00
N504   N     0.92701   0.32888   0.89990   0.00000  Uiso   1.00
N505   N     0.20655   0.96133   0.51892   0.00000  Uiso   1.00
N506   N     0.34239   0.33092   0.51366   0.00000  Uiso   1.00
C507   C     0.69447   0.07321   0.08059   0.00000  Uiso   1.00
C508   C     0.75072   0.10677   0.08483   0.00000  Uiso   1.00
C509   C     0.83163   0.08739   0.03382   0.00000  Uiso   1.00
C510   C     0.87268   0.12456   0.04763   0.00000  Uiso   1.00
C511   C     0.96589   0.16834   0.04471   0.00000  Uiso   1.00
C512   C     0.66392   0.04707   0.14750   0.00000  Uiso   1.00
C513   C     0.67184   0.97750   0.14919   0.00000  Uiso   1.00
C514   C     0.63982   0.96442   0.21576   0.00000  Uiso   1.00
C515   C     0.59822   0.91554   0.31014   0.00000  Uiso   1.00
C516   C     0.62015   0.13464   0.08839   0.00000  Uiso   1.00
C517   C     0.59125   0.13868   0.04040   0.00000  Uiso   1.00
C518   C     0.52236   0.19932   0.05721   0.00000  Uiso   1.00
C519   C     0.41281   0.28640   0.05982   0.00000  Uiso   1.00
C520   C     0.62351   0.17370   0.19580   0.00000  Uiso   1.00
C521   C     0.71217   0.16135   0.14741   0.00000  Uiso   1.00
C522   C     0.75311   0.19856   0.16130   0.00000  Uiso   1.00
C523   C     0.83407   0.17924   0.11032   0.00000  Uiso   1.00
C524   C     0.62538   0.10165   0.21008   0.00000  Uiso   1.00
C525   C     0.59333   0.08867   0.27666   0.00000  Uiso   1.00
C526   C     0.60121   0.01910   0.27845   0.00000  Uiso   1.00
C527   C     0.58161   0.18922   0.15098   0.00000  Uiso   1.00
C528   C     0.51274   0.24986   0.16787   0.00000  Uiso   1.00
C529   C     0.48375   0.25400   0.11990   0.00000  Uiso   1.00
H530   H     0.72448   0.03071   0.03187   0.00000  Uiso   1.00
H531   H     0.86144   0.04514   0.98540   0.00000  Uiso   1.00
H532   H     0.70167   0.93527   0.10075   0.00000  Uiso   1.00
H533   H     0.62110   0.09644   0.99197   0.00000  Uiso   1.00
H534   H     0.99629   0.08519   0.96149   0.00000  Uiso   1.00
H535   H     0.65938   0.85353   0.20472   0.00000  Uiso   1.00
H536   H     0.48948   0.19337   0.97533   0.00000  Uiso   1.00
H537   H     0.59350   0.21619   0.24453   0.00000  Uiso   1.00
H538   H     0.72327   0.24080   0.20973   0.00000  Uiso   1.00
H539   H     0.56350   0.13093   0.32508   0.00000  Uiso   1.00
H540   H     0.48293   0.29209   0.21630   0.00000  Uiso   1.00
H541   H     0.88415   0.24399   0.14357   0.00000  Uiso   1.00
H542   H     0.54724   0.01233   0.38679   0.00000  Uiso   1.00
H543   H     0.37734   0.35217   0.15741   0.00000  Uiso   1.00
O544   O     0.02796   0.17741   0.02581   0.00000  Uiso   1.00
O545   O     0.58594   0.87349   0.34491   0.00000  Uiso   1.00
O546   O     0.36303   0.31935   0.04396   0.00000  Uiso   1.00
N547   N     0.95208   0.11919   0.00912   0.00000  Uiso   1.00
N548   N     0.63711   0.90261   0.23651   0.00000  Uiso   1.00
N549   N     0.47825   0.22032   0.02207   0.00000  Uiso   1.00
N550   N     0.89174   0.20464   0.10709   0.00000  Uiso   1.00
N551   N     0.57677   0.98805   0.33449   0.00000  Uiso   1.00
N552   N     0.41791   0.30577   0.12004   0.00000  Uiso   1.00
