data_job_03565
_audit_creation_date              2018-12-19
_audit_creation_method            'Materials Studio'
_symmetry_space_group_name_H-M    'P1'
_symmetry_Int_Tables_number       1
_symmetry_cell_setting            triclinic
loop_
_symmetry_equiv_pos_as_xyz
  x,y,z
_cell_length_a                    12.4106
_cell_length_b                    12.4106
_cell_length_c                    67.3235
_cell_angle_alpha                 90.0000
_cell_angle_beta                  90.0000
_cell_angle_gamma                 120.0000
loop_
_atom_site_label
_atom_site_type_symbol
_atom_site_fract_x
_atom_site_fract_y
_atom_site_fract_z
_atom_site_U_iso_or_equiv
_atom_site_adp_type
_atom_site_occupancy
C1     C     0.57744   0.61244   0.45155   0.00000  Uiso   1.00
C2     C     0.54349   0.59064   0.42957   0.00000  Uiso   1.00
C3     C     0.42789   0.55691   0.42154   0.00000  Uiso   1.00
C4     C     0.41562   0.54142   0.40108   0.00000  Uiso   1.00
C5     C     0.34770   0.50483   0.36878   0.00000  Uiso   1.00
C6     C     0.62607   0.52506   0.45691   0.00000  Uiso   1.00
C7     C     0.57991   0.43620   0.47187   0.00000  Uiso   1.00
C8     C     0.63717   0.36552   0.47443   0.00000  Uiso   1.00
C9     C     0.69752   0.22717   0.48459   0.00000  Uiso   1.00
C10    C     0.68871   0.74387   0.45305   0.00000  Uiso   1.00
C11    C     0.69523   0.83898   0.46476   0.00000  Uiso   1.00
C12    C     0.80524   0.95251   0.46408   0.00000  Uiso   1.00
C13    C     0.96284   0.15390   0.46824   0.00000  Uiso   1.00
C14    C     0.76124   0.64492   0.42951   0.00000  Uiso   1.00
C15    C     0.64333   0.60828   0.41760   0.00000  Uiso   1.00
C16    C     0.63123   0.59285   0.39715   0.00000  Uiso   1.00
C17    C     0.51563   0.55910   0.38909   0.00000  Uiso   1.00
C18    C     0.72590   0.54270   0.44494   0.00000  Uiso   1.00
C19    C     0.78326   0.47214   0.44748   0.00000  Uiso   1.00
C20    C     0.73718   0.38319   0.46244   0.00000  Uiso   1.00
C21    C     0.78854   0.76151   0.44108   0.00000  Uiso   1.00
C22    C     0.89857   0.87492   0.44038   0.00000  Uiso   1.00
C23    C     0.90526   0.97019   0.45208   0.00000  Uiso   1.00
H24    H     0.49972   0.59870   0.46087   0.00000  Uiso   1.00
H25    H     0.35065   0.54325   0.43080   0.00000  Uiso   1.00
H26    H     0.50266   0.42258   0.48113   0.00000  Uiso   1.00
H27    H     0.61795   0.82529   0.47402   0.00000  Uiso   1.00
H28    H     0.22938   0.48952   0.39220   0.00000  Uiso   1.00
H29    H     0.54993   0.23509   0.49832   0.00000  Uiso   1.00
H30    H     0.79306   0.08430   0.48333   0.00000  Uiso   1.00
H31    H     0.83897   0.65866   0.42019   0.00000  Uiso   1.00
H32    H     0.70851   0.60651   0.38789   0.00000  Uiso   1.00
H33    H     0.86051   0.48582   0.43822   0.00000  Uiso   1.00
H34    H     0.97581   0.88854   0.43111   0.00000  Uiso   1.00
H35    H     0.51983   0.54085   0.35737   0.00000  Uiso   1.00
H36    H     0.84038   0.28642   0.46349   0.00000  Uiso   1.00
H37    H     0.08351   0.13563   0.44850   0.00000  Uiso   1.00
O38    O     0.28265   0.47976   0.35427   0.00000  Uiso   1.00
O39    O     0.70321   0.14597   0.49350   0.00000  Uiso   1.00
O40    O     0.02219   0.26011   0.47384   0.00000  Uiso   1.00
N41    N     0.31565   0.50878   0.38843   0.00000  Uiso   1.00
N42    N     0.61533   0.27089   0.48764   0.00000  Uiso   1.00
N43    N     0.84265   0.06482   0.47364   0.00000  Uiso   1.00
N44    N     0.47194   0.53641   0.36969   0.00000  Uiso   1.00
N45    N     0.77162   0.29851   0.46890   0.00000  Uiso   1.00
N46    N     0.99894   0.09244   0.45490   0.00000  Uiso   1.00
C47    C     0.38756   0.96500   0.11821   0.00000  Uiso   1.00
C48    C     0.40936   0.95285   0.09624   0.00000  Uiso   1.00
C49    C     0.44309   0.87097   0.08820   0.00000  Uiso   1.00
C50    C     0.45858   0.87419   0.06775   0.00000  Uiso   1.00
C51    C     0.49517   0.84287   0.03545   0.00000  Uiso   1.00
C52    C     0.47494   0.10102   0.12358   0.00000  Uiso   1.00
C53    C     0.56380   0.14371   0.13853   0.00000  Uiso   1.00
C54    C     0.63448   0.27166   0.14110   0.00000  Uiso   1.00
C55    C     0.77283   0.47035   0.15125   0.00000  Uiso   1.00
C56    C     0.25613   0.94484   0.11972   0.00000  Uiso   1.00
C57    C     0.16102   0.85625   0.13143   0.00000  Uiso   1.00
C58    C     0.04749   0.85273   0.13074   0.00000  Uiso   1.00
C59    C     0.84610   0.80895   0.13491   0.00000  Uiso   1.00
C60    C     0.35508   0.11632   0.09617   0.00000  Uiso   1.00
C61    C     0.39172   0.03504   0.08427   0.00000  Uiso   1.00
C62    C     0.40715   0.03839   0.06382   0.00000  Uiso   1.00
C63    C     0.44090   0.95653   0.05575   0.00000  Uiso   1.00
C64    C     0.45730   0.18320   0.11161   0.00000  Uiso   1.00
C65    C     0.52786   0.31112   0.11415   0.00000  Uiso   1.00
C66    C     0.61681   0.35399   0.12910   0.00000  Uiso   1.00
C67    C     0.23849   0.02703   0.10775   0.00000  Uiso   1.00
C68    C     0.12508   0.02366   0.10704   0.00000  Uiso   1.00
C69    C     0.02981   0.93507   0.11875   0.00000  Uiso   1.00
H70    H     0.40130   0.90102   0.12753   0.00000  Uiso   1.00
H71    H     0.45675   0.80739   0.09747   0.00000  Uiso   1.00
H72    H     0.57742   0.08008   0.14780   0.00000  Uiso   1.00
H73    H     0.17471   0.79266   0.14069   0.00000  Uiso   1.00
H74    H     0.51048   0.73986   0.05886   0.00000  Uiso   1.00
H75    H     0.76491   0.31484   0.16498   0.00000  Uiso   1.00
H76    H     0.91570   0.70876   0.15000   0.00000  Uiso   1.00
H77    H     0.34134   0.18031   0.08685   0.00000  Uiso   1.00
H78    H     0.39349   0.10200   0.05456   0.00000  Uiso   1.00
H79    H     0.51418   0.37469   0.10488   0.00000  Uiso   1.00
H80    H     0.11146   0.08727   0.09778   0.00000  Uiso   1.00
H81    H     0.45915   0.97898   0.02403   0.00000  Uiso   1.00
H82    H     0.71358   0.55396   0.13015   0.00000  Uiso   1.00
H83    H     0.86437   0.94788   0.11517   0.00000  Uiso   1.00
O84    O     0.52024   0.80290   0.02094   0.00000  Uiso   1.00
O85    O     0.85403   0.55724   0.16016   0.00000  Uiso   1.00
O86    O     0.73989   0.76208   0.14051   0.00000  Uiso   1.00
N87    N     0.49122   0.80687   0.05510   0.00000  Uiso   1.00
N88    N     0.72911   0.34444   0.15431   0.00000  Uiso   1.00
N89    N     0.93518   0.77783   0.14031   0.00000  Uiso   1.00
N90    N     0.46359   0.93553   0.03636   0.00000  Uiso   1.00
N91    N     0.70149   0.47311   0.13557   0.00000  Uiso   1.00
N92    N     0.90756   0.90650   0.12157   0.00000  Uiso   1.00
C93    C     0.03500   0.42256   0.78488   0.00000  Uiso   1.00
C94    C     0.04715   0.45651   0.76291   0.00000  Uiso   1.00
C95    C     0.12903   0.57211   0.75487   0.00000  Uiso   1.00
C96    C     0.12581   0.58438   0.73441   0.00000  Uiso   1.00
C97    C     0.15713   0.65230   0.70211   0.00000  Uiso   1.00
C98    C     0.89898   0.37393   0.79025   0.00000  Uiso   1.00
C99    C     0.85629   0.42009   0.80520   0.00000  Uiso   1.00
C100   C     0.72834   0.36283   0.80776   0.00000  Uiso   1.00
C101   C     0.52965   0.30248   0.81792   0.00000  Uiso   1.00
C102   C     0.05516   0.31129   0.78639   0.00000  Uiso   1.00
C103   C     0.14375   0.30477   0.79810   0.00000  Uiso   1.00
C104   C     0.14727   0.19476   0.79741   0.00000  Uiso   1.00
C105   C     0.19105   0.03716   0.80157   0.00000  Uiso   1.00
C106   C     0.88368   0.23876   0.76284   0.00000  Uiso   1.00
C107   C     0.96496   0.35667   0.75094   0.00000  Uiso   1.00
C108   C     0.96161   0.36877   0.73048   0.00000  Uiso   1.00
C109   C     0.04347   0.48437   0.72242   0.00000  Uiso   1.00
C110   C     0.81680   0.27410   0.77828   0.00000  Uiso   1.00
C111   C     0.68888   0.21674   0.78082   0.00000  Uiso   1.00
C112   C     0.64601   0.26282   0.79577   0.00000  Uiso   1.00
C113   C     0.97297   0.21146   0.77441   0.00000  Uiso   1.00
C114   C     0.97634   0.10143   0.77371   0.00000  Uiso   1.00
C115   C     0.06493   0.09474   0.78542   0.00000  Uiso   1.00
H116   H     0.09898   0.50028   0.79420   0.00000  Uiso   1.00
H117   H     0.19261   0.64935   0.76414   0.00000  Uiso   1.00
H118   H     0.91992   0.49734   0.81446   0.00000  Uiso   1.00
H119   H     0.20734   0.38205   0.80736   0.00000  Uiso   1.00
H120   H     0.26014   0.77062   0.72553   0.00000  Uiso   1.00
H121   H     0.68516   0.45007   0.83165   0.00000  Uiso   1.00
H122   H     0.29124   0.20694   0.81667   0.00000  Uiso   1.00
H123   H     0.81969   0.16103   0.75352   0.00000  Uiso   1.00
H124   H     0.89800   0.29149   0.72122   0.00000  Uiso   1.00
H125   H     0.62531   0.13949   0.77155   0.00000  Uiso   1.00
H126   H     0.91273   0.02419   0.76445   0.00000  Uiso   1.00
H127   H     0.02102   0.48017   0.69070   0.00000  Uiso   1.00
H128   H     0.44604   0.15962   0.79682   0.00000  Uiso   1.00
H129   H     0.05212   0.91649   0.78184   0.00000  Uiso   1.00
O130   O     0.19710   0.71735   0.68760   0.00000  Uiso   1.00
O131   O     0.44276   0.29679   0.82683   0.00000  Uiso   1.00
O132   O     0.23792   0.97781   0.80717   0.00000  Uiso   1.00
N133   N     0.19313   0.68435   0.72176   0.00000  Uiso   1.00
N134   N     0.65556   0.38467   0.82098   0.00000  Uiso   1.00
N135   N     0.22217   0.15735   0.80697   0.00000  Uiso   1.00
N136   N     0.06447   0.52806   0.70302   0.00000  Uiso   1.00
N137   N     0.52689   0.22838   0.80224   0.00000  Uiso   1.00
N138   N     0.09350   0.00106   0.78823   0.00000  Uiso   1.00
C139   C     0.42256   0.38756   0.95155   0.00000  Uiso   1.00
C140   C     0.45651   0.40936   0.92957   0.00000  Uiso   1.00
C141   C     0.57211   0.44309   0.92154   0.00000  Uiso   1.00
C142   C     0.58438   0.45858   0.90108   0.00000  Uiso   1.00
C143   C     0.65230   0.49517   0.86878   0.00000  Uiso   1.00
C144   C     0.37393   0.47494   0.95691   0.00000  Uiso   1.00
C145   C     0.42009   0.56380   0.97187   0.00000  Uiso   1.00
C146   C     0.36283   0.63448   0.97443   0.00000  Uiso   1.00
C147   C     0.30248   0.77283   0.98459   0.00000  Uiso   1.00
C148   C     0.31129   0.25613   0.95305   0.00000  Uiso   1.00
C149   C     0.30477   0.16102   0.96476   0.00000  Uiso   1.00
C150   C     0.19476   0.04749   0.96408   0.00000  Uiso   1.00
C151   C     0.03716   0.84610   0.96824   0.00000  Uiso   1.00
C152   C     0.23876   0.35508   0.92951   0.00000  Uiso   1.00
C153   C     0.35667   0.39172   0.91760   0.00000  Uiso   1.00
C154   C     0.36877   0.40715   0.89715   0.00000  Uiso   1.00
C155   C     0.48437   0.44090   0.88909   0.00000  Uiso   1.00
C156   C     0.27410   0.45730   0.94494   0.00000  Uiso   1.00
C157   C     0.21674   0.52786   0.94748   0.00000  Uiso   1.00
C158   C     0.26282   0.61681   0.96244   0.00000  Uiso   1.00
C159   C     0.21146   0.23849   0.94108   0.00000  Uiso   1.00
C160   C     0.10143   0.12508   0.94038   0.00000  Uiso   1.00
C161   C     0.09474   0.02981   0.95208   0.00000  Uiso   1.00
H162   H     0.50028   0.40130   0.96087   0.00000  Uiso   1.00
H163   H     0.64935   0.45675   0.93080   0.00000  Uiso   1.00
H164   H     0.49734   0.57742   0.98113   0.00000  Uiso   1.00
H165   H     0.38205   0.17471   0.97402   0.00000  Uiso   1.00
H166   H     0.77062   0.51048   0.89220   0.00000  Uiso   1.00
H167   H     0.45007   0.76491   0.99832   0.00000  Uiso   1.00
H168   H     0.20694   0.91570   0.98333   0.00000  Uiso   1.00
H169   H     0.16103   0.34134   0.92019   0.00000  Uiso   1.00
H170   H     0.29149   0.39349   0.88789   0.00000  Uiso   1.00
H171   H     0.13949   0.51418   0.93822   0.00000  Uiso   1.00
H172   H     0.02419   0.11146   0.93111   0.00000  Uiso   1.00
H173   H     0.48017   0.45915   0.85737   0.00000  Uiso   1.00
H174   H     0.15962   0.71358   0.96349   0.00000  Uiso   1.00
H175   H     0.91649   0.86437   0.94850   0.00000  Uiso   1.00
O176   O     0.71735   0.52024   0.85427   0.00000  Uiso   1.00
O177   O     0.29679   0.85403   0.99350   0.00000  Uiso   1.00
O178   O     0.97781   0.73989   0.97384   0.00000  Uiso   1.00
N179   N     0.68435   0.49122   0.88843   0.00000  Uiso   1.00
N180   N     0.38467   0.72911   0.98764   0.00000  Uiso   1.00
N181   N     0.15735   0.93518   0.97364   0.00000  Uiso   1.00
N182   N     0.52806   0.46359   0.86969   0.00000  Uiso   1.00
N183   N     0.22838   0.70149   0.96890   0.00000  Uiso   1.00
N184   N     0.00106   0.90756   0.95490   0.00000  Uiso   1.00
C185   C     0.61244   0.03500   0.61821   0.00000  Uiso   1.00
C186   C     0.59064   0.04715   0.59624   0.00000  Uiso   1.00
C187   C     0.55691   0.12903   0.58820   0.00000  Uiso   1.00
C188   C     0.54142   0.12581   0.56775   0.00000  Uiso   1.00
C189   C     0.50483   0.15713   0.53545   0.00000  Uiso   1.00
C190   C     0.52506   0.89898   0.62358   0.00000  Uiso   1.00
C191   C     0.43620   0.85629   0.63853   0.00000  Uiso   1.00
C192   C     0.36552   0.72834   0.64110   0.00000  Uiso   1.00
C193   C     0.22717   0.52965   0.65125   0.00000  Uiso   1.00
C194   C     0.74387   0.05516   0.61972   0.00000  Uiso   1.00
C195   C     0.83898   0.14375   0.63143   0.00000  Uiso   1.00
C196   C     0.95251   0.14727   0.63074   0.00000  Uiso   1.00
C197   C     0.15390   0.19105   0.63491   0.00000  Uiso   1.00
C198   C     0.64492   0.88368   0.59617   0.00000  Uiso   1.00
C199   C     0.60828   0.96496   0.58427   0.00000  Uiso   1.00
C200   C     0.59285   0.96161   0.56382   0.00000  Uiso   1.00
C201   C     0.55910   0.04347   0.55575   0.00000  Uiso   1.00
C202   C     0.54270   0.81680   0.61161   0.00000  Uiso   1.00
C203   C     0.47214   0.68888   0.61415   0.00000  Uiso   1.00
C204   C     0.38319   0.64601   0.62910   0.00000  Uiso   1.00
C205   C     0.76151   0.97297   0.60775   0.00000  Uiso   1.00
C206   C     0.87492   0.97634   0.60704   0.00000  Uiso   1.00
C207   C     0.97019   0.06493   0.61875   0.00000  Uiso   1.00
H208   H     0.59870   0.09898   0.62753   0.00000  Uiso   1.00
H209   H     0.54325   0.19261   0.59747   0.00000  Uiso   1.00
H210   H     0.42258   0.91992   0.64780   0.00000  Uiso   1.00
H211   H     0.82529   0.20734   0.64069   0.00000  Uiso   1.00
H212   H     0.48952   0.26014   0.55886   0.00000  Uiso   1.00
H213   H     0.23509   0.68516   0.66498   0.00000  Uiso   1.00
H214   H     0.08430   0.29124   0.65000   0.00000  Uiso   1.00
H215   H     0.65866   0.81969   0.58685   0.00000  Uiso   1.00
H216   H     0.60651   0.89800   0.55456   0.00000  Uiso   1.00
H217   H     0.48582   0.62531   0.60488   0.00000  Uiso   1.00
H218   H     0.88854   0.91273   0.59778   0.00000  Uiso   1.00
H219   H     0.54085   0.02102   0.52403   0.00000  Uiso   1.00
H220   H     0.28642   0.44604   0.63015   0.00000  Uiso   1.00
H221   H     0.13563   0.05212   0.61517   0.00000  Uiso   1.00
O222   O     0.47976   0.19710   0.52094   0.00000  Uiso   1.00
O223   O     0.14597   0.44276   0.66016   0.00000  Uiso   1.00
O224   O     0.26011   0.23792   0.64051   0.00000  Uiso   1.00
N225   N     0.50878   0.19313   0.55510   0.00000  Uiso   1.00
N226   N     0.27089   0.65556   0.65431   0.00000  Uiso   1.00
N227   N     0.06482   0.22217   0.64031   0.00000  Uiso   1.00
N228   N     0.53641   0.06447   0.53636   0.00000  Uiso   1.00
N229   N     0.29851   0.52689   0.63557   0.00000  Uiso   1.00
N230   N     0.09244   0.09350   0.62157   0.00000  Uiso   1.00
C231   C     0.96500   0.57744   0.28488   0.00000  Uiso   1.00
C232   C     0.95285   0.54349   0.26291   0.00000  Uiso   1.00
C233   C     0.87097   0.42789   0.25487   0.00000  Uiso   1.00
C234   C     0.87419   0.41562   0.23441   0.00000  Uiso   1.00
C235   C     0.84287   0.34770   0.20211   0.00000  Uiso   1.00
C236   C     0.10102   0.62607   0.29025   0.00000  Uiso   1.00
C237   C     0.14371   0.57991   0.30520   0.00000  Uiso   1.00
C238   C     0.27166   0.63717   0.30776   0.00000  Uiso   1.00
C239   C     0.47035   0.69752   0.31792   0.00000  Uiso   1.00
C240   C     0.94484   0.68871   0.28639   0.00000  Uiso   1.00
C241   C     0.85625   0.69523   0.29810   0.00000  Uiso   1.00
C242   C     0.85273   0.80524   0.29741   0.00000  Uiso   1.00
C243   C     0.80895   0.96284   0.30157   0.00000  Uiso   1.00
C244   C     0.11632   0.76124   0.26284   0.00000  Uiso   1.00
C245   C     0.03504   0.64333   0.25094   0.00000  Uiso   1.00
C246   C     0.03839   0.63123   0.23048   0.00000  Uiso   1.00
C247   C     0.95653   0.51563   0.22242   0.00000  Uiso   1.00
C248   C     0.18320   0.72590   0.27828   0.00000  Uiso   1.00
C249   C     0.31112   0.78326   0.28082   0.00000  Uiso   1.00
C250   C     0.35399   0.73718   0.29577   0.00000  Uiso   1.00
C251   C     0.02703   0.78854   0.27441   0.00000  Uiso   1.00
C252   C     0.02366   0.89857   0.27371   0.00000  Uiso   1.00
C253   C     0.93507   0.90526   0.28542   0.00000  Uiso   1.00
H254   H     0.90102   0.49972   0.29420   0.00000  Uiso   1.00
H255   H     0.80739   0.35065   0.26414   0.00000  Uiso   1.00
H256   H     0.08008   0.50266   0.31446   0.00000  Uiso   1.00
H257   H     0.79266   0.61795   0.30736   0.00000  Uiso   1.00
H258   H     0.73986   0.22938   0.22553   0.00000  Uiso   1.00
H259   H     0.31484   0.54993   0.33165   0.00000  Uiso   1.00
H260   H     0.70876   0.79306   0.31667   0.00000  Uiso   1.00
H261   H     0.18031   0.83897   0.25352   0.00000  Uiso   1.00
H262   H     0.10200   0.70851   0.22122   0.00000  Uiso   1.00
H263   H     0.37469   0.86051   0.27155   0.00000  Uiso   1.00
H264   H     0.08727   0.97581   0.26445   0.00000  Uiso   1.00
H265   H     0.97898   0.51983   0.19070   0.00000  Uiso   1.00
H266   H     0.55396   0.84038   0.29682   0.00000  Uiso   1.00
H267   H     0.94788   0.08351   0.28184   0.00000  Uiso   1.00
O268   O     0.80290   0.28265   0.18760   0.00000  Uiso   1.00
O269   O     0.55724   0.70321   0.32683   0.00000  Uiso   1.00
O270   O     0.76208   0.02219   0.30717   0.00000  Uiso   1.00
N271   N     0.80687   0.31565   0.22176   0.00000  Uiso   1.00
N272   N     0.34444   0.61533   0.32098   0.00000  Uiso   1.00
N273   N     0.77783   0.84265   0.30697   0.00000  Uiso   1.00
N274   N     0.93553   0.47194   0.20302   0.00000  Uiso   1.00
N275   N     0.47311   0.77162   0.30224   0.00000  Uiso   1.00
N276   N     0.90650   0.99894   0.28823   0.00000  Uiso   1.00
C277   C     0.61244   0.57744   0.21512   0.00000  Uiso   1.00
C278   C     0.59064   0.54349   0.23709   0.00000  Uiso   1.00
C279   C     0.55691   0.42789   0.24513   0.00000  Uiso   1.00
C280   C     0.54142   0.41562   0.26559   0.00000  Uiso   1.00
C281   C     0.50483   0.34770   0.29789   0.00000  Uiso   1.00
C282   C     0.52506   0.62607   0.20975   0.00000  Uiso   1.00
C283   C     0.43620   0.57991   0.19480   0.00000  Uiso   1.00
C284   C     0.36552   0.63717   0.19224   0.00000  Uiso   1.00
C285   C     0.22717   0.69752   0.18208   0.00000  Uiso   1.00
C286   C     0.74387   0.68871   0.21361   0.00000  Uiso   1.00
C287   C     0.83898   0.69523   0.20190   0.00000  Uiso   1.00
C288   C     0.95251   0.80524   0.20259   0.00000  Uiso   1.00
C289   C     0.15390   0.96284   0.19843   0.00000  Uiso   1.00
C290   C     0.64492   0.76124   0.23716   0.00000  Uiso   1.00
C291   C     0.60828   0.64333   0.24906   0.00000  Uiso   1.00
C292   C     0.59285   0.63123   0.26952   0.00000  Uiso   1.00
C293   C     0.55910   0.51563   0.27758   0.00000  Uiso   1.00
C294   C     0.54270   0.72590   0.22172   0.00000  Uiso   1.00
C295   C     0.47214   0.78326   0.21918   0.00000  Uiso   1.00
C296   C     0.38319   0.73718   0.20423   0.00000  Uiso   1.00
C297   C     0.76151   0.78854   0.22559   0.00000  Uiso   1.00
C298   C     0.87492   0.89857   0.22629   0.00000  Uiso   1.00
C299   C     0.97019   0.90526   0.21458   0.00000  Uiso   1.00
H300   H     0.59870   0.49972   0.20580   0.00000  Uiso   1.00
H301   H     0.54325   0.35065   0.23586   0.00000  Uiso   1.00
H302   H     0.42258   0.50266   0.18554   0.00000  Uiso   1.00
H303   H     0.82529   0.61795   0.19264   0.00000  Uiso   1.00
H304   H     0.48952   0.22938   0.27447   0.00000  Uiso   1.00
H305   H     0.23509   0.54993   0.16835   0.00000  Uiso   1.00
H306   H     0.08430   0.79306   0.18333   0.00000  Uiso   1.00
H307   H     0.65866   0.83897   0.24648   0.00000  Uiso   1.00
H308   H     0.60651   0.70851   0.27878   0.00000  Uiso   1.00
H309   H     0.48582   0.86051   0.22845   0.00000  Uiso   1.00
H310   H     0.88854   0.97581   0.23555   0.00000  Uiso   1.00
H311   H     0.54085   0.51983   0.30930   0.00000  Uiso   1.00
H312   H     0.28642   0.84038   0.20318   0.00000  Uiso   1.00
H313   H     0.13563   0.08351   0.21816   0.00000  Uiso   1.00
O314   O     0.47976   0.28265   0.31240   0.00000  Uiso   1.00
O315   O     0.14597   0.70321   0.17317   0.00000  Uiso   1.00
O316   O     0.26011   0.02219   0.19283   0.00000  Uiso   1.00
N317   N     0.50878   0.31565   0.27824   0.00000  Uiso   1.00
N318   N     0.27089   0.61533   0.17902   0.00000  Uiso   1.00
N319   N     0.06482   0.84265   0.19303   0.00000  Uiso   1.00
N320   N     0.53641   0.47194   0.29698   0.00000  Uiso   1.00
N321   N     0.29851   0.77162   0.19776   0.00000  Uiso   1.00
N322   N     0.09244   0.99894   0.21177   0.00000  Uiso   1.00
C323   C     0.96500   0.38756   0.54845   0.00000  Uiso   1.00
C324   C     0.95285   0.40936   0.57043   0.00000  Uiso   1.00
C325   C     0.87097   0.44309   0.57846   0.00000  Uiso   1.00
C326   C     0.87419   0.45858   0.59892   0.00000  Uiso   1.00
C327   C     0.84287   0.49517   0.63122   0.00000  Uiso   1.00
C328   C     0.10102   0.47494   0.54309   0.00000  Uiso   1.00
C329   C     0.14371   0.56380   0.52813   0.00000  Uiso   1.00
C330   C     0.27166   0.63448   0.52557   0.00000  Uiso   1.00
C331   C     0.47035   0.77283   0.51541   0.00000  Uiso   1.00
C332   C     0.94484   0.25613   0.54695   0.00000  Uiso   1.00
C333   C     0.85625   0.16102   0.53524   0.00000  Uiso   1.00
C334   C     0.85273   0.04749   0.53592   0.00000  Uiso   1.00
C335   C     0.80895   0.84610   0.53176   0.00000  Uiso   1.00
C336   C     0.11632   0.35508   0.57049   0.00000  Uiso   1.00
C337   C     0.03504   0.39172   0.58240   0.00000  Uiso   1.00
C338   C     0.03839   0.40715   0.60285   0.00000  Uiso   1.00
C339   C     0.95653   0.44090   0.61091   0.00000  Uiso   1.00
C340   C     0.18320   0.45730   0.55506   0.00000  Uiso   1.00
C341   C     0.31112   0.52786   0.55252   0.00000  Uiso   1.00
C342   C     0.35399   0.61681   0.53756   0.00000  Uiso   1.00
C343   C     0.02703   0.23849   0.55892   0.00000  Uiso   1.00
C344   C     0.02366   0.12508   0.55962   0.00000  Uiso   1.00
C345   C     0.93507   0.02981   0.54792   0.00000  Uiso   1.00
H346   H     0.90102   0.40130   0.53913   0.00000  Uiso   1.00
H347   H     0.80739   0.45675   0.56920   0.00000  Uiso   1.00
H348   H     0.08008   0.57742   0.51887   0.00000  Uiso   1.00
H349   H     0.79266   0.17471   0.52598   0.00000  Uiso   1.00
H350   H     0.73986   0.51048   0.60780   0.00000  Uiso   1.00
H351   H     0.31484   0.76491   0.50168   0.00000  Uiso   1.00
H352   H     0.70876   0.91570   0.51667   0.00000  Uiso   1.00
H353   H     0.18031   0.34134   0.57981   0.00000  Uiso   1.00
H354   H     0.10200   0.39349   0.61211   0.00000  Uiso   1.00
H355   H     0.37469   0.51418   0.56178   0.00000  Uiso   1.00
H356   H     0.08727   0.11146   0.56889   0.00000  Uiso   1.00
H357   H     0.97898   0.45915   0.64263   0.00000  Uiso   1.00
H358   H     0.55396   0.71358   0.53651   0.00000  Uiso   1.00
H359   H     0.94788   0.86437   0.55150   0.00000  Uiso   1.00
O360   O     0.80290   0.52024   0.64573   0.00000  Uiso   1.00
O361   O     0.55724   0.85403   0.50650   0.00000  Uiso   1.00
O362   O     0.76208   0.73989   0.52616   0.00000  Uiso   1.00
N363   N     0.80687   0.49122   0.61157   0.00000  Uiso   1.00
N364   N     0.34444   0.72911   0.51236   0.00000  Uiso   1.00
N365   N     0.77783   0.93518   0.52636   0.00000  Uiso   1.00
N366   N     0.93553   0.46359   0.63031   0.00000  Uiso   1.00
N367   N     0.47311   0.70149   0.53110   0.00000  Uiso   1.00
N368   N     0.90650   0.90756   0.54510   0.00000  Uiso   1.00
C369   C     0.42256   0.03500   0.88179   0.00000  Uiso   1.00
C370   C     0.45651   0.04715   0.90376   0.00000  Uiso   1.00
C371   C     0.57211   0.12903   0.91180   0.00000  Uiso   1.00
C372   C     0.58438   0.12581   0.93225   0.00000  Uiso   1.00
C373   C     0.65230   0.15713   0.96455   0.00000  Uiso   1.00
C374   C     0.37393   0.89898   0.87642   0.00000  Uiso   1.00
C375   C     0.42009   0.85629   0.86147   0.00000  Uiso   1.00
C376   C     0.36283   0.72834   0.85890   0.00000  Uiso   1.00
C377   C     0.30248   0.52965   0.84875   0.00000  Uiso   1.00
C378   C     0.31129   0.05516   0.88028   0.00000  Uiso   1.00
C379   C     0.30477   0.14375   0.86857   0.00000  Uiso   1.00
C380   C     0.19476   0.14727   0.86926   0.00000  Uiso   1.00
C381   C     0.03716   0.19105   0.86509   0.00000  Uiso   1.00
C382   C     0.23876   0.88368   0.90383   0.00000  Uiso   1.00
C383   C     0.35667   0.96496   0.91573   0.00000  Uiso   1.00
C384   C     0.36877   0.96161   0.93618   0.00000  Uiso   1.00
C385   C     0.48437   0.04347   0.94425   0.00000  Uiso   1.00
C386   C     0.27410   0.81680   0.88839   0.00000  Uiso   1.00
C387   C     0.21674   0.68888   0.88585   0.00000  Uiso   1.00
C388   C     0.26282   0.64601   0.87090   0.00000  Uiso   1.00
C389   C     0.21146   0.97297   0.89225   0.00000  Uiso   1.00
C390   C     0.10143   0.97634   0.89296   0.00000  Uiso   1.00
C391   C     0.09474   0.06493   0.88125   0.00000  Uiso   1.00
H392   H     0.50028   0.09898   0.87247   0.00000  Uiso   1.00
H393   H     0.64935   0.19261   0.90253   0.00000  Uiso   1.00
H394   H     0.49734   0.91992   0.85220   0.00000  Uiso   1.00
H395   H     0.38205   0.20734   0.85931   0.00000  Uiso   1.00
H396   H     0.77062   0.26014   0.94114   0.00000  Uiso   1.00
H397   H     0.45007   0.68516   0.83502   0.00000  Uiso   1.00
H398   H     0.20694   0.29124   0.85000   0.00000  Uiso   1.00
H399   H     0.16103   0.81969   0.91315   0.00000  Uiso   1.00
H400   H     0.29149   0.89800   0.94544   0.00000  Uiso   1.00
H401   H     0.13949   0.62531   0.89512   0.00000  Uiso   1.00
H402   H     0.02419   0.91273   0.90222   0.00000  Uiso   1.00
H403   H     0.48017   0.02102   0.97597   0.00000  Uiso   1.00
H404   H     0.15962   0.44604   0.86985   0.00000  Uiso   1.00
H405   H     0.91649   0.05212   0.88483   0.00000  Uiso   1.00
O406   O     0.71735   0.19710   0.97906   0.00000  Uiso   1.00
O407   O     0.29679   0.44276   0.83984   0.00000  Uiso   1.00
O408   O     0.97781   0.23792   0.85949   0.00000  Uiso   1.00
N409   N     0.68435   0.19313   0.94490   0.00000  Uiso   1.00
N410   N     0.38467   0.65556   0.84569   0.00000  Uiso   1.00
N411   N     0.15735   0.22217   0.85969   0.00000  Uiso   1.00
N412   N     0.52806   0.06447   0.96364   0.00000  Uiso   1.00
N413   N     0.22838   0.52689   0.86443   0.00000  Uiso   1.00
N414   N     0.00106   0.09350   0.87843   0.00000  Uiso   1.00
C415   C     0.38756   0.42256   0.71512   0.00000  Uiso   1.00
C416   C     0.40936   0.45651   0.73709   0.00000  Uiso   1.00
C417   C     0.44309   0.57211   0.74513   0.00000  Uiso   1.00
C418   C     0.45858   0.58438   0.76559   0.00000  Uiso   1.00
C419   C     0.49517   0.65230   0.79789   0.00000  Uiso   1.00
C420   C     0.47494   0.37393   0.70975   0.00000  Uiso   1.00
C421   C     0.56380   0.42009   0.69480   0.00000  Uiso   1.00
C422   C     0.63448   0.36283   0.69224   0.00000  Uiso   1.00
C423   C     0.77283   0.30248   0.68208   0.00000  Uiso   1.00
C424   C     0.25613   0.31129   0.71361   0.00000  Uiso   1.00
C425   C     0.16102   0.30477   0.70190   0.00000  Uiso   1.00
C426   C     0.04749   0.19476   0.70259   0.00000  Uiso   1.00
C427   C     0.84610   0.03716   0.69843   0.00000  Uiso   1.00
C428   C     0.35508   0.23876   0.73716   0.00000  Uiso   1.00
C429   C     0.39172   0.35667   0.74906   0.00000  Uiso   1.00
C430   C     0.40715   0.36877   0.76952   0.00000  Uiso   1.00
C431   C     0.44090   0.48437   0.77758   0.00000  Uiso   1.00
C432   C     0.45730   0.27410   0.72172   0.00000  Uiso   1.00
C433   C     0.52786   0.21674   0.71918   0.00000  Uiso   1.00
C434   C     0.61681   0.26282   0.70423   0.00000  Uiso   1.00
C435   C     0.23849   0.21146   0.72559   0.00000  Uiso   1.00
C436   C     0.12508   0.10143   0.72629   0.00000  Uiso   1.00
C437   C     0.02981   0.09474   0.71458   0.00000  Uiso   1.00
H438   H     0.40130   0.50028   0.70580   0.00000  Uiso   1.00
H439   H     0.45675   0.64935   0.73586   0.00000  Uiso   1.00
H440   H     0.57742   0.49734   0.68554   0.00000  Uiso   1.00
H441   H     0.17471   0.38205   0.69264   0.00000  Uiso   1.00
H442   H     0.51048   0.77062   0.77447   0.00000  Uiso   1.00
H443   H     0.76491   0.45007   0.66835   0.00000  Uiso   1.00
H444   H     0.91570   0.20694   0.68333   0.00000  Uiso   1.00
H445   H     0.34134   0.16103   0.74648   0.00000  Uiso   1.00
H446   H     0.39349   0.29149   0.77878   0.00000  Uiso   1.00
H447   H     0.51418   0.13949   0.72845   0.00000  Uiso   1.00
H448   H     0.11146   0.02419   0.73555   0.00000  Uiso   1.00
H449   H     0.45915   0.48017   0.80930   0.00000  Uiso   1.00
H450   H     0.71358   0.15962   0.70318   0.00000  Uiso   1.00
H451   H     0.86437   0.91649   0.71816   0.00000  Uiso   1.00
O452   O     0.52024   0.71735   0.81240   0.00000  Uiso   1.00
O453   O     0.85403   0.29679   0.67317   0.00000  Uiso   1.00
O454   O     0.73989   0.97781   0.69283   0.00000  Uiso   1.00
N455   N     0.49122   0.68435   0.77824   0.00000  Uiso   1.00
N456   N     0.72911   0.38467   0.67902   0.00000  Uiso   1.00
N457   N     0.93518   0.15735   0.69303   0.00000  Uiso   1.00
N458   N     0.46359   0.52806   0.79698   0.00000  Uiso   1.00
N459   N     0.70149   0.22838   0.69776   0.00000  Uiso   1.00
N460   N     0.90756   0.00106   0.71177   0.00000  Uiso   1.00
C461   C     0.03500   0.61244   0.04845   0.00000  Uiso   1.00
C462   C     0.04715   0.59064   0.07043   0.00000  Uiso   1.00
C463   C     0.12903   0.55691   0.07846   0.00000  Uiso   1.00
C464   C     0.12581   0.54142   0.09892   0.00000  Uiso   1.00
C465   C     0.15713   0.50483   0.13122   0.00000  Uiso   1.00
C466   C     0.89898   0.52506   0.04309   0.00000  Uiso   1.00
C467   C     0.85629   0.43620   0.02813   0.00000  Uiso   1.00
C468   C     0.72834   0.36552   0.02557   0.00000  Uiso   1.00
C469   C     0.52965   0.22717   0.01541   0.00000  Uiso   1.00
C470   C     0.05516   0.74387   0.04695   0.00000  Uiso   1.00
C471   C     0.14375   0.83898   0.03524   0.00000  Uiso   1.00
C472   C     0.14727   0.95251   0.03592   0.00000  Uiso   1.00
C473   C     0.19105   0.15390   0.03176   0.00000  Uiso   1.00
C474   C     0.88368   0.64492   0.07049   0.00000  Uiso   1.00
C475   C     0.96496   0.60828   0.08240   0.00000  Uiso   1.00
C476   C     0.96161   0.59285   0.10285   0.00000  Uiso   1.00
C477   C     0.04347   0.55910   0.11091   0.00000  Uiso   1.00
C478   C     0.81680   0.54270   0.05506   0.00000  Uiso   1.00
C479   C     0.68888   0.47214   0.05252   0.00000  Uiso   1.00
C480   C     0.64601   0.38319   0.03756   0.00000  Uiso   1.00
C481   C     0.97297   0.76151   0.05892   0.00000  Uiso   1.00
C482   C     0.97634   0.87492   0.05962   0.00000  Uiso   1.00
C483   C     0.06493   0.97019   0.04792   0.00000  Uiso   1.00
H484   H     0.09898   0.59870   0.03913   0.00000  Uiso   1.00
H485   H     0.19261   0.54325   0.06920   0.00000  Uiso   1.00
H486   H     0.91992   0.42258   0.01887   0.00000  Uiso   1.00
H487   H     0.20734   0.82529   0.02598   0.00000  Uiso   1.00
H488   H     0.26014   0.48952   0.10780   0.00000  Uiso   1.00
H489   H     0.68516   0.23509   0.00168   0.00000  Uiso   1.00
H490   H     0.29124   0.08430   0.01667   0.00000  Uiso   1.00
H491   H     0.81969   0.65866   0.07981   0.00000  Uiso   1.00
H492   H     0.89800   0.60651   0.11211   0.00000  Uiso   1.00
H493   H     0.62531   0.48582   0.06178   0.00000  Uiso   1.00
H494   H     0.91273   0.88854   0.06889   0.00000  Uiso   1.00
H495   H     0.02102   0.54085   0.14263   0.00000  Uiso   1.00
H496   H     0.44604   0.28642   0.03651   0.00000  Uiso   1.00
H497   H     0.05212   0.13563   0.05150   0.00000  Uiso   1.00
O498   O     0.19710   0.47976   0.14573   0.00000  Uiso   1.00
O499   O     0.44276   0.14597   0.00650   0.00000  Uiso   1.00
O500   O     0.23792   0.26011   0.02616   0.00000  Uiso   1.00
N501   N     0.19313   0.50878   0.11157   0.00000  Uiso   1.00
N502   N     0.65556   0.27089   0.01236   0.00000  Uiso   1.00
N503   N     0.22217   0.06482   0.02636   0.00000  Uiso   1.00
N504   N     0.06447   0.53641   0.13031   0.00000  Uiso   1.00
N505   N     0.52689   0.29851   0.03110   0.00000  Uiso   1.00
N506   N     0.09350   0.09244   0.04510   0.00000  Uiso   1.00
C507   C     0.57744   0.96500   0.38179   0.00000  Uiso   1.00
C508   C     0.54349   0.95285   0.40376   0.00000  Uiso   1.00
C509   C     0.42789   0.87097   0.41180   0.00000  Uiso   1.00
C510   C     0.41562   0.87419   0.43225   0.00000  Uiso   1.00
C511   C     0.34770   0.84287   0.46455   0.00000  Uiso   1.00
C512   C     0.62607   0.10102   0.37642   0.00000  Uiso   1.00
C513   C     0.57991   0.14371   0.36147   0.00000  Uiso   1.00
C514   C     0.63717   0.27166   0.35890   0.00000  Uiso   1.00
C515   C     0.69752   0.47035   0.34875   0.00000  Uiso   1.00
C516   C     0.68871   0.94484   0.38028   0.00000  Uiso   1.00
C517   C     0.69523   0.85625   0.36857   0.00000  Uiso   1.00
C518   C     0.80524   0.85273   0.36926   0.00000  Uiso   1.00
C519   C     0.96284   0.80895   0.36509   0.00000  Uiso   1.00
C520   C     0.76124   0.11632   0.40383   0.00000  Uiso   1.00
C521   C     0.64333   0.03504   0.41573   0.00000  Uiso   1.00
C522   C     0.63123   0.03839   0.43618   0.00000  Uiso   1.00
C523   C     0.51563   0.95653   0.44425   0.00000  Uiso   1.00
C524   C     0.72590   0.18320   0.38839   0.00000  Uiso   1.00
C525   C     0.78326   0.31112   0.38585   0.00000  Uiso   1.00
C526   C     0.73718   0.35399   0.37090   0.00000  Uiso   1.00
C527   C     0.78854   0.02703   0.39225   0.00000  Uiso   1.00
C528   C     0.89857   0.02366   0.39296   0.00000  Uiso   1.00
C529   C     0.90526   0.93507   0.38125   0.00000  Uiso   1.00
H530   H     0.49972   0.90102   0.37247   0.00000  Uiso   1.00
H531   H     0.35065   0.80739   0.40253   0.00000  Uiso   1.00
H532   H     0.50266   0.08008   0.35220   0.00000  Uiso   1.00
H533   H     0.61795   0.79266   0.35931   0.00000  Uiso   1.00
H534   H     0.22938   0.73986   0.44114   0.00000  Uiso   1.00
H535   H     0.54993   0.31484   0.33502   0.00000  Uiso   1.00
H536   H     0.79306   0.70876   0.35000   0.00000  Uiso   1.00
H537   H     0.83897   0.18031   0.41315   0.00000  Uiso   1.00
H538   H     0.70851   0.10200   0.44544   0.00000  Uiso   1.00
H539   H     0.86051   0.37469   0.39512   0.00000  Uiso   1.00
H540   H     0.97581   0.08727   0.40222   0.00000  Uiso   1.00
H541   H     0.51983   0.97898   0.47597   0.00000  Uiso   1.00
H542   H     0.84038   0.55396   0.36985   0.00000  Uiso   1.00
H543   H     0.08351   0.94788   0.38483   0.00000  Uiso   1.00
O544   O     0.28265   0.80290   0.47906   0.00000  Uiso   1.00
O545   O     0.70321   0.55724   0.33984   0.00000  Uiso   1.00
O546   O     0.02219   0.76208   0.35949   0.00000  Uiso   1.00
N547   N     0.31565   0.80687   0.44490   0.00000  Uiso   1.00
N548   N     0.61533   0.34444   0.34569   0.00000  Uiso   1.00
N549   N     0.84265   0.77783   0.35969   0.00000  Uiso   1.00
N550   N     0.47194   0.93553   0.46364   0.00000  Uiso   1.00
N551   N     0.77162   0.47311   0.36443   0.00000  Uiso   1.00
N552   N     0.99894   0.90650   0.37843   0.00000  Uiso   1.00
