data_job_02344
_audit_creation_date              2018-12-19
_audit_creation_method            'Materials Studio'
_symmetry_space_group_name_H-M    'P1'
_symmetry_Int_Tables_number       1
_symmetry_cell_setting            triclinic
loop_
_symmetry_equiv_pos_as_xyz
  x,y,z
_cell_length_a                    12.5747
_cell_length_b                    25.8711
_cell_length_c                    14.3074
_cell_angle_alpha                 90.0000
_cell_angle_beta                  90.0000
_cell_angle_gamma                 90.0000
loop_
_atom_site_label
_atom_site_type_symbol
_atom_site_fract_x
_atom_site_fract_y
_atom_site_fract_z
_atom_site_U_iso_or_equiv
_atom_site_adp_type
_atom_site_occupancy
C1     C     0.25519   0.57363   0.49384   0.00000  Uiso   1.00
C2     C     0.27001   0.58637   0.39059   0.00000  Uiso   1.00
C3     C     0.25602   0.55224   0.31678   0.00000  Uiso   1.00
C4     C     0.27343   0.57138   0.22743   0.00000  Uiso   1.00
C5     C     0.29177   0.58336   0.06938   0.00000  Uiso   1.00
C6     C     0.17370   0.61221   0.53077   0.00000  Uiso   1.00
C7     C     0.07875   0.59980   0.57483   0.00000  Uiso   1.00
C8     C     0.01510   0.64069   0.60348   0.00000  Uiso   1.00
C9     C     0.88397   0.69277   0.66312   0.00000  Uiso   1.00
C10    C     0.36009   0.58719   0.54135   0.00000  Uiso   1.00
C11    C     0.42185   0.55375   0.59432   0.00000  Uiso   1.00
C12    C     0.51511   0.57358   0.63190   0.00000  Uiso   1.00
C13    C     0.67338   0.58682   0.70797   0.00000  Uiso   1.00
C14    C     0.31100   0.66832   0.46640   0.00000  Uiso   1.00
C15    C     0.30032   0.63781   0.37569   0.00000  Uiso   1.00
C16    C     0.31776   0.65700   0.28643   0.00000  Uiso   1.00
C17    C     0.30380   0.62290   0.21250   0.00000  Uiso   1.00
C18    C     0.20401   0.66364   0.51587   0.00000  Uiso   1.00
C19    C     0.14050   0.70456   0.54447   0.00000  Uiso   1.00
C20    C     0.04547   0.69221   0.58855   0.00000  Uiso   1.00
C21    C     0.39041   0.63862   0.52644   0.00000  Uiso   1.00
C22    C     0.48359   0.65851   0.56396   0.00000  Uiso   1.00
C23    C     0.54548   0.62511   0.61697   0.00000  Uiso   1.00
H24    H     0.23158   0.53359   0.50544   0.00000  Uiso   1.00
H25    H     0.23255   0.51244   0.32835   0.00000  Uiso   1.00
H26    H     0.05532   0.55999   0.58636   0.00000  Uiso   1.00
H27    H     0.39836   0.51395   0.60584   0.00000  Uiso   1.00
H28    H     0.24695   0.51169   0.12543   0.00000  Uiso   1.00
H29    H     0.87326   0.61195   0.66948   0.00000  Uiso   1.00
H30    H     0.59664   0.51486   0.71058   0.00000  Uiso   1.00
H31    H     0.33460   0.70836   0.45480   0.00000  Uiso   1.00
H32    H     0.34122   0.69681   0.27491   0.00000  Uiso   1.00
H33    H     0.16398   0.74435   0.53293   0.00000  Uiso   1.00
H34    H     0.50703   0.69831   0.55241   0.00000  Uiso   1.00
H35    H     0.33514   0.66132   0.08206   0.00000  Uiso   1.00
H36    H     0.96146   0.76158   0.62612   0.00000  Uiso   1.00
H37    H     0.68483   0.66450   0.66721   0.00000  Uiso   1.00
O38    O     0.29350   0.57576   0.98632   0.00000  Uiso   1.00
O39    O     0.80326   0.70729   0.70012   0.00000  Uiso   1.00
O40    O     0.75231   0.57992   0.75403   0.00000  Uiso   1.00
N41    N     0.26682   0.54849   0.13991   0.00000  Uiso   1.00
N42    N     0.91744   0.64222   0.64856   0.00000  Uiso   1.00
N43    N     0.59371   0.55146   0.68699   0.00000  Uiso   1.00
N44    N     0.31427   0.62900   0.11657   0.00000  Uiso   1.00
N45    N     0.96489   0.72274   0.62522   0.00000  Uiso   1.00
N46    N     0.64117   0.63198   0.66366   0.00000  Uiso   1.00
C47    C     0.24481   0.42637   0.99384   0.00000  Uiso   1.00
C48    C     0.22999   0.41363   0.89059   0.00000  Uiso   1.00
C49    C     0.24398   0.44776   0.81678   0.00000  Uiso   1.00
C50    C     0.22657   0.42862   0.72743   0.00000  Uiso   1.00
C51    C     0.20823   0.41664   0.56938   0.00000  Uiso   1.00
C52    C     0.32630   0.38779   0.03077   0.00000  Uiso   1.00
C53    C     0.42125   0.40020   0.07483   0.00000  Uiso   1.00
C54    C     0.48490   0.35931   0.10348   0.00000  Uiso   1.00
C55    C     0.61603   0.30723   0.16312   0.00000  Uiso   1.00
C56    C     0.13991   0.41281   0.04135   0.00000  Uiso   1.00
C57    C     0.07815   0.44625   0.09432   0.00000  Uiso   1.00
C58    C     0.98489   0.42642   0.13190   0.00000  Uiso   1.00
C59    C     0.82662   0.41318   0.20797   0.00000  Uiso   1.00
C60    C     0.18900   0.33168   0.96640   0.00000  Uiso   1.00
C61    C     0.19968   0.36219   0.87569   0.00000  Uiso   1.00
C62    C     0.18224   0.34300   0.78643   0.00000  Uiso   1.00
C63    C     0.19620   0.37710   0.71250   0.00000  Uiso   1.00
C64    C     0.29599   0.33636   0.01587   0.00000  Uiso   1.00
C65    C     0.35950   0.29544   0.04447   0.00000  Uiso   1.00
C66    C     0.45453   0.30779   0.08855   0.00000  Uiso   1.00
C67    C     0.10959   0.36138   0.02644   0.00000  Uiso   1.00
C68    C     0.01641   0.34149   0.06396   0.00000  Uiso   1.00
C69    C     0.95452   0.37489   0.11697   0.00000  Uiso   1.00
H70    H     0.26842   0.46641   0.00544   0.00000  Uiso   1.00
H71    H     0.26745   0.48756   0.82835   0.00000  Uiso   1.00
H72    H     0.44468   0.44001   0.08636   0.00000  Uiso   1.00
H73    H     0.10164   0.48605   0.10584   0.00000  Uiso   1.00
H74    H     0.25305   0.48831   0.62543   0.00000  Uiso   1.00
H75    H     0.62674   0.38805   0.16948   0.00000  Uiso   1.00
H76    H     0.90336   0.48514   0.21058   0.00000  Uiso   1.00
H77    H     0.16540   0.29164   0.95480   0.00000  Uiso   1.00
H78    H     0.15878   0.30319   0.77491   0.00000  Uiso   1.00
H79    H     0.33602   0.25565   0.03293   0.00000  Uiso   1.00
H80    H     0.99297   0.30169   0.05241   0.00000  Uiso   1.00
H81    H     0.16486   0.33868   0.58206   0.00000  Uiso   1.00
H82    H     0.53854   0.23842   0.12612   0.00000  Uiso   1.00
H83    H     0.81517   0.33550   0.16721   0.00000  Uiso   1.00
O84    O     0.20650   0.42424   0.48632   0.00000  Uiso   1.00
O85    O     0.69674   0.29271   0.20012   0.00000  Uiso   1.00
O86    O     0.74769   0.42008   0.25403   0.00000  Uiso   1.00
N87    N     0.23318   0.45151   0.63991   0.00000  Uiso   1.00
N88    N     0.58256   0.35778   0.14856   0.00000  Uiso   1.00
N89    N     0.90629   0.44854   0.18699   0.00000  Uiso   1.00
N90    N     0.18573   0.37100   0.61657   0.00000  Uiso   1.00
N91    N     0.53511   0.27726   0.12522   0.00000  Uiso   1.00
N92    N     0.85883   0.36802   0.16366   0.00000  Uiso   1.00
C93    C     0.74481   0.07363   0.00616   0.00000  Uiso   1.00
C94    C     0.72999   0.08637   0.10941   0.00000  Uiso   1.00
C95    C     0.74398   0.05224   0.18322   0.00000  Uiso   1.00
C96    C     0.72657   0.07138   0.27257   0.00000  Uiso   1.00
C97    C     0.70823   0.08336   0.43062   0.00000  Uiso   1.00
C98    C     0.82630   0.11221   0.96923   0.00000  Uiso   1.00
C99    C     0.92125   0.09980   0.92517   0.00000  Uiso   1.00
C100   C     0.98490   0.14069   0.89652   0.00000  Uiso   1.00
C101   C     0.11603   0.19277   0.83688   0.00000  Uiso   1.00
C102   C     0.63991   0.08719   0.95865   0.00000  Uiso   1.00
C103   C     0.57815   0.05375   0.90568   0.00000  Uiso   1.00
C104   C     0.48489   0.07358   0.86810   0.00000  Uiso   1.00
C105   C     0.32662   0.08682   0.79203   0.00000  Uiso   1.00
C106   C     0.68900   0.16832   0.03360   0.00000  Uiso   1.00
C107   C     0.69968   0.13781   0.12431   0.00000  Uiso   1.00
C108   C     0.68224   0.15700   0.21357   0.00000  Uiso   1.00
C109   C     0.69620   0.12290   0.28750   0.00000  Uiso   1.00
C110   C     0.79599   0.16364   0.98413   0.00000  Uiso   1.00
C111   C     0.85950   0.20456   0.95553   0.00000  Uiso   1.00
C112   C     0.95453   0.19221   0.91145   0.00000  Uiso   1.00
C113   C     0.60959   0.13862   0.97356   0.00000  Uiso   1.00
C114   C     0.51641   0.15851   0.93604   0.00000  Uiso   1.00
C115   C     0.45452   0.12511   0.88303   0.00000  Uiso   1.00
H116   H     0.76842   0.03359   0.99456   0.00000  Uiso   1.00
H117   H     0.76745   0.01244   0.17165   0.00000  Uiso   1.00
H118   H     0.94468   0.05999   0.91364   0.00000  Uiso   1.00
H119   H     0.60164   0.01395   0.89416   0.00000  Uiso   1.00
H120   H     0.75305   0.01169   0.37457   0.00000  Uiso   1.00
H121   H     0.12674   0.11195   0.83052   0.00000  Uiso   1.00
H122   H     0.40336   0.01486   0.78942   0.00000  Uiso   1.00
H123   H     0.66540   0.20836   0.04520   0.00000  Uiso   1.00
H124   H     0.65878   0.19681   0.22509   0.00000  Uiso   1.00
H125   H     0.83602   0.24435   0.96707   0.00000  Uiso   1.00
H126   H     0.49297   0.19831   0.94759   0.00000  Uiso   1.00
H127   H     0.66486   0.16132   0.41794   0.00000  Uiso   1.00
H128   H     0.03854   0.26158   0.87388   0.00000  Uiso   1.00
H129   H     0.31517   0.16450   0.83279   0.00000  Uiso   1.00
O130   O     0.70650   0.07576   0.51368   0.00000  Uiso   1.00
O131   O     0.19674   0.20729   0.79988   0.00000  Uiso   1.00
O132   O     0.24769   0.07992   0.74597   0.00000  Uiso   1.00
N133   N     0.73318   0.04849   0.36009   0.00000  Uiso   1.00
N134   N     0.08256   0.14222   0.85144   0.00000  Uiso   1.00
N135   N     0.40629   0.05146   0.81301   0.00000  Uiso   1.00
N136   N     0.68573   0.12900   0.38343   0.00000  Uiso   1.00
N137   N     0.03511   0.22274   0.87478   0.00000  Uiso   1.00
N138   N     0.35883   0.13198   0.83634   0.00000  Uiso   1.00
C139   C     0.75519   0.92637   0.50616   0.00000  Uiso   1.00
C140   C     0.77001   0.91363   0.60941   0.00000  Uiso   1.00
C141   C     0.75602   0.94776   0.68322   0.00000  Uiso   1.00
C142   C     0.77343   0.92862   0.77257   0.00000  Uiso   1.00
C143   C     0.79177   0.91664   0.93062   0.00000  Uiso   1.00
C144   C     0.67370   0.88779   0.46923   0.00000  Uiso   1.00
C145   C     0.57875   0.90020   0.42517   0.00000  Uiso   1.00
C146   C     0.51510   0.85931   0.39652   0.00000  Uiso   1.00
C147   C     0.38397   0.80723   0.33688   0.00000  Uiso   1.00
C148   C     0.86009   0.91281   0.45865   0.00000  Uiso   1.00
C149   C     0.92185   0.94625   0.40568   0.00000  Uiso   1.00
C150   C     0.01511   0.92642   0.36810   0.00000  Uiso   1.00
C151   C     0.17338   0.91318   0.29203   0.00000  Uiso   1.00
C152   C     0.81100   0.83168   0.53360   0.00000  Uiso   1.00
C153   C     0.80032   0.86219   0.62431   0.00000  Uiso   1.00
C154   C     0.81776   0.84300   0.71357   0.00000  Uiso   1.00
C155   C     0.80380   0.87710   0.78750   0.00000  Uiso   1.00
C156   C     0.70401   0.83636   0.48413   0.00000  Uiso   1.00
C157   C     0.64050   0.79544   0.45553   0.00000  Uiso   1.00
C158   C     0.54547   0.80779   0.41145   0.00000  Uiso   1.00
C159   C     0.89041   0.86138   0.47356   0.00000  Uiso   1.00
C160   C     0.98359   0.84149   0.43604   0.00000  Uiso   1.00
C161   C     0.04548   0.87489   0.38303   0.00000  Uiso   1.00
H162   H     0.73158   0.96641   0.49456   0.00000  Uiso   1.00
H163   H     0.73255   0.98756   0.67165   0.00000  Uiso   1.00
H164   H     0.55532   0.94001   0.41364   0.00000  Uiso   1.00
H165   H     0.89836   0.98605   0.39416   0.00000  Uiso   1.00
H166   H     0.74695   0.98831   0.87457   0.00000  Uiso   1.00
H167   H     0.37326   0.88805   0.33052   0.00000  Uiso   1.00
H168   H     0.09664   0.98514   0.28942   0.00000  Uiso   1.00
H169   H     0.83460   0.79164   0.54520   0.00000  Uiso   1.00
H170   H     0.84122   0.80319   0.72509   0.00000  Uiso   1.00
H171   H     0.66398   0.75565   0.46707   0.00000  Uiso   1.00
H172   H     0.00703   0.80169   0.44759   0.00000  Uiso   1.00
H173   H     0.83514   0.83868   0.91794   0.00000  Uiso   1.00
H174   H     0.46146   0.73842   0.37388   0.00000  Uiso   1.00
H175   H     0.18483   0.83550   0.33279   0.00000  Uiso   1.00
O176   O     0.79350   0.92424   0.01368   0.00000  Uiso   1.00
O177   O     0.30326   0.79271   0.29988   0.00000  Uiso   1.00
O178   O     0.25231   0.92008   0.24597   0.00000  Uiso   1.00
N179   N     0.76682   0.95151   0.86009   0.00000  Uiso   1.00
N180   N     0.41744   0.85778   0.35144   0.00000  Uiso   1.00
N181   N     0.09371   0.94854   0.31301   0.00000  Uiso   1.00
N182   N     0.81427   0.87100   0.88343   0.00000  Uiso   1.00
N183   N     0.46489   0.77726   0.37478   0.00000  Uiso   1.00
N184   N     0.14117   0.86802   0.33634   0.00000  Uiso   1.00
C185   C     0.74481   0.42637   0.50616   0.00000  Uiso   1.00
C186   C     0.72999   0.41363   0.60941   0.00000  Uiso   1.00
C187   C     0.74398   0.44776   0.68322   0.00000  Uiso   1.00
C188   C     0.72657   0.42862   0.77257   0.00000  Uiso   1.00
C189   C     0.70823   0.41664   0.93062   0.00000  Uiso   1.00
C190   C     0.82630   0.38779   0.46923   0.00000  Uiso   1.00
C191   C     0.92125   0.40020   0.42517   0.00000  Uiso   1.00
C192   C     0.98490   0.35931   0.39652   0.00000  Uiso   1.00
C193   C     0.11603   0.30723   0.33688   0.00000  Uiso   1.00
C194   C     0.63991   0.41281   0.45865   0.00000  Uiso   1.00
C195   C     0.57815   0.44625   0.40568   0.00000  Uiso   1.00
C196   C     0.48489   0.42642   0.36810   0.00000  Uiso   1.00
C197   C     0.32662   0.41318   0.29203   0.00000  Uiso   1.00
C198   C     0.68900   0.33168   0.53360   0.00000  Uiso   1.00
C199   C     0.69968   0.36219   0.62431   0.00000  Uiso   1.00
C200   C     0.68224   0.34300   0.71357   0.00000  Uiso   1.00
C201   C     0.69620   0.37710   0.78750   0.00000  Uiso   1.00
C202   C     0.79599   0.33636   0.48413   0.00000  Uiso   1.00
C203   C     0.85950   0.29544   0.45553   0.00000  Uiso   1.00
C204   C     0.95453   0.30779   0.41145   0.00000  Uiso   1.00
C205   C     0.60959   0.36138   0.47356   0.00000  Uiso   1.00
C206   C     0.51641   0.34149   0.43604   0.00000  Uiso   1.00
C207   C     0.45452   0.37489   0.38303   0.00000  Uiso   1.00
H208   H     0.76842   0.46641   0.49456   0.00000  Uiso   1.00
H209   H     0.76745   0.48756   0.67165   0.00000  Uiso   1.00
H210   H     0.94468   0.44001   0.41364   0.00000  Uiso   1.00
H211   H     0.60164   0.48605   0.39416   0.00000  Uiso   1.00
H212   H     0.75305   0.48831   0.87457   0.00000  Uiso   1.00
H213   H     0.12674   0.38805   0.33052   0.00000  Uiso   1.00
H214   H     0.40336   0.48514   0.28942   0.00000  Uiso   1.00
H215   H     0.66540   0.29164   0.54520   0.00000  Uiso   1.00
H216   H     0.65878   0.30319   0.72509   0.00000  Uiso   1.00
H217   H     0.83602   0.25565   0.46707   0.00000  Uiso   1.00
H218   H     0.49297   0.30169   0.44759   0.00000  Uiso   1.00
H219   H     0.66486   0.33868   0.91794   0.00000  Uiso   1.00
H220   H     0.03854   0.23842   0.37388   0.00000  Uiso   1.00
H221   H     0.31517   0.33550   0.33279   0.00000  Uiso   1.00
O222   O     0.70650   0.42424   0.01368   0.00000  Uiso   1.00
O223   O     0.19674   0.29271   0.29988   0.00000  Uiso   1.00
O224   O     0.24769   0.42008   0.24597   0.00000  Uiso   1.00
N225   N     0.73318   0.45151   0.86009   0.00000  Uiso   1.00
N226   N     0.08256   0.35778   0.35144   0.00000  Uiso   1.00
N227   N     0.40629   0.44854   0.31301   0.00000  Uiso   1.00
N228   N     0.68573   0.37100   0.88343   0.00000  Uiso   1.00
N229   N     0.03511   0.27726   0.37478   0.00000  Uiso   1.00
N230   N     0.35883   0.36802   0.33634   0.00000  Uiso   1.00
C231   C     0.75519   0.57363   0.00616   0.00000  Uiso   1.00
C232   C     0.77001   0.58637   0.10941   0.00000  Uiso   1.00
C233   C     0.75602   0.55224   0.18322   0.00000  Uiso   1.00
C234   C     0.77343   0.57138   0.27257   0.00000  Uiso   1.00
C235   C     0.79177   0.58336   0.43062   0.00000  Uiso   1.00
C236   C     0.67370   0.61221   0.96923   0.00000  Uiso   1.00
C237   C     0.57875   0.59980   0.92517   0.00000  Uiso   1.00
C238   C     0.51510   0.64069   0.89652   0.00000  Uiso   1.00
C239   C     0.38397   0.69277   0.83688   0.00000  Uiso   1.00
C240   C     0.86009   0.58719   0.95865   0.00000  Uiso   1.00
C241   C     0.92185   0.55375   0.90568   0.00000  Uiso   1.00
C242   C     0.01511   0.57358   0.86810   0.00000  Uiso   1.00
C243   C     0.17338   0.58682   0.79203   0.00000  Uiso   1.00
C244   C     0.81100   0.66832   0.03360   0.00000  Uiso   1.00
C245   C     0.80032   0.63781   0.12431   0.00000  Uiso   1.00
C246   C     0.81776   0.65700   0.21357   0.00000  Uiso   1.00
C247   C     0.80380   0.62290   0.28750   0.00000  Uiso   1.00
C248   C     0.70401   0.66364   0.98413   0.00000  Uiso   1.00
C249   C     0.64050   0.70456   0.95553   0.00000  Uiso   1.00
C250   C     0.54547   0.69221   0.91145   0.00000  Uiso   1.00
C251   C     0.89041   0.63862   0.97356   0.00000  Uiso   1.00
C252   C     0.98359   0.65851   0.93604   0.00000  Uiso   1.00
C253   C     0.04548   0.62511   0.88303   0.00000  Uiso   1.00
H254   H     0.73158   0.53359   0.99456   0.00000  Uiso   1.00
H255   H     0.73255   0.51244   0.17165   0.00000  Uiso   1.00
H256   H     0.55532   0.55999   0.91364   0.00000  Uiso   1.00
H257   H     0.89836   0.51395   0.89416   0.00000  Uiso   1.00
H258   H     0.74695   0.51169   0.37457   0.00000  Uiso   1.00
H259   H     0.37326   0.61195   0.83052   0.00000  Uiso   1.00
H260   H     0.09664   0.51486   0.78942   0.00000  Uiso   1.00
H261   H     0.83460   0.70836   0.04520   0.00000  Uiso   1.00
H262   H     0.84122   0.69681   0.22509   0.00000  Uiso   1.00
H263   H     0.66398   0.74435   0.96707   0.00000  Uiso   1.00
H264   H     0.00703   0.69831   0.94759   0.00000  Uiso   1.00
H265   H     0.83514   0.66132   0.41794   0.00000  Uiso   1.00
H266   H     0.46146   0.76158   0.87388   0.00000  Uiso   1.00
H267   H     0.18483   0.66450   0.83279   0.00000  Uiso   1.00
O268   O     0.79350   0.57576   0.51368   0.00000  Uiso   1.00
O269   O     0.30326   0.70729   0.79988   0.00000  Uiso   1.00
O270   O     0.25231   0.57992   0.74597   0.00000  Uiso   1.00
N271   N     0.76682   0.54849   0.36009   0.00000  Uiso   1.00
N272   N     0.41744   0.64222   0.85144   0.00000  Uiso   1.00
N273   N     0.09371   0.55146   0.81301   0.00000  Uiso   1.00
N274   N     0.81427   0.62900   0.38343   0.00000  Uiso   1.00
N275   N     0.46489   0.72274   0.87478   0.00000  Uiso   1.00
N276   N     0.14117   0.63198   0.83634   0.00000  Uiso   1.00
C277   C     0.25519   0.92637   0.99384   0.00000  Uiso   1.00
C278   C     0.27001   0.91363   0.89059   0.00000  Uiso   1.00
C279   C     0.25602   0.94776   0.81678   0.00000  Uiso   1.00
C280   C     0.27343   0.92862   0.72743   0.00000  Uiso   1.00
C281   C     0.29177   0.91664   0.56938   0.00000  Uiso   1.00
C282   C     0.17370   0.88779   0.03077   0.00000  Uiso   1.00
C283   C     0.07875   0.90020   0.07483   0.00000  Uiso   1.00
C284   C     0.01510   0.85931   0.10348   0.00000  Uiso   1.00
C285   C     0.88397   0.80723   0.16312   0.00000  Uiso   1.00
C286   C     0.36009   0.91281   0.04135   0.00000  Uiso   1.00
C287   C     0.42185   0.94625   0.09432   0.00000  Uiso   1.00
C288   C     0.51511   0.92642   0.13190   0.00000  Uiso   1.00
C289   C     0.67338   0.91318   0.20797   0.00000  Uiso   1.00
C290   C     0.31100   0.83168   0.96640   0.00000  Uiso   1.00
C291   C     0.30032   0.86219   0.87569   0.00000  Uiso   1.00
C292   C     0.31776   0.84300   0.78643   0.00000  Uiso   1.00
C293   C     0.30380   0.87710   0.71250   0.00000  Uiso   1.00
C294   C     0.20401   0.83636   0.01587   0.00000  Uiso   1.00
C295   C     0.14050   0.79544   0.04447   0.00000  Uiso   1.00
C296   C     0.04547   0.80779   0.08855   0.00000  Uiso   1.00
C297   C     0.39041   0.86138   0.02644   0.00000  Uiso   1.00
C298   C     0.48359   0.84149   0.06396   0.00000  Uiso   1.00
C299   C     0.54548   0.87489   0.11697   0.00000  Uiso   1.00
H300   H     0.23158   0.96641   0.00544   0.00000  Uiso   1.00
H301   H     0.23255   0.98756   0.82835   0.00000  Uiso   1.00
H302   H     0.05532   0.94001   0.08636   0.00000  Uiso   1.00
H303   H     0.39836   0.98605   0.10584   0.00000  Uiso   1.00
H304   H     0.24695   0.98831   0.62543   0.00000  Uiso   1.00
H305   H     0.87326   0.88805   0.16948   0.00000  Uiso   1.00
H306   H     0.59664   0.98514   0.21058   0.00000  Uiso   1.00
H307   H     0.33460   0.79164   0.95480   0.00000  Uiso   1.00
H308   H     0.34122   0.80319   0.77491   0.00000  Uiso   1.00
H309   H     0.16398   0.75565   0.03293   0.00000  Uiso   1.00
H310   H     0.50703   0.80169   0.05241   0.00000  Uiso   1.00
H311   H     0.33514   0.83868   0.58206   0.00000  Uiso   1.00
H312   H     0.96146   0.73842   0.12612   0.00000  Uiso   1.00
H313   H     0.68483   0.83550   0.16721   0.00000  Uiso   1.00
O314   O     0.29350   0.92424   0.48632   0.00000  Uiso   1.00
O315   O     0.80326   0.79271   0.20012   0.00000  Uiso   1.00
O316   O     0.75231   0.92008   0.25403   0.00000  Uiso   1.00
N317   N     0.26682   0.95151   0.63991   0.00000  Uiso   1.00
N318   N     0.91744   0.85778   0.14856   0.00000  Uiso   1.00
N319   N     0.59371   0.94854   0.18699   0.00000  Uiso   1.00
N320   N     0.31427   0.87100   0.61657   0.00000  Uiso   1.00
N321   N     0.96489   0.77726   0.12522   0.00000  Uiso   1.00
N322   N     0.64117   0.86802   0.16366   0.00000  Uiso   1.00
C323   C     0.24481   0.07363   0.49384   0.00000  Uiso   1.00
C324   C     0.22999   0.08637   0.39059   0.00000  Uiso   1.00
C325   C     0.24398   0.05224   0.31678   0.00000  Uiso   1.00
C326   C     0.22657   0.07138   0.22743   0.00000  Uiso   1.00
C327   C     0.20823   0.08336   0.06938   0.00000  Uiso   1.00
C328   C     0.32630   0.11221   0.53077   0.00000  Uiso   1.00
C329   C     0.42125   0.09980   0.57483   0.00000  Uiso   1.00
C330   C     0.48490   0.14069   0.60348   0.00000  Uiso   1.00
C331   C     0.61603   0.19277   0.66312   0.00000  Uiso   1.00
C332   C     0.13991   0.08719   0.54135   0.00000  Uiso   1.00
C333   C     0.07815   0.05375   0.59432   0.00000  Uiso   1.00
C334   C     0.98489   0.07358   0.63190   0.00000  Uiso   1.00
C335   C     0.82662   0.08682   0.70797   0.00000  Uiso   1.00
C336   C     0.18900   0.16832   0.46640   0.00000  Uiso   1.00
C337   C     0.19968   0.13781   0.37569   0.00000  Uiso   1.00
C338   C     0.18224   0.15700   0.28643   0.00000  Uiso   1.00
C339   C     0.19620   0.12290   0.21250   0.00000  Uiso   1.00
C340   C     0.29599   0.16364   0.51587   0.00000  Uiso   1.00
C341   C     0.35950   0.20456   0.54447   0.00000  Uiso   1.00
C342   C     0.45453   0.19221   0.58855   0.00000  Uiso   1.00
C343   C     0.10959   0.13862   0.52644   0.00000  Uiso   1.00
C344   C     0.01641   0.15851   0.56396   0.00000  Uiso   1.00
C345   C     0.95452   0.12511   0.61697   0.00000  Uiso   1.00
H346   H     0.26842   0.03359   0.50544   0.00000  Uiso   1.00
H347   H     0.26745   0.01244   0.32835   0.00000  Uiso   1.00
H348   H     0.44468   0.05999   0.58636   0.00000  Uiso   1.00
H349   H     0.10164   0.01395   0.60584   0.00000  Uiso   1.00
H350   H     0.25305   0.01169   0.12543   0.00000  Uiso   1.00
H351   H     0.62674   0.11195   0.66948   0.00000  Uiso   1.00
H352   H     0.90336   0.01486   0.71058   0.00000  Uiso   1.00
H353   H     0.16540   0.20836   0.45480   0.00000  Uiso   1.00
H354   H     0.15878   0.19681   0.27491   0.00000  Uiso   1.00
H355   H     0.33602   0.24435   0.53293   0.00000  Uiso   1.00
H356   H     0.99297   0.19831   0.55241   0.00000  Uiso   1.00
H357   H     0.16486   0.16132   0.08206   0.00000  Uiso   1.00
H358   H     0.53854   0.26158   0.62612   0.00000  Uiso   1.00
H359   H     0.81517   0.16450   0.66721   0.00000  Uiso   1.00
O360   O     0.20650   0.07576   0.98632   0.00000  Uiso   1.00
O361   O     0.69674   0.20729   0.70012   0.00000  Uiso   1.00
O362   O     0.74769   0.07992   0.75403   0.00000  Uiso   1.00
N363   N     0.23318   0.04849   0.13991   0.00000  Uiso   1.00
N364   N     0.58256   0.14222   0.64856   0.00000  Uiso   1.00
N365   N     0.90629   0.05146   0.68699   0.00000  Uiso   1.00
N366   N     0.18573   0.12900   0.11657   0.00000  Uiso   1.00
N367   N     0.53511   0.22274   0.62522   0.00000  Uiso   1.00
N368   N     0.85883   0.13198   0.66366   0.00000  Uiso   1.00
