data_job_04196
_audit_creation_date              2018-12-19
_audit_creation_method            'Materials Studio'
_symmetry_space_group_name_H-M    'P1'
_symmetry_Int_Tables_number       1
_symmetry_cell_setting            triclinic
loop_
_symmetry_equiv_pos_as_xyz
  x,y,z
_cell_length_a                    26.6260
_cell_length_b                    21.2879
_cell_length_c                    12.3230
_cell_angle_alpha                 90.0000
_cell_angle_beta                  66.6791
_cell_angle_gamma                 90.0000
loop_
_atom_site_label
_atom_site_type_symbol
_atom_site_fract_x
_atom_site_fract_y
_atom_site_fract_z
_atom_site_U_iso_or_equiv
_atom_site_adp_type
_atom_site_occupancy
C1     C     0.37075   0.61015   0.67750   0.00000  Uiso   1.00
C2     C     0.43167   0.61995   0.60497   0.00000  Uiso   1.00
C3     C     0.47212   0.57473   0.58213   0.00000  Uiso   1.00
C4     C     0.52543   0.59300   0.51393   0.00000  Uiso   1.00
C5     C     0.61814   0.59890   0.40801   0.00000  Uiso   1.00
C6     C     0.35424   0.65940   0.77531   0.00000  Uiso   1.00
C7     C     0.32958   0.64734   0.89568   0.00000  Uiso   1.00
C8     C     0.31770   0.69883   0.97087   0.00000  Uiso   1.00
C9     C     0.29017   0.76597   0.12940   0.00000  Uiso   1.00
C10    C     0.34193   0.62846   0.59708   0.00000  Uiso   1.00
C11    C     0.30691   0.59039   0.56762   0.00000  Uiso   1.00
C12    C     0.28465   0.61583   0.49278   0.00000  Uiso   1.00
C13    C     0.23800   0.63493   0.37458   0.00000  Uiso   1.00
C14    C     0.39349   0.72302   0.59701   0.00000  Uiso   1.00
C15    C     0.44402   0.68126   0.56126   0.00000  Uiso   1.00
C16    C     0.49728   0.69960   0.49307   0.00000  Uiso   1.00
C17    C     0.53780   0.65442   0.47013   0.00000  Uiso   1.00
C18    C     0.36659   0.72070   0.73159   0.00000  Uiso   1.00
C19    C     0.35474   0.77222   0.80663   0.00000  Uiso   1.00
C20    C     0.33007   0.76024   0.92708   0.00000  Uiso   1.00
C21    C     0.35428   0.68976   0.55336   0.00000  Uiso   1.00
C22    C     0.33207   0.71527   0.47856   0.00000  Uiso   1.00
C23    C     0.29702   0.67725   0.44898   0.00000  Uiso   1.00
H24    H     0.36114   0.56243   0.71155   0.00000  Uiso   1.00
H25    H     0.46255   0.52729   0.61599   0.00000  Uiso   1.00
H26    H     0.32003   0.59990   0.92949   0.00000  Uiso   1.00
H27    H     0.29736   0.54296   0.60147   0.00000  Uiso   1.00
H28    H     0.58043   0.51538   0.49080   0.00000  Uiso   1.00
H29    H     0.27990   0.66848   0.15183   0.00000  Uiso   1.00
H30    H     0.23210   0.54840   0.46014   0.00000  Uiso   1.00
H31    H     0.40310   0.77075   0.56298   0.00000  Uiso   1.00
H32    H     0.50682   0.74705   0.45925   0.00000  Uiso   1.00
H33    H     0.36430   0.81965   0.77276   0.00000  Uiso   1.00
H34    H     0.34163   0.76271   0.44474   0.00000  Uiso   1.00
H35    H     0.61637   0.69374   0.36359   0.00000  Uiso   1.00
H36    H     0.31583   0.84684   0.02463   0.00000  Uiso   1.00
H37    H     0.26803   0.72676   0.33294   0.00000  Uiso   1.00
O38    O     0.66587   0.58522   0.36168   0.00000  Uiso   1.00
O39    O     0.27157   0.78607   0.22892   0.00000  Uiso   1.00
O40    O     0.20886   0.62853   0.32144   0.00000  Uiso   1.00
N41    N     0.57466   0.56061   0.47507   0.00000  Uiso   1.00
N42    N     0.29368   0.70374   0.09310   0.00000  Uiso   1.00
N43    N     0.24898   0.59149   0.44646   0.00000  Uiso   1.00
N44    N     0.59399   0.65658   0.40662   0.00000  Uiso   1.00
N45    N     0.31301   0.79972   0.02465   0.00000  Uiso   1.00
N46    N     0.26831   0.68746   0.37801   0.00000  Uiso   1.00
C47    C     0.87075   0.11015   0.67750   0.00000  Uiso   1.00
C48    C     0.93167   0.11995   0.60497   0.00000  Uiso   1.00
C49    C     0.97212   0.07473   0.58213   0.00000  Uiso   1.00
C50    C     0.02543   0.09300   0.51393   0.00000  Uiso   1.00
C51    C     0.11814   0.09890   0.40801   0.00000  Uiso   1.00
C52    C     0.85424   0.15940   0.77531   0.00000  Uiso   1.00
C53    C     0.82958   0.14734   0.89568   0.00000  Uiso   1.00
C54    C     0.81770   0.19883   0.97087   0.00000  Uiso   1.00
C55    C     0.79017   0.26597   0.12940   0.00000  Uiso   1.00
C56    C     0.84193   0.12846   0.59708   0.00000  Uiso   1.00
C57    C     0.80691   0.09039   0.56762   0.00000  Uiso   1.00
C58    C     0.78465   0.11583   0.49278   0.00000  Uiso   1.00
C59    C     0.73800   0.13493   0.37458   0.00000  Uiso   1.00
C60    C     0.89349   0.22302   0.59701   0.00000  Uiso   1.00
C61    C     0.94402   0.18126   0.56126   0.00000  Uiso   1.00
C62    C     0.99728   0.19960   0.49307   0.00000  Uiso   1.00
C63    C     0.03780   0.15442   0.47013   0.00000  Uiso   1.00
C64    C     0.86659   0.22070   0.73159   0.00000  Uiso   1.00
C65    C     0.85474   0.27222   0.80663   0.00000  Uiso   1.00
C66    C     0.83007   0.26024   0.92708   0.00000  Uiso   1.00
C67    C     0.85428   0.18976   0.55336   0.00000  Uiso   1.00
C68    C     0.83207   0.21527   0.47856   0.00000  Uiso   1.00
C69    C     0.79702   0.17725   0.44898   0.00000  Uiso   1.00
H70    H     0.86114   0.06243   0.71155   0.00000  Uiso   1.00
H71    H     0.96255   0.02729   0.61599   0.00000  Uiso   1.00
H72    H     0.82003   0.09990   0.92949   0.00000  Uiso   1.00
H73    H     0.79736   0.04296   0.60147   0.00000  Uiso   1.00
H74    H     0.08043   0.01538   0.49080   0.00000  Uiso   1.00
H75    H     0.77990   0.16848   0.15183   0.00000  Uiso   1.00
H76    H     0.73210   0.04840   0.46014   0.00000  Uiso   1.00
H77    H     0.90310   0.27075   0.56298   0.00000  Uiso   1.00
H78    H     0.00682   0.24705   0.45925   0.00000  Uiso   1.00
H79    H     0.86430   0.31965   0.77276   0.00000  Uiso   1.00
H80    H     0.84163   0.26271   0.44474   0.00000  Uiso   1.00
H81    H     0.11637   0.19374   0.36359   0.00000  Uiso   1.00
H82    H     0.81583   0.34684   0.02463   0.00000  Uiso   1.00
H83    H     0.76803   0.22676   0.33294   0.00000  Uiso   1.00
O84    O     0.16587   0.08522   0.36168   0.00000  Uiso   1.00
O85    O     0.77157   0.28607   0.22892   0.00000  Uiso   1.00
O86    O     0.70886   0.12853   0.32144   0.00000  Uiso   1.00
N87    N     0.07466   0.06061   0.47507   0.00000  Uiso   1.00
N88    N     0.79368   0.20374   0.09310   0.00000  Uiso   1.00
N89    N     0.74898   0.09149   0.44646   0.00000  Uiso   1.00
N90    N     0.09399   0.15658   0.40662   0.00000  Uiso   1.00
N91    N     0.81301   0.29972   0.02465   0.00000  Uiso   1.00
N92    N     0.76831   0.18746   0.37801   0.00000  Uiso   1.00
C93    C     0.62925   0.61015   0.82250   0.00000  Uiso   1.00
C94    C     0.56833   0.61995   0.89503   0.00000  Uiso   1.00
C95    C     0.52788   0.57473   0.91787   0.00000  Uiso   1.00
C96    C     0.47457   0.59300   0.98607   0.00000  Uiso   1.00
C97    C     0.38186   0.59890   0.09199   0.00000  Uiso   1.00
C98    C     0.64576   0.65940   0.72469   0.00000  Uiso   1.00
C99    C     0.67042   0.64734   0.60432   0.00000  Uiso   1.00
C100   C     0.68230   0.69883   0.52913   0.00000  Uiso   1.00
C101   C     0.70983   0.76597   0.37060   0.00000  Uiso   1.00
C102   C     0.65807   0.62846   0.90292   0.00000  Uiso   1.00
C103   C     0.69309   0.59039   0.93238   0.00000  Uiso   1.00
C104   C     0.71535   0.61583   0.00722   0.00000  Uiso   1.00
C105   C     0.76200   0.63493   0.12542   0.00000  Uiso   1.00
C106   C     0.60651   0.72302   0.90299   0.00000  Uiso   1.00
C107   C     0.55598   0.68126   0.93874   0.00000  Uiso   1.00
C108   C     0.50272   0.69960   0.00693   0.00000  Uiso   1.00
C109   C     0.46220   0.65442   0.02987   0.00000  Uiso   1.00
C110   C     0.63341   0.72070   0.76841   0.00000  Uiso   1.00
C111   C     0.64526   0.77222   0.69337   0.00000  Uiso   1.00
C112   C     0.66993   0.76024   0.57292   0.00000  Uiso   1.00
C113   C     0.64572   0.68976   0.94664   0.00000  Uiso   1.00
C114   C     0.66793   0.71527   0.02144   0.00000  Uiso   1.00
C115   C     0.70298   0.67725   0.05102   0.00000  Uiso   1.00
H116   H     0.63886   0.56243   0.78845   0.00000  Uiso   1.00
H117   H     0.53745   0.52729   0.88401   0.00000  Uiso   1.00
H118   H     0.67997   0.59990   0.57051   0.00000  Uiso   1.00
H119   H     0.70264   0.54296   0.89853   0.00000  Uiso   1.00
H120   H     0.41957   0.51538   0.00920   0.00000  Uiso   1.00
H121   H     0.72010   0.66848   0.34817   0.00000  Uiso   1.00
H122   H     0.76790   0.54840   0.03986   0.00000  Uiso   1.00
H123   H     0.59690   0.77075   0.93702   0.00000  Uiso   1.00
H124   H     0.49318   0.74705   0.04075   0.00000  Uiso   1.00
H125   H     0.63570   0.81965   0.72724   0.00000  Uiso   1.00
H126   H     0.65837   0.76271   0.05526   0.00000  Uiso   1.00
H127   H     0.38363   0.69374   0.13641   0.00000  Uiso   1.00
H128   H     0.68417   0.84684   0.47537   0.00000  Uiso   1.00
H129   H     0.73197   0.72676   0.16706   0.00000  Uiso   1.00
O130   O     0.33413   0.58522   0.13832   0.00000  Uiso   1.00
O131   O     0.72843   0.78607   0.27108   0.00000  Uiso   1.00
O132   O     0.79114   0.62853   0.17856   0.00000  Uiso   1.00
N133   N     0.42534   0.56061   0.02493   0.00000  Uiso   1.00
N134   N     0.70632   0.70374   0.40690   0.00000  Uiso   1.00
N135   N     0.75102   0.59149   0.05354   0.00000  Uiso   1.00
N136   N     0.40601   0.65658   0.09338   0.00000  Uiso   1.00
N137   N     0.68699   0.79972   0.47535   0.00000  Uiso   1.00
N138   N     0.73169   0.68746   0.12199   0.00000  Uiso   1.00
C139   C     0.12925   0.11015   0.82250   0.00000  Uiso   1.00
C140   C     0.06833   0.11995   0.89503   0.00000  Uiso   1.00
C141   C     0.02788   0.07473   0.91787   0.00000  Uiso   1.00
C142   C     0.97457   0.09300   0.98607   0.00000  Uiso   1.00
C143   C     0.88186   0.09890   0.09199   0.00000  Uiso   1.00
C144   C     0.14576   0.15940   0.72469   0.00000  Uiso   1.00
C145   C     0.17042   0.14734   0.60432   0.00000  Uiso   1.00
C146   C     0.18230   0.19883   0.52913   0.00000  Uiso   1.00
C147   C     0.20983   0.26597   0.37060   0.00000  Uiso   1.00
C148   C     0.15807   0.12846   0.90292   0.00000  Uiso   1.00
C149   C     0.19309   0.09039   0.93238   0.00000  Uiso   1.00
C150   C     0.21535   0.11583   0.00722   0.00000  Uiso   1.00
C151   C     0.26200   0.13493   0.12542   0.00000  Uiso   1.00
C152   C     0.10651   0.22302   0.90299   0.00000  Uiso   1.00
C153   C     0.05598   0.18126   0.93874   0.00000  Uiso   1.00
C154   C     0.00272   0.19960   0.00693   0.00000  Uiso   1.00
C155   C     0.96220   0.15442   0.02987   0.00000  Uiso   1.00
C156   C     0.13341   0.22070   0.76841   0.00000  Uiso   1.00
C157   C     0.14526   0.27222   0.69337   0.00000  Uiso   1.00
C158   C     0.16993   0.26024   0.57292   0.00000  Uiso   1.00
C159   C     0.14572   0.18976   0.94664   0.00000  Uiso   1.00
C160   C     0.16793   0.21527   0.02144   0.00000  Uiso   1.00
C161   C     0.20298   0.17725   0.05102   0.00000  Uiso   1.00
H162   H     0.13886   0.06243   0.78845   0.00000  Uiso   1.00
H163   H     0.03745   0.02729   0.88401   0.00000  Uiso   1.00
H164   H     0.17997   0.09990   0.57051   0.00000  Uiso   1.00
H165   H     0.20264   0.04296   0.89853   0.00000  Uiso   1.00
H166   H     0.91957   0.01538   0.00920   0.00000  Uiso   1.00
H167   H     0.22010   0.16848   0.34817   0.00000  Uiso   1.00
H168   H     0.26790   0.04840   0.03986   0.00000  Uiso   1.00
H169   H     0.09690   0.27075   0.93702   0.00000  Uiso   1.00
H170   H     0.99318   0.24705   0.04075   0.00000  Uiso   1.00
H171   H     0.13570   0.31965   0.72724   0.00000  Uiso   1.00
H172   H     0.15837   0.26271   0.05526   0.00000  Uiso   1.00
H173   H     0.88363   0.19374   0.13641   0.00000  Uiso   1.00
H174   H     0.18417   0.34684   0.47537   0.00000  Uiso   1.00
H175   H     0.23197   0.22676   0.16706   0.00000  Uiso   1.00
O176   O     0.83413   0.08522   0.13832   0.00000  Uiso   1.00
O177   O     0.22843   0.28607   0.27108   0.00000  Uiso   1.00
O178   O     0.29114   0.12853   0.17856   0.00000  Uiso   1.00
N179   N     0.92534   0.06061   0.02493   0.00000  Uiso   1.00
N180   N     0.20632   0.20374   0.40690   0.00000  Uiso   1.00
N181   N     0.25102   0.09149   0.05354   0.00000  Uiso   1.00
N182   N     0.90601   0.15658   0.09338   0.00000  Uiso   1.00
N183   N     0.18699   0.29972   0.47535   0.00000  Uiso   1.00
N184   N     0.23169   0.18746   0.12199   0.00000  Uiso   1.00
C185   C     0.62925   0.38985   0.32250   0.00000  Uiso   1.00
C186   C     0.56833   0.38005   0.39503   0.00000  Uiso   1.00
C187   C     0.52788   0.42527   0.41787   0.00000  Uiso   1.00
C188   C     0.47457   0.40700   0.48607   0.00000  Uiso   1.00
C189   C     0.38186   0.40110   0.59199   0.00000  Uiso   1.00
C190   C     0.64576   0.34060   0.22469   0.00000  Uiso   1.00
C191   C     0.67042   0.35266   0.10432   0.00000  Uiso   1.00
C192   C     0.68230   0.30117   0.02913   0.00000  Uiso   1.00
C193   C     0.70983   0.23403   0.87060   0.00000  Uiso   1.00
C194   C     0.65807   0.37154   0.40292   0.00000  Uiso   1.00
C195   C     0.69309   0.40961   0.43238   0.00000  Uiso   1.00
C196   C     0.71535   0.38417   0.50722   0.00000  Uiso   1.00
C197   C     0.76200   0.36507   0.62542   0.00000  Uiso   1.00
C198   C     0.60651   0.27698   0.40299   0.00000  Uiso   1.00
C199   C     0.55598   0.31874   0.43874   0.00000  Uiso   1.00
C200   C     0.50272   0.30040   0.50693   0.00000  Uiso   1.00
C201   C     0.46220   0.34558   0.52987   0.00000  Uiso   1.00
C202   C     0.63341   0.27930   0.26841   0.00000  Uiso   1.00
C203   C     0.64526   0.22778   0.19337   0.00000  Uiso   1.00
C204   C     0.66993   0.23976   0.07292   0.00000  Uiso   1.00
C205   C     0.64572   0.31024   0.44664   0.00000  Uiso   1.00
C206   C     0.66793   0.28473   0.52144   0.00000  Uiso   1.00
C207   C     0.70298   0.32275   0.55102   0.00000  Uiso   1.00
H208   H     0.63886   0.43757   0.28845   0.00000  Uiso   1.00
H209   H     0.53745   0.47271   0.38401   0.00000  Uiso   1.00
H210   H     0.67997   0.40010   0.07051   0.00000  Uiso   1.00
H211   H     0.70264   0.45704   0.39853   0.00000  Uiso   1.00
H212   H     0.41957   0.48462   0.50920   0.00000  Uiso   1.00
H213   H     0.72010   0.33152   0.84817   0.00000  Uiso   1.00
H214   H     0.76790   0.45160   0.53986   0.00000  Uiso   1.00
H215   H     0.59690   0.22925   0.43702   0.00000  Uiso   1.00
H216   H     0.49318   0.25295   0.54075   0.00000  Uiso   1.00
H217   H     0.63570   0.18035   0.22724   0.00000  Uiso   1.00
H218   H     0.65837   0.23729   0.55526   0.00000  Uiso   1.00
H219   H     0.38363   0.30626   0.63641   0.00000  Uiso   1.00
H220   H     0.68417   0.15316   0.97537   0.00000  Uiso   1.00
H221   H     0.73197   0.27324   0.66706   0.00000  Uiso   1.00
O222   O     0.33413   0.41478   0.63832   0.00000  Uiso   1.00
O223   O     0.72843   0.21393   0.77108   0.00000  Uiso   1.00
O224   O     0.79114   0.37147   0.67856   0.00000  Uiso   1.00
N225   N     0.42534   0.43939   0.52493   0.00000  Uiso   1.00
N226   N     0.70632   0.29626   0.90690   0.00000  Uiso   1.00
N227   N     0.75102   0.40851   0.55354   0.00000  Uiso   1.00
N228   N     0.40601   0.34342   0.59338   0.00000  Uiso   1.00
N229   N     0.68699   0.20028   0.97535   0.00000  Uiso   1.00
N230   N     0.73169   0.31254   0.62199   0.00000  Uiso   1.00
C231   C     0.12925   0.88985   0.32250   0.00000  Uiso   1.00
C232   C     0.06833   0.88005   0.39503   0.00000  Uiso   1.00
C233   C     0.02788   0.92527   0.41787   0.00000  Uiso   1.00
C234   C     0.97457   0.90700   0.48607   0.00000  Uiso   1.00
C235   C     0.88186   0.90110   0.59199   0.00000  Uiso   1.00
C236   C     0.14576   0.84060   0.22469   0.00000  Uiso   1.00
C237   C     0.17042   0.85266   0.10432   0.00000  Uiso   1.00
C238   C     0.18230   0.80117   0.02913   0.00000  Uiso   1.00
C239   C     0.20983   0.73403   0.87060   0.00000  Uiso   1.00
C240   C     0.15807   0.87154   0.40292   0.00000  Uiso   1.00
C241   C     0.19309   0.90961   0.43238   0.00000  Uiso   1.00
C242   C     0.21535   0.88417   0.50722   0.00000  Uiso   1.00
C243   C     0.26200   0.86507   0.62542   0.00000  Uiso   1.00
C244   C     0.10651   0.77698   0.40299   0.00000  Uiso   1.00
C245   C     0.05598   0.81874   0.43874   0.00000  Uiso   1.00
C246   C     0.00272   0.80040   0.50693   0.00000  Uiso   1.00
C247   C     0.96220   0.84558   0.52987   0.00000  Uiso   1.00
C248   C     0.13341   0.77930   0.26841   0.00000  Uiso   1.00
C249   C     0.14526   0.72778   0.19337   0.00000  Uiso   1.00
C250   C     0.16993   0.73976   0.07292   0.00000  Uiso   1.00
C251   C     0.14572   0.81024   0.44664   0.00000  Uiso   1.00
C252   C     0.16793   0.78473   0.52144   0.00000  Uiso   1.00
C253   C     0.20298   0.82275   0.55102   0.00000  Uiso   1.00
H254   H     0.13886   0.93757   0.28845   0.00000  Uiso   1.00
H255   H     0.03745   0.97271   0.38401   0.00000  Uiso   1.00
H256   H     0.17997   0.90010   0.07051   0.00000  Uiso   1.00
H257   H     0.20264   0.95704   0.39853   0.00000  Uiso   1.00
H258   H     0.91957   0.98462   0.50920   0.00000  Uiso   1.00
H259   H     0.22010   0.83152   0.84817   0.00000  Uiso   1.00
H260   H     0.26790   0.95160   0.53986   0.00000  Uiso   1.00
H261   H     0.09690   0.72925   0.43702   0.00000  Uiso   1.00
H262   H     0.99318   0.75295   0.54075   0.00000  Uiso   1.00
H263   H     0.13570   0.68035   0.22724   0.00000  Uiso   1.00
H264   H     0.15837   0.73729   0.55526   0.00000  Uiso   1.00
H265   H     0.88363   0.80626   0.63641   0.00000  Uiso   1.00
H266   H     0.18417   0.65316   0.97537   0.00000  Uiso   1.00
H267   H     0.23197   0.77324   0.66706   0.00000  Uiso   1.00
O268   O     0.83413   0.91478   0.63832   0.00000  Uiso   1.00
O269   O     0.22843   0.71393   0.77108   0.00000  Uiso   1.00
O270   O     0.29114   0.87147   0.67856   0.00000  Uiso   1.00
N271   N     0.92534   0.93939   0.52493   0.00000  Uiso   1.00
N272   N     0.20632   0.79626   0.90690   0.00000  Uiso   1.00
N273   N     0.25102   0.90851   0.55354   0.00000  Uiso   1.00
N274   N     0.90601   0.84342   0.59338   0.00000  Uiso   1.00
N275   N     0.18699   0.70028   0.97535   0.00000  Uiso   1.00
N276   N     0.23169   0.81254   0.62199   0.00000  Uiso   1.00
C277   C     0.37075   0.38985   0.17750   0.00000  Uiso   1.00
C278   C     0.43167   0.38005   0.10497   0.00000  Uiso   1.00
C279   C     0.47212   0.42527   0.08213   0.00000  Uiso   1.00
C280   C     0.52543   0.40700   0.01393   0.00000  Uiso   1.00
C281   C     0.61814   0.40110   0.90801   0.00000  Uiso   1.00
C282   C     0.35424   0.34060   0.27531   0.00000  Uiso   1.00
C283   C     0.32958   0.35266   0.39568   0.00000  Uiso   1.00
C284   C     0.31770   0.30117   0.47087   0.00000  Uiso   1.00
C285   C     0.29017   0.23403   0.62940   0.00000  Uiso   1.00
C286   C     0.34193   0.37154   0.09708   0.00000  Uiso   1.00
C287   C     0.30691   0.40961   0.06762   0.00000  Uiso   1.00
C288   C     0.28465   0.38417   0.99278   0.00000  Uiso   1.00
C289   C     0.23800   0.36507   0.87458   0.00000  Uiso   1.00
C290   C     0.39349   0.27698   0.09701   0.00000  Uiso   1.00
C291   C     0.44402   0.31874   0.06126   0.00000  Uiso   1.00
C292   C     0.49728   0.30040   0.99307   0.00000  Uiso   1.00
C293   C     0.53780   0.34558   0.97013   0.00000  Uiso   1.00
C294   C     0.36659   0.27930   0.23159   0.00000  Uiso   1.00
C295   C     0.35474   0.22778   0.30663   0.00000  Uiso   1.00
C296   C     0.33007   0.23976   0.42708   0.00000  Uiso   1.00
C297   C     0.35428   0.31024   0.05336   0.00000  Uiso   1.00
C298   C     0.33207   0.28473   0.97856   0.00000  Uiso   1.00
C299   C     0.29702   0.32275   0.94898   0.00000  Uiso   1.00
H300   H     0.36114   0.43757   0.21155   0.00000  Uiso   1.00
H301   H     0.46255   0.47271   0.11599   0.00000  Uiso   1.00
H302   H     0.32003   0.40010   0.42949   0.00000  Uiso   1.00
H303   H     0.29736   0.45704   0.10147   0.00000  Uiso   1.00
H304   H     0.58043   0.48462   0.99080   0.00000  Uiso   1.00
H305   H     0.27990   0.33152   0.65183   0.00000  Uiso   1.00
H306   H     0.23210   0.45160   0.96014   0.00000  Uiso   1.00
H307   H     0.40310   0.22925   0.06298   0.00000  Uiso   1.00
H308   H     0.50682   0.25295   0.95925   0.00000  Uiso   1.00
H309   H     0.36430   0.18035   0.27276   0.00000  Uiso   1.00
H310   H     0.34163   0.23729   0.94474   0.00000  Uiso   1.00
H311   H     0.61637   0.30626   0.86359   0.00000  Uiso   1.00
H312   H     0.31583   0.15316   0.52463   0.00000  Uiso   1.00
H313   H     0.26803   0.27324   0.83294   0.00000  Uiso   1.00
O314   O     0.66587   0.41478   0.86168   0.00000  Uiso   1.00
O315   O     0.27157   0.21393   0.72892   0.00000  Uiso   1.00
O316   O     0.20886   0.37147   0.82144   0.00000  Uiso   1.00
N317   N     0.57466   0.43939   0.97507   0.00000  Uiso   1.00
N318   N     0.29368   0.29626   0.59310   0.00000  Uiso   1.00
N319   N     0.24898   0.40851   0.94646   0.00000  Uiso   1.00
N320   N     0.59399   0.34342   0.90662   0.00000  Uiso   1.00
N321   N     0.31301   0.20028   0.52465   0.00000  Uiso   1.00
N322   N     0.26831   0.31254   0.87801   0.00000  Uiso   1.00
C323   C     0.87075   0.88985   0.17750   0.00000  Uiso   1.00
C324   C     0.93167   0.88005   0.10497   0.00000  Uiso   1.00
C325   C     0.97212   0.92527   0.08213   0.00000  Uiso   1.00
C326   C     0.02543   0.90700   0.01393   0.00000  Uiso   1.00
C327   C     0.11814   0.90110   0.90801   0.00000  Uiso   1.00
C328   C     0.85424   0.84060   0.27531   0.00000  Uiso   1.00
C329   C     0.82958   0.85266   0.39568   0.00000  Uiso   1.00
C330   C     0.81770   0.80117   0.47087   0.00000  Uiso   1.00
C331   C     0.79017   0.73403   0.62940   0.00000  Uiso   1.00
C332   C     0.84193   0.87154   0.09708   0.00000  Uiso   1.00
C333   C     0.80691   0.90961   0.06762   0.00000  Uiso   1.00
C334   C     0.78465   0.88417   0.99278   0.00000  Uiso   1.00
C335   C     0.73800   0.86507   0.87458   0.00000  Uiso   1.00
C336   C     0.89349   0.77698   0.09701   0.00000  Uiso   1.00
C337   C     0.94402   0.81874   0.06126   0.00000  Uiso   1.00
C338   C     0.99728   0.80040   0.99307   0.00000  Uiso   1.00
C339   C     0.03780   0.84558   0.97013   0.00000  Uiso   1.00
C340   C     0.86659   0.77930   0.23159   0.00000  Uiso   1.00
C341   C     0.85474   0.72778   0.30663   0.00000  Uiso   1.00
C342   C     0.83007   0.73976   0.42708   0.00000  Uiso   1.00
C343   C     0.85428   0.81024   0.05336   0.00000  Uiso   1.00
C344   C     0.83207   0.78473   0.97856   0.00000  Uiso   1.00
C345   C     0.79702   0.82275   0.94898   0.00000  Uiso   1.00
H346   H     0.86114   0.93757   0.21155   0.00000  Uiso   1.00
H347   H     0.96255   0.97271   0.11599   0.00000  Uiso   1.00
H348   H     0.82003   0.90010   0.42949   0.00000  Uiso   1.00
H349   H     0.79736   0.95704   0.10147   0.00000  Uiso   1.00
H350   H     0.08043   0.98462   0.99080   0.00000  Uiso   1.00
H351   H     0.77990   0.83152   0.65183   0.00000  Uiso   1.00
H352   H     0.73210   0.95160   0.96014   0.00000  Uiso   1.00
H353   H     0.90310   0.72925   0.06298   0.00000  Uiso   1.00
H354   H     0.00682   0.75295   0.95925   0.00000  Uiso   1.00
H355   H     0.86430   0.68035   0.27276   0.00000  Uiso   1.00
H356   H     0.84163   0.73729   0.94474   0.00000  Uiso   1.00
H357   H     0.11637   0.80626   0.86359   0.00000  Uiso   1.00
H358   H     0.81583   0.65316   0.52463   0.00000  Uiso   1.00
H359   H     0.76803   0.77324   0.83294   0.00000  Uiso   1.00
O360   O     0.16587   0.91478   0.86168   0.00000  Uiso   1.00
O361   O     0.77157   0.71393   0.72892   0.00000  Uiso   1.00
O362   O     0.70886   0.87147   0.82144   0.00000  Uiso   1.00
N363   N     0.07466   0.93939   0.97507   0.00000  Uiso   1.00
N364   N     0.79368   0.79626   0.59310   0.00000  Uiso   1.00
N365   N     0.74898   0.90851   0.94646   0.00000  Uiso   1.00
N366   N     0.09399   0.84342   0.90662   0.00000  Uiso   1.00
N367   N     0.81301   0.70028   0.52465   0.00000  Uiso   1.00
N368   N     0.76831   0.81254   0.87801   0.00000  Uiso   1.00
