data_job_03199
_audit_creation_date              2018-12-19
_audit_creation_method            'Materials Studio'
_symmetry_space_group_name_H-M    'P1'
_symmetry_Int_Tables_number       1
_symmetry_cell_setting            triclinic
loop_
_symmetry_equiv_pos_as_xyz
  x,y,z
_cell_length_a                    13.7334
_cell_length_b                    13.3026
_cell_length_c                    17.7731
_cell_angle_alpha                 90.0000
_cell_angle_beta                  120.9384
_cell_angle_gamma                 90.0000
loop_
_atom_site_label
_atom_site_type_symbol
_atom_site_fract_x
_atom_site_fract_y
_atom_site_fract_z
_atom_site_U_iso_or_equiv
_atom_site_adp_type
_atom_site_occupancy
C1     C     0.14999   0.54105   0.19278   0.00000  Uiso   1.00
C2     C     0.24641   0.58992   0.27513   0.00000  Uiso   1.00
C3     C     0.29338   0.68360   0.27923   0.00000  Uiso   1.00
C4     C     0.38095   0.71488   0.36077   0.00000  Uiso   1.00
C5     C     0.52475   0.79992   0.47727   0.00000  Uiso   1.00
C6     C     0.19532   0.43982   0.18397   0.00000  Uiso   1.00
C7     C     0.19932   0.40730   0.11141   0.00000  Uiso   1.00
C8     C     0.24388   0.31222   0.11620   0.00000  Uiso   1.00
C9     C     0.30828   0.16420   0.09114   0.00000  Uiso   1.00
C10    C     0.05760   0.51731   0.21348   0.00000  Uiso   1.00
C11    C     0.94579   0.54990   0.16573   0.00000  Uiso   1.00
C12    C     0.87439   0.52004   0.19536   0.00000  Uiso   1.00
C13    C     0.72496   0.49233   0.21613   0.00000  Uiso   1.00
C14    C     0.22199   0.43002   0.33030   0.00000  Uiso   1.00
C15    C     0.28551   0.52961   0.34983   0.00000  Uiso   1.00
C16    C     0.37303   0.56076   0.43138   0.00000  Uiso   1.00
C17    C     0.42013   0.65447   0.43560   0.00000  Uiso   1.00
C18    C     0.23442   0.37952   0.25866   0.00000  Uiso   1.00
C19    C     0.27898   0.28447   0.26356   0.00000  Uiso   1.00
C20    C     0.28305   0.25181   0.19103   0.00000  Uiso   1.00
C21    C     0.09670   0.45701   0.28818   0.00000  Uiso   1.00
C22    C     0.02545   0.42708   0.31788   0.00000  Uiso   1.00
C23    C     0.91356   0.45963   0.27019   0.00000  Uiso   1.00
H24    H     0.11955   0.58799   0.13463   0.00000  Uiso   1.00
H25    H     0.26310   0.73024   0.22141   0.00000  Uiso   1.00
H26    H     0.16905   0.45398   0.05361   0.00000  Uiso   1.00
H27    H     0.91556   0.59657   0.10793   0.00000  Uiso   1.00
H28    H     0.43952   0.86134   0.35056   0.00000  Uiso   1.00
H29    H     0.24117   0.27881   0.99673   0.00000  Uiso   1.00
H30    H     0.70665   0.57949   0.11127   0.00000  Uiso   1.00
H31    H     0.25243   0.38307   0.38845   0.00000  Uiso   1.00
H32    H     0.40328   0.51408   0.48917   0.00000  Uiso   1.00
H33    H     0.30922   0.23782   0.32137   0.00000  Uiso   1.00
H34    H     0.05574   0.38041   0.37569   0.00000  Uiso   1.00
H35    H     0.55330   0.68589   0.56789   0.00000  Uiso   1.00
H36    H     0.35494   0.10337   0.21405   0.00000  Uiso   1.00
H37    H     0.82042   0.40405   0.32860   0.00000  Uiso   1.00
O38    O     0.59327   0.86348   0.52089   0.00000  Uiso   1.00
O39    O     0.33302   0.09923   0.05668   0.00000  Uiso   1.00
O40    O     0.63174   0.49371   0.20695   0.00000  Uiso   1.00
N41    N     0.44559   0.80208   0.38789   0.00000  Uiso   1.00
N42    N     0.26015   0.25746   0.05709   0.00000  Uiso   1.00
N43    N     0.76041   0.53854   0.16416   0.00000  Uiso   1.00
N44    N     0.50681   0.70767   0.50483   0.00000  Uiso   1.00
N45    N     0.32137   0.16305   0.17403   0.00000  Uiso   1.00
N46    N     0.82163   0.44414   0.28110   0.00000  Uiso   1.00
C47    C     0.85001   0.04105   0.30722   0.00000  Uiso   1.00
C48    C     0.75359   0.08992   0.22487   0.00000  Uiso   1.00
C49    C     0.70662   0.18360   0.22077   0.00000  Uiso   1.00
C50    C     0.61905   0.21488   0.13923   0.00000  Uiso   1.00
C51    C     0.47525   0.29992   0.02273   0.00000  Uiso   1.00
C52    C     0.80468   0.93982   0.31603   0.00000  Uiso   1.00
C53    C     0.80068   0.90730   0.38859   0.00000  Uiso   1.00
C54    C     0.75612   0.81222   0.38380   0.00000  Uiso   1.00
C55    C     0.69172   0.66420   0.40886   0.00000  Uiso   1.00
C56    C     0.94240   0.01731   0.28652   0.00000  Uiso   1.00
C57    C     0.05421   0.04990   0.33427   0.00000  Uiso   1.00
C58    C     0.12561   0.02004   0.30464   0.00000  Uiso   1.00
C59    C     0.27504   0.99233   0.28387   0.00000  Uiso   1.00
C60    C     0.77801   0.93002   0.16970   0.00000  Uiso   1.00
C61    C     0.71449   0.02961   0.15017   0.00000  Uiso   1.00
C62    C     0.62697   0.06076   0.06862   0.00000  Uiso   1.00
C63    C     0.57987   0.15447   0.06440   0.00000  Uiso   1.00
C64    C     0.76558   0.87952   0.24134   0.00000  Uiso   1.00
C65    C     0.72102   0.78447   0.23644   0.00000  Uiso   1.00
C66    C     0.71695   0.75181   0.30897   0.00000  Uiso   1.00
C67    C     0.90330   0.95701   0.21182   0.00000  Uiso   1.00
C68    C     0.97455   0.92708   0.18212   0.00000  Uiso   1.00
C69    C     0.08644   0.95963   0.22981   0.00000  Uiso   1.00
H70    H     0.88045   0.08799   0.36537   0.00000  Uiso   1.00
H71    H     0.73690   0.23024   0.27859   0.00000  Uiso   1.00
H72    H     0.83095   0.95398   0.44639   0.00000  Uiso   1.00
H73    H     0.08444   0.09657   0.39207   0.00000  Uiso   1.00
H74    H     0.56048   0.36134   0.14944   0.00000  Uiso   1.00
H75    H     0.75883   0.77881   0.50327   0.00000  Uiso   1.00
H76    H     0.29335   0.07949   0.38873   0.00000  Uiso   1.00
H77    H     0.74757   0.88307   0.11155   0.00000  Uiso   1.00
H78    H     0.59672   0.01408   0.01083   0.00000  Uiso   1.00
H79    H     0.69078   0.73782   0.17863   0.00000  Uiso   1.00
H80    H     0.94426   0.88041   0.12431   0.00000  Uiso   1.00
H81    H     0.44670   0.18589   0.93211   0.00000  Uiso   1.00
H82    H     0.64506   0.60337   0.28595   0.00000  Uiso   1.00
H83    H     0.17958   0.90405   0.17140   0.00000  Uiso   1.00
O84    O     0.40673   0.36348   0.97911   0.00000  Uiso   1.00
O85    O     0.66698   0.59923   0.44332   0.00000  Uiso   1.00
O86    O     0.36826   0.99371   0.29305   0.00000  Uiso   1.00
N87    N     0.55441   0.30208   0.11211   0.00000  Uiso   1.00
N88    N     0.73985   0.75746   0.44291   0.00000  Uiso   1.00
N89    N     0.23959   0.03854   0.33584   0.00000  Uiso   1.00
N90    N     0.49319   0.20767   0.99517   0.00000  Uiso   1.00
N91    N     0.67863   0.66305   0.32597   0.00000  Uiso   1.00
N92    N     0.17837   0.94414   0.21890   0.00000  Uiso   1.00
C93    C     0.85001   0.45895   0.80722   0.00000  Uiso   1.00
C94    C     0.75359   0.41008   0.72487   0.00000  Uiso   1.00
C95    C     0.70662   0.31640   0.72077   0.00000  Uiso   1.00
C96    C     0.61905   0.28512   0.63923   0.00000  Uiso   1.00
C97    C     0.47525   0.20008   0.52273   0.00000  Uiso   1.00
C98    C     0.80468   0.56018   0.81603   0.00000  Uiso   1.00
C99    C     0.80068   0.59270   0.88859   0.00000  Uiso   1.00
C100   C     0.75612   0.68778   0.88380   0.00000  Uiso   1.00
C101   C     0.69172   0.83580   0.90886   0.00000  Uiso   1.00
C102   C     0.94240   0.48269   0.78652   0.00000  Uiso   1.00
C103   C     0.05421   0.45010   0.83427   0.00000  Uiso   1.00
C104   C     0.12561   0.47996   0.80464   0.00000  Uiso   1.00
C105   C     0.27504   0.50767   0.78387   0.00000  Uiso   1.00
C106   C     0.77801   0.56998   0.66970   0.00000  Uiso   1.00
C107   C     0.71449   0.47039   0.65017   0.00000  Uiso   1.00
C108   C     0.62697   0.43924   0.56862   0.00000  Uiso   1.00
C109   C     0.57987   0.34553   0.56440   0.00000  Uiso   1.00
C110   C     0.76558   0.62048   0.74134   0.00000  Uiso   1.00
C111   C     0.72102   0.71553   0.73644   0.00000  Uiso   1.00
C112   C     0.71695   0.74819   0.80897   0.00000  Uiso   1.00
C113   C     0.90330   0.54299   0.71182   0.00000  Uiso   1.00
C114   C     0.97455   0.57292   0.68212   0.00000  Uiso   1.00
C115   C     0.08644   0.54037   0.72981   0.00000  Uiso   1.00
H116   H     0.88045   0.41201   0.86537   0.00000  Uiso   1.00
H117   H     0.73690   0.26976   0.77859   0.00000  Uiso   1.00
H118   H     0.83095   0.54602   0.94639   0.00000  Uiso   1.00
H119   H     0.08444   0.40343   0.89207   0.00000  Uiso   1.00
H120   H     0.56048   0.13866   0.64944   0.00000  Uiso   1.00
H121   H     0.75883   0.72119   0.00327   0.00000  Uiso   1.00
H122   H     0.29335   0.42051   0.88873   0.00000  Uiso   1.00
H123   H     0.74757   0.61693   0.61155   0.00000  Uiso   1.00
H124   H     0.59672   0.48592   0.51083   0.00000  Uiso   1.00
H125   H     0.69078   0.76218   0.67863   0.00000  Uiso   1.00
H126   H     0.94426   0.61959   0.62431   0.00000  Uiso   1.00
H127   H     0.44670   0.31411   0.43211   0.00000  Uiso   1.00
H128   H     0.64506   0.89663   0.78595   0.00000  Uiso   1.00
H129   H     0.17958   0.59595   0.67140   0.00000  Uiso   1.00
O130   O     0.40673   0.13652   0.47911   0.00000  Uiso   1.00
O131   O     0.66698   0.90077   0.94332   0.00000  Uiso   1.00
O132   O     0.36826   0.50629   0.79305   0.00000  Uiso   1.00
N133   N     0.55441   0.19792   0.61211   0.00000  Uiso   1.00
N134   N     0.73985   0.74254   0.94291   0.00000  Uiso   1.00
N135   N     0.23959   0.46146   0.83584   0.00000  Uiso   1.00
N136   N     0.49319   0.29233   0.49517   0.00000  Uiso   1.00
N137   N     0.67863   0.83695   0.82597   0.00000  Uiso   1.00
N138   N     0.17837   0.55586   0.71890   0.00000  Uiso   1.00
C139   C     0.14999   0.95895   0.69278   0.00000  Uiso   1.00
C140   C     0.24641   0.91008   0.77513   0.00000  Uiso   1.00
C141   C     0.29338   0.81640   0.77923   0.00000  Uiso   1.00
C142   C     0.38095   0.78512   0.86077   0.00000  Uiso   1.00
C143   C     0.52475   0.70008   0.97727   0.00000  Uiso   1.00
C144   C     0.19532   0.06018   0.68397   0.00000  Uiso   1.00
C145   C     0.19932   0.09270   0.61141   0.00000  Uiso   1.00
C146   C     0.24388   0.18778   0.61620   0.00000  Uiso   1.00
C147   C     0.30828   0.33580   0.59114   0.00000  Uiso   1.00
C148   C     0.05760   0.98269   0.71348   0.00000  Uiso   1.00
C149   C     0.94579   0.95010   0.66573   0.00000  Uiso   1.00
C150   C     0.87439   0.97996   0.69536   0.00000  Uiso   1.00
C151   C     0.72496   0.00767   0.71613   0.00000  Uiso   1.00
C152   C     0.22199   0.06998   0.83030   0.00000  Uiso   1.00
C153   C     0.28551   0.97039   0.84983   0.00000  Uiso   1.00
C154   C     0.37303   0.93924   0.93138   0.00000  Uiso   1.00
C155   C     0.42013   0.84553   0.93560   0.00000  Uiso   1.00
C156   C     0.23442   0.12048   0.75866   0.00000  Uiso   1.00
C157   C     0.27898   0.21553   0.76356   0.00000  Uiso   1.00
C158   C     0.28305   0.24819   0.69103   0.00000  Uiso   1.00
C159   C     0.09670   0.04299   0.78818   0.00000  Uiso   1.00
C160   C     0.02545   0.07292   0.81788   0.00000  Uiso   1.00
C161   C     0.91356   0.04037   0.77019   0.00000  Uiso   1.00
H162   H     0.11955   0.91201   0.63463   0.00000  Uiso   1.00
H163   H     0.26310   0.76976   0.72141   0.00000  Uiso   1.00
H164   H     0.16905   0.04602   0.55361   0.00000  Uiso   1.00
H165   H     0.91556   0.90343   0.60793   0.00000  Uiso   1.00
H166   H     0.43952   0.63866   0.85056   0.00000  Uiso   1.00
H167   H     0.24117   0.22119   0.49673   0.00000  Uiso   1.00
H168   H     0.70665   0.92051   0.61127   0.00000  Uiso   1.00
H169   H     0.25243   0.11693   0.88845   0.00000  Uiso   1.00
H170   H     0.40328   0.98592   0.98917   0.00000  Uiso   1.00
H171   H     0.30922   0.26218   0.82137   0.00000  Uiso   1.00
H172   H     0.05574   0.11959   0.87569   0.00000  Uiso   1.00
H173   H     0.55330   0.81411   0.06789   0.00000  Uiso   1.00
H174   H     0.35494   0.39663   0.71405   0.00000  Uiso   1.00
H175   H     0.82042   0.09595   0.82860   0.00000  Uiso   1.00
O176   O     0.59327   0.63652   0.02089   0.00000  Uiso   1.00
O177   O     0.33302   0.40077   0.55668   0.00000  Uiso   1.00
O178   O     0.63174   0.00629   0.70695   0.00000  Uiso   1.00
N179   N     0.44559   0.69792   0.88789   0.00000  Uiso   1.00
N180   N     0.26015   0.24254   0.55709   0.00000  Uiso   1.00
N181   N     0.76041   0.96146   0.66416   0.00000  Uiso   1.00
N182   N     0.50681   0.79233   0.00483   0.00000  Uiso   1.00
N183   N     0.32137   0.33695   0.67403   0.00000  Uiso   1.00
N184   N     0.82163   0.05586   0.78110   0.00000  Uiso   1.00
