data_job_01474
_audit_creation_date              2018-12-19
_audit_creation_method            'Materials Studio'
_symmetry_space_group_name_H-M    'P1'
_symmetry_Int_Tables_number       1
_symmetry_cell_setting            triclinic
loop_
_symmetry_equiv_pos_as_xyz
  x,y,z
_cell_length_a                    12.4546
_cell_length_b                    7.0002
_cell_length_c                    43.6383
_cell_angle_alpha                 90.0000
_cell_angle_beta                  73.4406
_cell_angle_gamma                 90.0000
loop_
_atom_site_label
_atom_site_type_symbol
_atom_site_fract_x
_atom_site_fract_y
_atom_site_fract_z
_atom_site_U_iso_or_equiv
_atom_site_adp_type
_atom_site_occupancy
C1     C     0.36490   0.57282   0.66245   0.00000  Uiso   1.00
C2     C     0.24130   0.60820   0.67925   0.00000  Uiso   1.00
C3     C     0.16318   0.46965   0.69339   0.00000  Uiso   1.00
C4     C     0.05428   0.53098   0.70753   0.00000  Uiso   1.00
C5     C     0.86684   0.55654   0.73361   0.00000  Uiso   1.00
C6     C     0.38606   0.65387   0.62881   0.00000  Uiso   1.00
C7     C     0.42967   0.55372   0.60054   0.00000  Uiso   1.00
C8     C     0.44264   0.65351   0.57222   0.00000  Uiso   1.00
C9     C     0.48003   0.75002   0.51999   0.00000  Uiso   1.00
C10    C     0.43000   0.69988   0.67925   0.00000  Uiso   1.00
C11    C     0.51059   0.63843   0.69339   0.00000  Uiso   1.00
C12    C     0.56058   0.77696   0.70753   0.00000  Uiso   1.00
C13    C     0.66620   0.94491   0.73362   0.00000  Uiso   1.00
C14    C     0.31041   0.92814   0.66241   0.00000  Uiso   1.00
C15    C     0.21170   0.80120   0.67923   0.00000  Uiso   1.00
C16    C     0.10289   0.86276   0.69335   0.00000  Uiso   1.00
C17    C     0.02463   0.72432   0.70751   0.00000  Uiso   1.00
C18    C     0.35646   0.84686   0.62879   0.00000  Uiso   1.00
C19    C     0.36938   0.94683   0.60050   0.00000  Uiso   1.00
C20    C     0.41299   0.84685   0.57220   0.00000  Uiso   1.00
C21    C     0.40041   0.89288   0.67923   0.00000  Uiso   1.00
C22    C     0.45029   0.03154   0.69335   0.00000  Uiso   1.00
C23    C     0.53093   0.97031   0.70751   0.00000  Uiso   1.00
H24    H     0.38795   0.42257   0.66246   0.00000  Uiso   1.00
H25    H     0.18612   0.32030   0.69340   0.00000  Uiso   1.00
H26    H     0.45257   0.40437   0.60057   0.00000  Uiso   1.00
H27    H     0.53347   0.48907   0.69340   0.00000  Uiso   1.00
H28    H     0.94929   0.29202   0.72768   0.00000  Uiso   1.00
H29    H     0.51116   0.46930   0.53194   0.00000  Uiso   1.00
H30    H     0.68176   0.64789   0.72770   0.00000  Uiso   1.00
H31    H     0.28737   0.07840   0.66239   0.00000  Uiso   1.00
H32    H     0.08001   0.01212   0.69333   0.00000  Uiso   1.00
H33    H     0.34647   0.09618   0.60049   0.00000  Uiso   1.00
H34    H     0.42737   0.18087   0.69333   0.00000  Uiso   1.00
H35    H     0.86317   0.85352   0.72762   0.00000  Uiso   1.00
H36    H     0.42505   0.03080   0.53188   0.00000  Uiso   1.00
H37    H     0.59564   0.20939   0.72764   0.00000  Uiso   1.00
O38    O     0.77163   0.51733   0.74799   0.00000  Uiso   1.00
O39    O     0.50881   0.74992   0.49119   0.00000  Uiso   1.00
O40    O     0.73262   0.98422   0.74802   0.00000  Uiso   1.00
N41    N     0.95748   0.43327   0.72343   0.00000  Uiso   1.00
N42    N     0.48279   0.59901   0.54042   0.00000  Uiso   1.00
N43    N     0.64230   0.76598   0.72343   0.00000  Uiso   1.00
N44    N     0.91114   0.73541   0.72339   0.00000  Uiso   1.00
N45    N     0.43645   0.90115   0.54039   0.00000  Uiso   1.00
N46    N     0.59596   0.06812   0.72340   0.00000  Uiso   1.00
C47    C     0.63510   0.07282   0.83755   0.00000  Uiso   1.00
C48    C     0.75870   0.10820   0.82075   0.00000  Uiso   1.00
C49    C     0.83682   0.96965   0.80661   0.00000  Uiso   1.00
C50    C     0.94572   0.03098   0.79247   0.00000  Uiso   1.00
C51    C     0.13316   0.05654   0.76639   0.00000  Uiso   1.00
C52    C     0.61394   0.15387   0.87119   0.00000  Uiso   1.00
C53    C     0.57033   0.05372   0.89946   0.00000  Uiso   1.00
C54    C     0.55736   0.15351   0.92778   0.00000  Uiso   1.00
C55    C     0.51997   0.25002   0.98001   0.00000  Uiso   1.00
C56    C     0.57000   0.19988   0.82075   0.00000  Uiso   1.00
C57    C     0.48941   0.13843   0.80661   0.00000  Uiso   1.00
C58    C     0.43942   0.27696   0.79247   0.00000  Uiso   1.00
C59    C     0.33380   0.44491   0.76638   0.00000  Uiso   1.00
C60    C     0.68959   0.42814   0.83759   0.00000  Uiso   1.00
C61    C     0.78830   0.30120   0.82077   0.00000  Uiso   1.00
C62    C     0.89711   0.36276   0.80665   0.00000  Uiso   1.00
C63    C     0.97537   0.22432   0.79249   0.00000  Uiso   1.00
C64    C     0.64354   0.34686   0.87121   0.00000  Uiso   1.00
C65    C     0.63062   0.44683   0.89950   0.00000  Uiso   1.00
C66    C     0.58701   0.34685   0.92780   0.00000  Uiso   1.00
C67    C     0.59959   0.39288   0.82077   0.00000  Uiso   1.00
C68    C     0.54971   0.53154   0.80665   0.00000  Uiso   1.00
C69    C     0.46907   0.47031   0.79249   0.00000  Uiso   1.00
H70    H     0.61205   0.92257   0.83754   0.00000  Uiso   1.00
H71    H     0.81388   0.82030   0.80660   0.00000  Uiso   1.00
H72    H     0.54743   0.90437   0.89943   0.00000  Uiso   1.00
H73    H     0.46653   0.98907   0.80660   0.00000  Uiso   1.00
H74    H     0.05071   0.79202   0.77232   0.00000  Uiso   1.00
H75    H     0.48884   0.96930   0.96806   0.00000  Uiso   1.00
H76    H     0.31824   0.14789   0.77230   0.00000  Uiso   1.00
H77    H     0.71263   0.57840   0.83761   0.00000  Uiso   1.00
H78    H     0.91999   0.51212   0.80667   0.00000  Uiso   1.00
H79    H     0.65353   0.59618   0.89951   0.00000  Uiso   1.00
H80    H     0.57263   0.68087   0.80667   0.00000  Uiso   1.00
H81    H     0.13683   0.35352   0.77238   0.00000  Uiso   1.00
H82    H     0.57495   0.53080   0.96812   0.00000  Uiso   1.00
H83    H     0.40436   0.70939   0.77236   0.00000  Uiso   1.00
O84    O     0.22837   0.01733   0.75201   0.00000  Uiso   1.00
O85    O     0.49119   0.24992   0.00881   0.00000  Uiso   1.00
O86    O     0.26738   0.48422   0.75198   0.00000  Uiso   1.00
N87    N     0.04252   0.93327   0.77657   0.00000  Uiso   1.00
N88    N     0.51721   0.09901   0.95958   0.00000  Uiso   1.00
N89    N     0.35770   0.26598   0.77657   0.00000  Uiso   1.00
N90    N     0.08886   0.23541   0.77661   0.00000  Uiso   1.00
N91    N     0.56355   0.40115   0.95961   0.00000  Uiso   1.00
N92    N     0.40404   0.56812   0.77660   0.00000  Uiso   1.00
C93    C     0.63510   0.42718   0.33755   0.00000  Uiso   1.00
C94    C     0.75870   0.39180   0.32075   0.00000  Uiso   1.00
C95    C     0.83682   0.53035   0.30661   0.00000  Uiso   1.00
C96    C     0.94572   0.46902   0.29247   0.00000  Uiso   1.00
C97    C     0.13316   0.44346   0.26639   0.00000  Uiso   1.00
C98    C     0.61394   0.34613   0.37119   0.00000  Uiso   1.00
C99    C     0.57033   0.44628   0.39946   0.00000  Uiso   1.00
C100   C     0.55736   0.34649   0.42778   0.00000  Uiso   1.00
C101   C     0.51997   0.24998   0.48001   0.00000  Uiso   1.00
C102   C     0.57000   0.30012   0.32075   0.00000  Uiso   1.00
C103   C     0.48941   0.36157   0.30661   0.00000  Uiso   1.00
C104   C     0.43942   0.22304   0.29247   0.00000  Uiso   1.00
C105   C     0.33380   0.05509   0.26638   0.00000  Uiso   1.00
C106   C     0.68959   0.07186   0.33759   0.00000  Uiso   1.00
C107   C     0.78830   0.19880   0.32077   0.00000  Uiso   1.00
C108   C     0.89711   0.13724   0.30665   0.00000  Uiso   1.00
C109   C     0.97537   0.27568   0.29249   0.00000  Uiso   1.00
C110   C     0.64354   0.15314   0.37121   0.00000  Uiso   1.00
C111   C     0.63062   0.05317   0.39950   0.00000  Uiso   1.00
C112   C     0.58701   0.15315   0.42780   0.00000  Uiso   1.00
C113   C     0.59959   0.10712   0.32077   0.00000  Uiso   1.00
C114   C     0.54971   0.96846   0.30665   0.00000  Uiso   1.00
C115   C     0.46907   0.02969   0.29249   0.00000  Uiso   1.00
H116   H     0.61205   0.57743   0.33754   0.00000  Uiso   1.00
H117   H     0.81388   0.67970   0.30660   0.00000  Uiso   1.00
H118   H     0.54743   0.59563   0.39943   0.00000  Uiso   1.00
H119   H     0.46653   0.51093   0.30660   0.00000  Uiso   1.00
H120   H     0.05071   0.70798   0.27232   0.00000  Uiso   1.00
H121   H     0.48884   0.53070   0.46806   0.00000  Uiso   1.00
H122   H     0.31824   0.35211   0.27230   0.00000  Uiso   1.00
H123   H     0.71263   0.92160   0.33761   0.00000  Uiso   1.00
H124   H     0.91999   0.98788   0.30667   0.00000  Uiso   1.00
H125   H     0.65353   0.90382   0.39951   0.00000  Uiso   1.00
H126   H     0.57263   0.81913   0.30667   0.00000  Uiso   1.00
H127   H     0.13683   0.14648   0.27238   0.00000  Uiso   1.00
H128   H     0.57495   0.96920   0.46812   0.00000  Uiso   1.00
H129   H     0.40436   0.79061   0.27236   0.00000  Uiso   1.00
O130   O     0.22837   0.48267   0.25201   0.00000  Uiso   1.00
O131   O     0.49119   0.25008   0.50881   0.00000  Uiso   1.00
O132   O     0.26738   0.01578   0.25198   0.00000  Uiso   1.00
N133   N     0.04252   0.56673   0.27657   0.00000  Uiso   1.00
N134   N     0.51721   0.40099   0.45958   0.00000  Uiso   1.00
N135   N     0.35770   0.23402   0.27657   0.00000  Uiso   1.00
N136   N     0.08886   0.26459   0.27661   0.00000  Uiso   1.00
N137   N     0.56355   0.09885   0.45961   0.00000  Uiso   1.00
N138   N     0.40404   0.93188   0.27660   0.00000  Uiso   1.00
C139   C     0.36490   0.92718   0.16245   0.00000  Uiso   1.00
C140   C     0.24130   0.89180   0.17925   0.00000  Uiso   1.00
C141   C     0.16318   0.03035   0.19339   0.00000  Uiso   1.00
C142   C     0.05428   0.96902   0.20753   0.00000  Uiso   1.00
C143   C     0.86684   0.94346   0.23361   0.00000  Uiso   1.00
C144   C     0.38606   0.84613   0.12881   0.00000  Uiso   1.00
C145   C     0.42967   0.94628   0.10054   0.00000  Uiso   1.00
C146   C     0.44264   0.84649   0.07222   0.00000  Uiso   1.00
C147   C     0.48003   0.74998   0.01999   0.00000  Uiso   1.00
C148   C     0.43000   0.80012   0.17925   0.00000  Uiso   1.00
C149   C     0.51059   0.86157   0.19339   0.00000  Uiso   1.00
C150   C     0.56058   0.72304   0.20753   0.00000  Uiso   1.00
C151   C     0.66620   0.55509   0.23362   0.00000  Uiso   1.00
C152   C     0.31041   0.57186   0.16241   0.00000  Uiso   1.00
C153   C     0.21170   0.69880   0.17923   0.00000  Uiso   1.00
C154   C     0.10289   0.63724   0.19335   0.00000  Uiso   1.00
C155   C     0.02463   0.77568   0.20751   0.00000  Uiso   1.00
C156   C     0.35646   0.65314   0.12879   0.00000  Uiso   1.00
C157   C     0.36938   0.55317   0.10050   0.00000  Uiso   1.00
C158   C     0.41299   0.65315   0.07220   0.00000  Uiso   1.00
C159   C     0.40041   0.60712   0.17923   0.00000  Uiso   1.00
C160   C     0.45029   0.46846   0.19335   0.00000  Uiso   1.00
C161   C     0.53093   0.52969   0.20751   0.00000  Uiso   1.00
H162   H     0.38795   0.07743   0.16246   0.00000  Uiso   1.00
H163   H     0.18612   0.17970   0.19340   0.00000  Uiso   1.00
H164   H     0.45257   0.09563   0.10057   0.00000  Uiso   1.00
H165   H     0.53347   0.01093   0.19340   0.00000  Uiso   1.00
H166   H     0.94929   0.20798   0.22768   0.00000  Uiso   1.00
H167   H     0.51116   0.03070   0.03194   0.00000  Uiso   1.00
H168   H     0.68176   0.85211   0.22770   0.00000  Uiso   1.00
H169   H     0.28737   0.42160   0.16239   0.00000  Uiso   1.00
H170   H     0.08001   0.48788   0.19333   0.00000  Uiso   1.00
H171   H     0.34647   0.40382   0.10049   0.00000  Uiso   1.00
H172   H     0.42737   0.31913   0.19333   0.00000  Uiso   1.00
H173   H     0.86317   0.64648   0.22762   0.00000  Uiso   1.00
H174   H     0.42505   0.46920   0.03188   0.00000  Uiso   1.00
H175   H     0.59564   0.29061   0.22764   0.00000  Uiso   1.00
O176   O     0.77163   0.98267   0.24799   0.00000  Uiso   1.00
O177   O     0.50881   0.75008   0.99119   0.00000  Uiso   1.00
O178   O     0.73262   0.51578   0.24802   0.00000  Uiso   1.00
N179   N     0.95748   0.06673   0.22343   0.00000  Uiso   1.00
N180   N     0.48279   0.90099   0.04042   0.00000  Uiso   1.00
N181   N     0.64230   0.73402   0.22343   0.00000  Uiso   1.00
N182   N     0.91114   0.76459   0.22339   0.00000  Uiso   1.00
N183   N     0.43645   0.59885   0.04039   0.00000  Uiso   1.00
N184   N     0.59596   0.43188   0.22340   0.00000  Uiso   1.00
