data_job_05350
_audit_creation_date              2018-12-19
_audit_creation_method            'Materials Studio'
_symmetry_space_group_name_H-M    'P1'
_symmetry_Int_Tables_number       1
_symmetry_cell_setting            triclinic
loop_
_symmetry_equiv_pos_as_xyz
  x,y,z
_cell_length_a                    20.8831
_cell_length_b                    9.6558
_cell_length_c                    20.0610
_cell_angle_alpha                 90.0000
_cell_angle_beta                  140.6650
_cell_angle_gamma                 90.0000
loop_
_atom_site_label
_atom_site_type_symbol
_atom_site_fract_x
_atom_site_fract_y
_atom_site_fract_z
_atom_site_U_iso_or_equiv
_atom_site_adp_type
_atom_site_occupancy
C1     C     0.21256   0.70272   0.15368   0.00000  Uiso   1.00
C2     C     0.19179   0.66534   0.20953   0.00000  Uiso   1.00
C3     C     0.11424   0.58074   0.16966   0.00000  Uiso   1.00
C4     C     0.10802   0.55927   0.23295   0.00000  Uiso   1.00
C5     C     0.06526   0.49201   0.30452   0.00000  Uiso   1.00
C6     C     0.21142   0.86049   0.14945   0.00000  Uiso   1.00
C7     C     0.15038   0.93996   0.05906   0.00000  Uiso   1.00
C8     C     0.16069   0.08276   0.07179   0.00000  Uiso   1.00
C9     C     0.14846   0.31847   0.05008   0.00000  Uiso   1.00
C10    C     0.32137   0.65930   0.22766   0.00000  Uiso   1.00
C11    C     0.35279   0.56963   0.20303   0.00000  Uiso   1.00
C12    C     0.45568   0.54306   0.28160   0.00000  Uiso   1.00
C13    C     0.61417   0.46639   0.38133   0.00000  Uiso   1.00
C14    C     0.33940   0.81503   0.33699   0.00000  Uiso   1.00
C15    C     0.26069   0.72635   0.30910   0.00000  Uiso   1.00
C16    C     0.25458   0.70499   0.37248   0.00000  Uiso   1.00
C17    C     0.17704   0.62037   0.33271   0.00000  Uiso   1.00
C18    C     0.28031   0.92149   0.24902   0.00000  Uiso   1.00
C19    C     0.29072   0.06421   0.26188   0.00000  Uiso   1.00
C20    C     0.22971   0.14387   0.17154   0.00000  Uiso   1.00
C21    C     0.39027   0.72029   0.32724   0.00000  Uiso   1.00
C22    C     0.49313   0.69388   0.40585   0.00000  Uiso   1.00
C23    C     0.52470   0.60418   0.38135   0.00000  Uiso   1.00
H24    H     0.15892   0.65524   0.07616   0.00000  Uiso   1.00
H25    H     0.06094   0.53356   0.09260   0.00000  Uiso   1.00
H26    H     0.09708   0.89272   0.98202   0.00000  Uiso   1.00
H27    H     0.29946   0.52244   0.12597   0.00000  Uiso   1.00
H28    H     0.98267   0.42561   0.15472   0.00000  Uiso   1.00
H29    H     0.05890   0.18291   0.92157   0.00000  Uiso   1.00
H30    H     0.48566   0.40211   0.22511   0.00000  Uiso   1.00
H31    H     0.39304   0.86252   0.41451   0.00000  Uiso   1.00
H32    H     0.30790   0.75222   0.44953   0.00000  Uiso   1.00
H33    H     0.34404   0.11138   0.33895   0.00000  Uiso   1.00
H34    H     0.54642   0.74110   0.48289   0.00000  Uiso   1.00
H35    H     0.18311   0.60308   0.44441   0.00000  Uiso   1.00
H36    H     0.25935   0.36039   0.21126   0.00000  Uiso   1.00
H37    H     0.68610   0.57958   0.51480   0.00000  Uiso   1.00
O38    O     0.02264   0.43808   0.31648   0.00000  Uiso   1.00
O39    O     0.12267   0.43163   0.01060   0.00000  Uiso   1.00
O40    O     0.68256   0.40723   0.40884   0.00000  Uiso   1.00
N41    N     0.04154   0.48249   0.21810   0.00000  Uiso   1.00
N42    N     0.11280   0.19052   0.00012   0.00000  Uiso   1.00
N43    N     0.51178   0.46057   0.28390   0.00000  Uiso   1.00
N44    N     0.14940   0.57799   0.37398   0.00000  Uiso   1.00
N45    N     0.22066   0.28602   0.15600   0.00000  Uiso   1.00
N46    N     0.61964   0.55606   0.43978   0.00000  Uiso   1.00
C47    C     0.78744   0.20272   0.34632   0.00000  Uiso   1.00
C48    C     0.80821   0.16534   0.29047   0.00000  Uiso   1.00
C49    C     0.88576   0.08074   0.33034   0.00000  Uiso   1.00
C50    C     0.89198   0.05927   0.26705   0.00000  Uiso   1.00
C51    C     0.93474   0.99201   0.19548   0.00000  Uiso   1.00
C52    C     0.78858   0.36049   0.35055   0.00000  Uiso   1.00
C53    C     0.84962   0.43996   0.44094   0.00000  Uiso   1.00
C54    C     0.83931   0.58276   0.42821   0.00000  Uiso   1.00
C55    C     0.85154   0.81847   0.44992   0.00000  Uiso   1.00
C56    C     0.67863   0.15930   0.27234   0.00000  Uiso   1.00
C57    C     0.64721   0.06963   0.29697   0.00000  Uiso   1.00
C58    C     0.54432   0.04306   0.21840   0.00000  Uiso   1.00
C59    C     0.38583   0.96639   0.11867   0.00000  Uiso   1.00
C60    C     0.66060   0.31503   0.16301   0.00000  Uiso   1.00
C61    C     0.73931   0.22635   0.19090   0.00000  Uiso   1.00
C62    C     0.74542   0.20499   0.12752   0.00000  Uiso   1.00
C63    C     0.82296   0.12037   0.16729   0.00000  Uiso   1.00
C64    C     0.71969   0.42149   0.25098   0.00000  Uiso   1.00
C65    C     0.70928   0.56421   0.23812   0.00000  Uiso   1.00
C66    C     0.77029   0.64387   0.32846   0.00000  Uiso   1.00
C67    C     0.60973   0.22029   0.17276   0.00000  Uiso   1.00
C68    C     0.50687   0.19388   0.09415   0.00000  Uiso   1.00
C69    C     0.47530   0.10418   0.11865   0.00000  Uiso   1.00
H70    H     0.84108   0.15524   0.42384   0.00000  Uiso   1.00
H71    H     0.93906   0.03356   0.40740   0.00000  Uiso   1.00
H72    H     0.90292   0.39272   0.51798   0.00000  Uiso   1.00
H73    H     0.70054   0.02244   0.37403   0.00000  Uiso   1.00
H74    H     0.01733   0.92561   0.34528   0.00000  Uiso   1.00
H75    H     0.94110   0.68291   0.57843   0.00000  Uiso   1.00
H76    H     0.51434   0.90211   0.27489   0.00000  Uiso   1.00
H77    H     0.60696   0.36252   0.08549   0.00000  Uiso   1.00
H78    H     0.69210   0.25222   0.05047   0.00000  Uiso   1.00
H79    H     0.65596   0.61138   0.16105   0.00000  Uiso   1.00
H80    H     0.45358   0.24110   0.01711   0.00000  Uiso   1.00
H81    H     0.81689   0.10308   0.05559   0.00000  Uiso   1.00
H82    H     0.74065   0.86039   0.28874   0.00000  Uiso   1.00
H83    H     0.31390   0.07958   0.98520   0.00000  Uiso   1.00
O84    O     0.97736   0.93808   0.18352   0.00000  Uiso   1.00
O85    O     0.87733   0.93163   0.48940   0.00000  Uiso   1.00
O86    O     0.31744   0.90723   0.09116   0.00000  Uiso   1.00
N87    N     0.95846   0.98249   0.28190   0.00000  Uiso   1.00
N88    N     0.88720   0.69052   0.49988   0.00000  Uiso   1.00
N89    N     0.48822   0.96057   0.21610   0.00000  Uiso   1.00
N90    N     0.85060   0.07799   0.12602   0.00000  Uiso   1.00
N91    N     0.77934   0.78602   0.34400   0.00000  Uiso   1.00
N92    N     0.38036   0.05606   0.06022   0.00000  Uiso   1.00
C93    C     0.78744   0.29728   0.84632   0.00000  Uiso   1.00
C94    C     0.80821   0.33466   0.79047   0.00000  Uiso   1.00
C95    C     0.88576   0.41926   0.83034   0.00000  Uiso   1.00
C96    C     0.89198   0.44073   0.76705   0.00000  Uiso   1.00
C97    C     0.93474   0.50799   0.69548   0.00000  Uiso   1.00
C98    C     0.78858   0.13951   0.85055   0.00000  Uiso   1.00
C99    C     0.84962   0.06004   0.94094   0.00000  Uiso   1.00
C100   C     0.83931   0.91724   0.92821   0.00000  Uiso   1.00
C101   C     0.85154   0.68153   0.94992   0.00000  Uiso   1.00
C102   C     0.67863   0.34070   0.77234   0.00000  Uiso   1.00
C103   C     0.64721   0.43037   0.79697   0.00000  Uiso   1.00
C104   C     0.54432   0.45694   0.71840   0.00000  Uiso   1.00
C105   C     0.38583   0.53361   0.61867   0.00000  Uiso   1.00
C106   C     0.66060   0.18497   0.66301   0.00000  Uiso   1.00
C107   C     0.73931   0.27365   0.69090   0.00000  Uiso   1.00
C108   C     0.74542   0.29501   0.62752   0.00000  Uiso   1.00
C109   C     0.82296   0.37963   0.66729   0.00000  Uiso   1.00
C110   C     0.71969   0.07851   0.75098   0.00000  Uiso   1.00
C111   C     0.70928   0.93579   0.73812   0.00000  Uiso   1.00
C112   C     0.77029   0.85613   0.82846   0.00000  Uiso   1.00
C113   C     0.60973   0.27971   0.67276   0.00000  Uiso   1.00
C114   C     0.50687   0.30612   0.59415   0.00000  Uiso   1.00
C115   C     0.47530   0.39582   0.61865   0.00000  Uiso   1.00
H116   H     0.84108   0.34476   0.92384   0.00000  Uiso   1.00
H117   H     0.93906   0.46644   0.90740   0.00000  Uiso   1.00
H118   H     0.90292   0.10728   0.01798   0.00000  Uiso   1.00
H119   H     0.70054   0.47756   0.87403   0.00000  Uiso   1.00
H120   H     0.01733   0.57439   0.84528   0.00000  Uiso   1.00
H121   H     0.94110   0.81709   0.07843   0.00000  Uiso   1.00
H122   H     0.51434   0.59789   0.77489   0.00000  Uiso   1.00
H123   H     0.60696   0.13748   0.58549   0.00000  Uiso   1.00
H124   H     0.69210   0.24778   0.55047   0.00000  Uiso   1.00
H125   H     0.65596   0.88862   0.66105   0.00000  Uiso   1.00
H126   H     0.45358   0.25890   0.51711   0.00000  Uiso   1.00
H127   H     0.81689   0.39692   0.55559   0.00000  Uiso   1.00
H128   H     0.74065   0.63961   0.78874   0.00000  Uiso   1.00
H129   H     0.31390   0.42042   0.48520   0.00000  Uiso   1.00
O130   O     0.97736   0.56192   0.68352   0.00000  Uiso   1.00
O131   O     0.87733   0.56837   0.98940   0.00000  Uiso   1.00
O132   O     0.31744   0.59277   0.59116   0.00000  Uiso   1.00
N133   N     0.95846   0.51751   0.78190   0.00000  Uiso   1.00
N134   N     0.88720   0.80948   0.99988   0.00000  Uiso   1.00
N135   N     0.48822   0.53943   0.71610   0.00000  Uiso   1.00
N136   N     0.85060   0.42201   0.62602   0.00000  Uiso   1.00
N137   N     0.77934   0.71398   0.84400   0.00000  Uiso   1.00
N138   N     0.38036   0.44394   0.56022   0.00000  Uiso   1.00
C139   C     0.21256   0.79728   0.65368   0.00000  Uiso   1.00
C140   C     0.19179   0.83466   0.70953   0.00000  Uiso   1.00
C141   C     0.11424   0.91926   0.66966   0.00000  Uiso   1.00
C142   C     0.10802   0.94073   0.73295   0.00000  Uiso   1.00
C143   C     0.06526   0.00799   0.80452   0.00000  Uiso   1.00
C144   C     0.21142   0.63951   0.64945   0.00000  Uiso   1.00
C145   C     0.15038   0.56004   0.55906   0.00000  Uiso   1.00
C146   C     0.16069   0.41724   0.57179   0.00000  Uiso   1.00
C147   C     0.14846   0.18153   0.55008   0.00000  Uiso   1.00
C148   C     0.32137   0.84070   0.72766   0.00000  Uiso   1.00
C149   C     0.35279   0.93037   0.70303   0.00000  Uiso   1.00
C150   C     0.45568   0.95694   0.78160   0.00000  Uiso   1.00
C151   C     0.61417   0.03361   0.88133   0.00000  Uiso   1.00
C152   C     0.33940   0.68497   0.83699   0.00000  Uiso   1.00
C153   C     0.26069   0.77365   0.80910   0.00000  Uiso   1.00
C154   C     0.25458   0.79501   0.87248   0.00000  Uiso   1.00
C155   C     0.17704   0.87963   0.83271   0.00000  Uiso   1.00
C156   C     0.28031   0.57851   0.74902   0.00000  Uiso   1.00
C157   C     0.29072   0.43579   0.76188   0.00000  Uiso   1.00
C158   C     0.22971   0.35613   0.67154   0.00000  Uiso   1.00
C159   C     0.39027   0.77971   0.82724   0.00000  Uiso   1.00
C160   C     0.49313   0.80612   0.90585   0.00000  Uiso   1.00
C161   C     0.52470   0.89582   0.88135   0.00000  Uiso   1.00
H162   H     0.15892   0.84476   0.57616   0.00000  Uiso   1.00
H163   H     0.06094   0.96644   0.59260   0.00000  Uiso   1.00
H164   H     0.09708   0.60728   0.48202   0.00000  Uiso   1.00
H165   H     0.29946   0.97756   0.62597   0.00000  Uiso   1.00
H166   H     0.98267   0.07439   0.65472   0.00000  Uiso   1.00
H167   H     0.05890   0.31709   0.42157   0.00000  Uiso   1.00
H168   H     0.48566   0.09789   0.72511   0.00000  Uiso   1.00
H169   H     0.39304   0.63748   0.91451   0.00000  Uiso   1.00
H170   H     0.30790   0.74778   0.94953   0.00000  Uiso   1.00
H171   H     0.34404   0.38862   0.83895   0.00000  Uiso   1.00
H172   H     0.54642   0.75890   0.98289   0.00000  Uiso   1.00
H173   H     0.18311   0.89692   0.94441   0.00000  Uiso   1.00
H174   H     0.25935   0.13961   0.71126   0.00000  Uiso   1.00
H175   H     0.68610   0.92042   0.01480   0.00000  Uiso   1.00
O176   O     0.02264   0.06192   0.81648   0.00000  Uiso   1.00
O177   O     0.12267   0.06837   0.51060   0.00000  Uiso   1.00
O178   O     0.68256   0.09277   0.90884   0.00000  Uiso   1.00
N179   N     0.04154   0.01751   0.71810   0.00000  Uiso   1.00
N180   N     0.11280   0.30948   0.50012   0.00000  Uiso   1.00
N181   N     0.51178   0.03943   0.78390   0.00000  Uiso   1.00
N182   N     0.14940   0.92201   0.87398   0.00000  Uiso   1.00
N183   N     0.22066   0.21398   0.65600   0.00000  Uiso   1.00
N184   N     0.61964   0.94394   0.93978   0.00000  Uiso   1.00
