data_job_01818
_audit_creation_date              2018-12-19
_audit_creation_method            'Materials Studio'
_symmetry_space_group_name_H-M    'P1'
_symmetry_Int_Tables_number       1
_symmetry_cell_setting            triclinic
loop_
_symmetry_equiv_pos_as_xyz
  x,y,z
_cell_length_a                    10.0991
_cell_length_b                    10.2746
_cell_length_c                    13.4007
_cell_angle_alpha                 97.1803
_cell_angle_beta                  108.0140
_cell_angle_gamma                 106.7210
loop_
_atom_site_label
_atom_site_type_symbol
_atom_site_fract_x
_atom_site_fract_y
_atom_site_fract_z
_atom_site_U_iso_or_equiv
_atom_site_adp_type
_atom_site_occupancy
C1     C     0.06119   0.20145   0.69298   0.00000  Uiso   1.00
C2     C     0.14967   0.19963   0.80758   0.00000  Uiso   1.00
C3     C     0.27305   0.15867   0.83778   0.00000  Uiso   1.00
C4     C     0.33835   0.16449   0.94665   0.00000  Uiso   1.00
C5     C     0.48424   0.15472   0.11305   0.00000  Uiso   1.00
C6     C     0.90114   0.11108   0.66984   0.00000  Uiso   1.00
C7     C     0.81555   0.99568   0.58422   0.00000  Uiso   1.00
C8     C     0.67162   0.92698   0.57715   0.00000  Uiso   1.00
C9     C     0.43163   0.77979   0.52966   0.00000  Uiso   1.00
C10    C     0.06185   0.35065   0.69722   0.00000  Uiso   1.00
C11    C     0.11136   0.43669   0.63460   0.00000  Uiso   1.00
C12    C     0.10270   0.56968   0.65056   0.00000  Uiso   1.00
C13    C     0.11225   0.79447   0.64559   0.00000  Uiso   1.00
C14    C     0.95774   0.28464   0.83264   0.00000  Uiso   1.00
C15    C     0.09348   0.24481   0.88343   0.00000  Uiso   1.00
C16    C     0.15861   0.25071   0.99230   0.00000  Uiso   1.00
C17    C     0.28207   0.20976   0.02265   0.00000  Uiso   1.00
C18    C     0.84495   0.15626   0.74569   0.00000  Uiso   1.00
C19    C     0.70111   0.08772   0.73874   0.00000  Uiso   1.00
C20    C     0.61533   0.97224   0.65314   0.00000  Uiso   1.00
C21    C     0.00567   0.39584   0.77308   0.00000  Uiso   1.00
C22    C     0.99692   0.52872   0.78913   0.00000  Uiso   1.00
C23    C     0.04641   0.61495   0.72655   0.00000  Uiso   1.00
H24    H     0.10492   0.16627   0.63392   0.00000  Uiso   1.00
H25    H     0.31649   0.12369   0.77905   0.00000  Uiso   1.00
H26    H     0.85906   0.96075   0.52553   0.00000  Uiso   1.00
H27    H     0.15483   0.40168   0.57591   0.00000  Uiso   1.00
H28    H     0.52625   0.09637   0.97340   0.00000  Uiso   1.00
H29    H     0.56171   0.75281   0.43882   0.00000  Uiso   1.00
H30    H     0.18540   0.68261   0.54505   0.00000  Uiso   1.00
H31    H     0.91399   0.31982   0.89170   0.00000  Uiso   1.00
H32    H     0.11510   0.28567   0.05098   0.00000  Uiso   1.00
H33    H     0.65766   0.12272   0.79745   0.00000  Uiso   1.00
H34    H     0.95343   0.56365   0.84784   0.00000  Uiso   1.00
H35    H     0.36279   0.22783   0.19411   0.00000  Uiso   1.00
H36    H     0.39824   0.88427   0.65952   0.00000  Uiso   1.00
H37    H     0.02193   0.81407   0.76576   0.00000  Uiso   1.00
O38    O     0.58023   0.13682   0.18388   0.00000  Uiso   1.00
O39    O     0.31478   0.68610   0.48251   0.00000  Uiso   1.00
O40    O     0.13305   0.90598   0.62190   0.00000  Uiso   1.00
N41    N     0.46020   0.13202   0.00349   0.00000  Uiso   1.00
N42    N     0.55842   0.81080   0.50369   0.00000  Uiso   1.00
N43    N     0.14148   0.68008   0.60299   0.00000  Uiso   1.00
N44    N     0.37224   0.20276   0.12225   0.00000  Uiso   1.00
N45    N     0.47046   0.88154   0.62245   0.00000  Uiso   1.00
N46    N     0.05352   0.75081   0.72176   0.00000  Uiso   1.00
C47    C     0.93881   0.79855   0.30702   0.00000  Uiso   1.00
C48    C     0.85033   0.80037   0.19242   0.00000  Uiso   1.00
C49    C     0.72695   0.84133   0.16222   0.00000  Uiso   1.00
C50    C     0.66165   0.83551   0.05335   0.00000  Uiso   1.00
C51    C     0.51576   0.84528   0.88695   0.00000  Uiso   1.00
C52    C     0.09886   0.88892   0.33016   0.00000  Uiso   1.00
C53    C     0.18445   0.00432   0.41578   0.00000  Uiso   1.00
C54    C     0.32838   0.07302   0.42285   0.00000  Uiso   1.00
C55    C     0.56837   0.22021   0.47034   0.00000  Uiso   1.00
C56    C     0.93815   0.64935   0.30278   0.00000  Uiso   1.00
C57    C     0.88864   0.56331   0.36540   0.00000  Uiso   1.00
C58    C     0.89730   0.43032   0.34944   0.00000  Uiso   1.00
C59    C     0.88775   0.20553   0.35441   0.00000  Uiso   1.00
C60    C     0.04226   0.71536   0.16736   0.00000  Uiso   1.00
C61    C     0.90652   0.75519   0.11657   0.00000  Uiso   1.00
C62    C     0.84139   0.74929   0.00770   0.00000  Uiso   1.00
C63    C     0.71793   0.79024   0.97735   0.00000  Uiso   1.00
C64    C     0.15505   0.84374   0.25431   0.00000  Uiso   1.00
C65    C     0.29889   0.91228   0.26126   0.00000  Uiso   1.00
C66    C     0.38467   0.02776   0.34686   0.00000  Uiso   1.00
C67    C     0.99433   0.60416   0.22692   0.00000  Uiso   1.00
C68    C     0.00308   0.47128   0.21087   0.00000  Uiso   1.00
C69    C     0.95359   0.38505   0.27345   0.00000  Uiso   1.00
H70    H     0.89508   0.83373   0.36608   0.00000  Uiso   1.00
H71    H     0.68351   0.87631   0.22095   0.00000  Uiso   1.00
H72    H     0.14094   0.03925   0.47447   0.00000  Uiso   1.00
H73    H     0.84517   0.59832   0.42409   0.00000  Uiso   1.00
H74    H     0.47375   0.90363   0.02660   0.00000  Uiso   1.00
H75    H     0.43829   0.24719   0.56118   0.00000  Uiso   1.00
H76    H     0.81460   0.31739   0.45495   0.00000  Uiso   1.00
H77    H     0.08601   0.68018   0.10830   0.00000  Uiso   1.00
H78    H     0.88490   0.71433   0.94902   0.00000  Uiso   1.00
H79    H     0.34234   0.87728   0.20255   0.00000  Uiso   1.00
H80    H     0.04657   0.43635   0.15216   0.00000  Uiso   1.00
H81    H     0.63721   0.77217   0.80589   0.00000  Uiso   1.00
H82    H     0.60176   0.11573   0.34048   0.00000  Uiso   1.00
H83    H     0.97807   0.18593   0.23424   0.00000  Uiso   1.00
O84    O     0.41977   0.86318   0.81612   0.00000  Uiso   1.00
O85    O     0.68522   0.31390   0.51749   0.00000  Uiso   1.00
O86    O     0.86695   0.09402   0.37810   0.00000  Uiso   1.00
N87    N     0.53980   0.86798   0.99651   0.00000  Uiso   1.00
N88    N     0.44158   0.18920   0.49631   0.00000  Uiso   1.00
N89    N     0.85852   0.31992   0.39701   0.00000  Uiso   1.00
N90    N     0.62776   0.79724   0.87775   0.00000  Uiso   1.00
N91    N     0.52954   0.11846   0.37755   0.00000  Uiso   1.00
N92    N     0.94648   0.24919   0.27824   0.00000  Uiso   1.00
