data_job_02148
_audit_creation_date              2018-12-19
_audit_creation_method            'Materials Studio'
_symmetry_space_group_name_H-M    'P1'
_symmetry_Int_Tables_number       1
_symmetry_cell_setting            triclinic
loop_
_symmetry_equiv_pos_as_xyz
  x,y,z
_cell_length_a                    21.0421
_cell_length_b                    16.2557
_cell_length_c                    13.2394
_cell_angle_alpha                 90.0000
_cell_angle_beta                  148.3539
_cell_angle_gamma                 90.0000
loop_
_atom_site_label
_atom_site_type_symbol
_atom_site_fract_x
_atom_site_fract_y
_atom_site_fract_z
_atom_site_U_iso_or_equiv
_atom_site_adp_type
_atom_site_occupancy
C1     C     0.32835   0.21916   0.24280   0.00000  Uiso   1.00
C2     C     0.44164   0.18730   0.44911   0.00000  Uiso   1.00
C3     C     0.52984   0.13762   0.52537   0.00000  Uiso   1.00
C4     C     0.62653   0.11507   0.71726   0.00000  Uiso   1.00
C5     C     0.80119   0.06158   0.02063   0.00000  Uiso   1.00
C6     C     0.22142   0.19071   0.16211   0.00000  Uiso   1.00
C7     C     0.12445   0.14389   0.99705   0.00000  Uiso   1.00
C8     C     0.03575   0.12422   0.94734   0.00000  Uiso   1.00
C9     C     0.86846   0.07606   0.80506   0.00000  Uiso   1.00
C10    C     0.33217   0.31259   0.25779   0.00000  Uiso   1.00
C11    C     0.32829   0.36826   0.17313   0.00000  Uiso   1.00
C12    C     0.33281   0.45122   0.20394   0.00000  Uiso   1.00
C13    C     0.33748   0.59230   0.21021   0.00000  Uiso   1.00
C14    C     0.34322   0.26749   0.44798   0.00000  Uiso   1.00
C15    C     0.44971   0.21355   0.56055   0.00000  Uiso   1.00
C16    C     0.54629   0.19108   0.75238   0.00000  Uiso   1.00
C17    C     0.63463   0.14137   0.82892   0.00000  Uiso   1.00
C18    C     0.22949   0.21695   0.27355   0.00000  Uiso   1.00
C19    C     0.14090   0.19736   0.22406   0.00000  Uiso   1.00
C20    C     0.04384   0.15052   0.05899   0.00000  Uiso   1.00
C21    C     0.34025   0.33884   0.36924   0.00000  Uiso   1.00
C22    C     0.34475   0.42173   0.40016   0.00000  Uiso   1.00
C23    C     0.34089   0.47751   0.31559   0.00000  Uiso   1.00
H24    H     0.32205   0.19873   0.15602   0.00000  Uiso   1.00
H25    H     0.52355   0.11731   0.43907   0.00000  Uiso   1.00
H26    H     0.11822   0.12359   0.91083   0.00000  Uiso   1.00
H27    H     0.32204   0.34793   0.08690   0.00000  Uiso   1.00
H28    H     0.75050   0.03859   0.80201   0.00000  Uiso   1.00
H29    H     0.89581   0.05187   0.68814   0.00000  Uiso   1.00
H30    H     0.32560   0.52492   0.05942   0.00000  Uiso   1.00
H31    H     0.34950   0.28793   0.53475   0.00000  Uiso   1.00
H32    H     0.55252   0.21140   0.83859   0.00000  Uiso   1.00
H33    H     0.14718   0.21769   0.31034   0.00000  Uiso   1.00
H34    H     0.35100   0.44202   0.48641   0.00000  Uiso   1.00
H35    H     0.77400   0.11496   0.12627   0.00000  Uiso   1.00
H36    H     0.91931   0.12824   0.01239   0.00000  Uiso   1.00
H37    H     0.34910   0.60129   0.38368   0.00000  Uiso   1.00
O38    O     0.89528   0.02481   0.15716   0.00000  Uiso   1.00
O39    O     0.77396   0.04223   0.69579   0.00000  Uiso   1.00
O40    O     0.33784   0.66286   0.18291   0.00000  Uiso   1.00
N41    N     0.72818   0.06708   0.83664   0.00000  Uiso   1.00
N42    N     0.92911   0.07948   0.79525   0.00000  Uiso   1.00
N43    N     0.33089   0.52175   0.14232   0.00000  Uiso   1.00
N44    N     0.74083   0.10818   0.01112   0.00000  Uiso   1.00
N45    N     0.94175   0.12057   0.96974   0.00000  Uiso   1.00
N46    N     0.34354   0.56284   0.31681   0.00000  Uiso   1.00
C47    C     0.67165   0.71916   0.25720   0.00000  Uiso   1.00
C48    C     0.55836   0.68730   0.05089   0.00000  Uiso   1.00
C49    C     0.47016   0.63762   0.97463   0.00000  Uiso   1.00
C50    C     0.37347   0.61507   0.78274   0.00000  Uiso   1.00
C51    C     0.19881   0.56158   0.47937   0.00000  Uiso   1.00
C52    C     0.77858   0.69071   0.33789   0.00000  Uiso   1.00
C53    C     0.87555   0.64389   0.50295   0.00000  Uiso   1.00
C54    C     0.96425   0.62422   0.55266   0.00000  Uiso   1.00
C55    C     0.13154   0.57606   0.69494   0.00000  Uiso   1.00
C56    C     0.66783   0.81259   0.24221   0.00000  Uiso   1.00
C57    C     0.67171   0.86826   0.32687   0.00000  Uiso   1.00
C58    C     0.66719   0.95122   0.29606   0.00000  Uiso   1.00
C59    C     0.66252   0.09230   0.28979   0.00000  Uiso   1.00
C60    C     0.65678   0.76749   0.05202   0.00000  Uiso   1.00
C61    C     0.55029   0.71355   0.93945   0.00000  Uiso   1.00
C62    C     0.45371   0.69108   0.74762   0.00000  Uiso   1.00
C63    C     0.36537   0.64137   0.67108   0.00000  Uiso   1.00
C64    C     0.77051   0.71695   0.22645   0.00000  Uiso   1.00
C65    C     0.85910   0.69736   0.27594   0.00000  Uiso   1.00
C66    C     0.95616   0.65052   0.44101   0.00000  Uiso   1.00
C67    C     0.65975   0.83884   0.13076   0.00000  Uiso   1.00
C68    C     0.65525   0.92173   0.09984   0.00000  Uiso   1.00
C69    C     0.65911   0.97751   0.18441   0.00000  Uiso   1.00
H70    H     0.67795   0.69873   0.34398   0.00000  Uiso   1.00
H71    H     0.47645   0.61731   0.06093   0.00000  Uiso   1.00
H72    H     0.88178   0.62359   0.58917   0.00000  Uiso   1.00
H73    H     0.67796   0.84793   0.41310   0.00000  Uiso   1.00
H74    H     0.24950   0.53859   0.69799   0.00000  Uiso   1.00
H75    H     0.10419   0.55187   0.81186   0.00000  Uiso   1.00
H76    H     0.67440   0.02492   0.44058   0.00000  Uiso   1.00
H77    H     0.65050   0.78793   0.96525   0.00000  Uiso   1.00
H78    H     0.44748   0.71140   0.66141   0.00000  Uiso   1.00
H79    H     0.85282   0.71769   0.18966   0.00000  Uiso   1.00
H80    H     0.64900   0.94202   0.01359   0.00000  Uiso   1.00
H81    H     0.22600   0.61496   0.37373   0.00000  Uiso   1.00
H82    H     0.08069   0.62824   0.48761   0.00000  Uiso   1.00
H83    H     0.65090   0.10129   0.11632   0.00000  Uiso   1.00
O84    O     0.10472   0.52481   0.34284   0.00000  Uiso   1.00
O85    O     0.22604   0.54223   0.80421   0.00000  Uiso   1.00
O86    O     0.66216   0.16286   0.31709   0.00000  Uiso   1.00
N87    N     0.27182   0.56708   0.66336   0.00000  Uiso   1.00
N88    N     0.07089   0.57948   0.70475   0.00000  Uiso   1.00
N89    N     0.66911   0.02175   0.35768   0.00000  Uiso   1.00
N90    N     0.25917   0.60818   0.48888   0.00000  Uiso   1.00
N91    N     0.05825   0.62057   0.53026   0.00000  Uiso   1.00
N92    N     0.65646   0.06284   0.18319   0.00000  Uiso   1.00
C93    C     0.67165   0.78084   0.75720   0.00000  Uiso   1.00
C94    C     0.55836   0.81270   0.55089   0.00000  Uiso   1.00
C95    C     0.47016   0.86238   0.47463   0.00000  Uiso   1.00
C96    C     0.37347   0.88493   0.28274   0.00000  Uiso   1.00
C97    C     0.19881   0.93842   0.97937   0.00000  Uiso   1.00
C98    C     0.77858   0.80929   0.83789   0.00000  Uiso   1.00
C99    C     0.87555   0.85611   0.00295   0.00000  Uiso   1.00
C100   C     0.96425   0.87578   0.05266   0.00000  Uiso   1.00
C101   C     0.13154   0.92394   0.19494   0.00000  Uiso   1.00
C102   C     0.66783   0.68741   0.74221   0.00000  Uiso   1.00
C103   C     0.67171   0.63174   0.82687   0.00000  Uiso   1.00
C104   C     0.66719   0.54878   0.79606   0.00000  Uiso   1.00
C105   C     0.66252   0.40770   0.78979   0.00000  Uiso   1.00
C106   C     0.65678   0.73251   0.55202   0.00000  Uiso   1.00
C107   C     0.55029   0.78645   0.43945   0.00000  Uiso   1.00
C108   C     0.45371   0.80892   0.24762   0.00000  Uiso   1.00
C109   C     0.36537   0.85863   0.17108   0.00000  Uiso   1.00
C110   C     0.77051   0.78305   0.72645   0.00000  Uiso   1.00
C111   C     0.85910   0.80264   0.77594   0.00000  Uiso   1.00
C112   C     0.95616   0.84948   0.94101   0.00000  Uiso   1.00
C113   C     0.65975   0.66116   0.63076   0.00000  Uiso   1.00
C114   C     0.65525   0.57827   0.59984   0.00000  Uiso   1.00
C115   C     0.65911   0.52249   0.68441   0.00000  Uiso   1.00
H116   H     0.67795   0.80127   0.84398   0.00000  Uiso   1.00
H117   H     0.47645   0.88269   0.56093   0.00000  Uiso   1.00
H118   H     0.88178   0.87641   0.08917   0.00000  Uiso   1.00
H119   H     0.67796   0.65207   0.91310   0.00000  Uiso   1.00
H120   H     0.24950   0.96141   0.19799   0.00000  Uiso   1.00
H121   H     0.10419   0.94813   0.31186   0.00000  Uiso   1.00
H122   H     0.67440   0.47508   0.94058   0.00000  Uiso   1.00
H123   H     0.65050   0.71207   0.46525   0.00000  Uiso   1.00
H124   H     0.44748   0.78860   0.16141   0.00000  Uiso   1.00
H125   H     0.85282   0.78231   0.68966   0.00000  Uiso   1.00
H126   H     0.64900   0.55798   0.51359   0.00000  Uiso   1.00
H127   H     0.22600   0.88504   0.87373   0.00000  Uiso   1.00
H128   H     0.08069   0.87176   0.98761   0.00000  Uiso   1.00
H129   H     0.65090   0.39871   0.61632   0.00000  Uiso   1.00
O130   O     0.10472   0.97519   0.84284   0.00000  Uiso   1.00
O131   O     0.22604   0.95777   0.30421   0.00000  Uiso   1.00
O132   O     0.66216   0.33714   0.81709   0.00000  Uiso   1.00
N133   N     0.27182   0.93292   0.16336   0.00000  Uiso   1.00
N134   N     0.07089   0.92052   0.20475   0.00000  Uiso   1.00
N135   N     0.66911   0.47825   0.85768   0.00000  Uiso   1.00
N136   N     0.25917   0.89182   0.98888   0.00000  Uiso   1.00
N137   N     0.05825   0.87943   0.03026   0.00000  Uiso   1.00
N138   N     0.65646   0.43716   0.68319   0.00000  Uiso   1.00
C139   C     0.32835   0.28084   0.74280   0.00000  Uiso   1.00
C140   C     0.44164   0.31270   0.94911   0.00000  Uiso   1.00
C141   C     0.52984   0.36238   0.02537   0.00000  Uiso   1.00
C142   C     0.62653   0.38493   0.21726   0.00000  Uiso   1.00
C143   C     0.80119   0.43842   0.52063   0.00000  Uiso   1.00
C144   C     0.22142   0.30929   0.66211   0.00000  Uiso   1.00
C145   C     0.12445   0.35611   0.49705   0.00000  Uiso   1.00
C146   C     0.03575   0.37578   0.44734   0.00000  Uiso   1.00
C147   C     0.86846   0.42394   0.30506   0.00000  Uiso   1.00
C148   C     0.33217   0.18741   0.75779   0.00000  Uiso   1.00
C149   C     0.32829   0.13174   0.67313   0.00000  Uiso   1.00
C150   C     0.33281   0.04878   0.70394   0.00000  Uiso   1.00
C151   C     0.33748   0.90770   0.71021   0.00000  Uiso   1.00
C152   C     0.34322   0.23251   0.94798   0.00000  Uiso   1.00
C153   C     0.44971   0.28645   0.06055   0.00000  Uiso   1.00
C154   C     0.54629   0.30892   0.25238   0.00000  Uiso   1.00
C155   C     0.63463   0.35863   0.32892   0.00000  Uiso   1.00
C156   C     0.22949   0.28305   0.77355   0.00000  Uiso   1.00
C157   C     0.14090   0.30264   0.72406   0.00000  Uiso   1.00
C158   C     0.04384   0.34948   0.55899   0.00000  Uiso   1.00
C159   C     0.34025   0.16116   0.86924   0.00000  Uiso   1.00
C160   C     0.34475   0.07827   0.90016   0.00000  Uiso   1.00
C161   C     0.34089   0.02249   0.81559   0.00000  Uiso   1.00
H162   H     0.32205   0.30127   0.65602   0.00000  Uiso   1.00
H163   H     0.52355   0.38269   0.93907   0.00000  Uiso   1.00
H164   H     0.11822   0.37641   0.41083   0.00000  Uiso   1.00
H165   H     0.32204   0.15207   0.58690   0.00000  Uiso   1.00
H166   H     0.75050   0.46141   0.30201   0.00000  Uiso   1.00
H167   H     0.89581   0.44813   0.18814   0.00000  Uiso   1.00
H168   H     0.32560   0.97508   0.55942   0.00000  Uiso   1.00
H169   H     0.34950   0.21207   0.03475   0.00000  Uiso   1.00
H170   H     0.55252   0.28860   0.33859   0.00000  Uiso   1.00
H171   H     0.14718   0.28231   0.81034   0.00000  Uiso   1.00
H172   H     0.35100   0.05798   0.98641   0.00000  Uiso   1.00
H173   H     0.77400   0.38504   0.62627   0.00000  Uiso   1.00
H174   H     0.91931   0.37176   0.51239   0.00000  Uiso   1.00
H175   H     0.34910   0.89871   0.88368   0.00000  Uiso   1.00
O176   O     0.89528   0.47519   0.65716   0.00000  Uiso   1.00
O177   O     0.77396   0.45777   0.19579   0.00000  Uiso   1.00
O178   O     0.33784   0.83714   0.68291   0.00000  Uiso   1.00
N179   N     0.72818   0.43292   0.33664   0.00000  Uiso   1.00
N180   N     0.92911   0.42052   0.29525   0.00000  Uiso   1.00
N181   N     0.33089   0.97825   0.64232   0.00000  Uiso   1.00
N182   N     0.74083   0.39182   0.51112   0.00000  Uiso   1.00
N183   N     0.94175   0.37943   0.46974   0.00000  Uiso   1.00
N184   N     0.34354   0.93716   0.81681   0.00000  Uiso   1.00
