data_job_05852
_audit_creation_date              2018-12-19
_audit_creation_method            'Materials Studio'
_symmetry_space_group_name_H-M    'P1'
_symmetry_Int_Tables_number       1
_symmetry_cell_setting            triclinic
loop_
_symmetry_equiv_pos_as_xyz
  x,y,z
_cell_length_a                    34.9642
_cell_length_b                    34.9642
_cell_length_c                    7.3450
_cell_angle_alpha                 90.0000
_cell_angle_beta                  90.0000
_cell_angle_gamma                 90.0000
loop_
_atom_site_label
_atom_site_type_symbol
_atom_site_fract_x
_atom_site_fract_y
_atom_site_fract_z
_atom_site_U_iso_or_equiv
_atom_site_adp_type
_atom_site_occupancy
C1     C     0.18324   0.57003   0.36523   0.00000  Uiso   1.00
C2     C     0.20740   0.53936   0.45774   0.00000  Uiso   1.00
C3     C     0.22972   0.51225   0.36966   0.00000  Uiso   1.00
C4     C     0.24967   0.48667   0.47864   0.00000  Uiso   1.00
C5     C     0.28752   0.43879   0.59336   0.00000  Uiso   1.00
C6     C     0.14257   0.56448   0.43544   0.00000  Uiso   1.00
C7     C     0.11039   0.55850   0.32859   0.00000  Uiso   1.00
C8     C     0.07577   0.55407   0.41881   0.00000  Uiso   1.00
C9     C     0.01297   0.54523   0.49889   0.00000  Uiso   1.00
C10    C     0.19684   0.60816   0.44248   0.00000  Uiso   1.00
C11    C     0.21027   0.63891   0.34155   0.00000  Uiso   1.00
C12    C     0.22134   0.67126   0.43769   0.00000  Uiso   1.00
C13    C     0.24279   0.73024   0.52871   0.00000  Uiso   1.00
C14    C     0.17900   0.57281   0.71543   0.00000  Uiso   1.00
C15    C     0.20509   0.54087   0.64796   0.00000  Uiso   1.00
C16    C     0.22502   0.51532   0.75711   0.00000  Uiso   1.00
C17    C     0.24736   0.48818   0.66920   0.00000  Uiso   1.00
C18    C     0.14027   0.56599   0.62565   0.00000  Uiso   1.00
C19    C     0.10569   0.56157   0.71604   0.00000  Uiso   1.00
C20    C     0.07346   0.55558   0.60936   0.00000  Uiso   1.00
C21    C     0.19454   0.60967   0.63270   0.00000  Uiso   1.00
C22    C     0.20558   0.64198   0.72901   0.00000  Uiso   1.00
C23    C     0.21903   0.67277   0.62825   0.00000  Uiso   1.00
H24    H     0.18503   0.56886   0.21714   0.00000  Uiso   1.00
H25    H     0.23149   0.51109   0.22245   0.00000  Uiso   1.00
H26    H     0.11218   0.55733   0.18139   0.00000  Uiso   1.00
H27    H     0.21205   0.63773   0.19436   0.00000  Uiso   1.00
H28    H     0.28197   0.44769   0.31222   0.00000  Uiso   1.00
H29    H     0.03040   0.54522   0.22565   0.00000  Uiso   1.00
H30    H     0.24099   0.71476   0.25298   0.00000  Uiso   1.00
H31    H     0.17720   0.57398   0.86352   0.00000  Uiso   1.00
H32    H     0.22323   0.51649   0.90431   0.00000  Uiso   1.00
H33    H     0.10392   0.56274   0.86324   0.00000  Uiso   1.00
H34    H     0.20379   0.64314   0.87621   0.00000  Uiso   1.00
H35    H     0.27526   0.45208   0.86564   0.00000  Uiso   1.00
H36    H     0.02369   0.54961   0.77906   0.00000  Uiso   1.00
H37    H     0.23429   0.71915   0.80640   0.00000  Uiso   1.00
O38    O     0.30902   0.41197   0.60409   0.00000  Uiso   1.00
O39    O     0.97897   0.53993   0.49051   0.00000  Uiso   1.00
O40    O     0.25527   0.76235   0.52637   0.00000  Uiso   1.00
N41    N     0.27408   0.45662   0.43687   0.00000  Uiso   1.00
N42    N     0.03887   0.54780   0.35593   0.00000  Uiso   1.00
N43    N     0.23575   0.70630   0.38148   0.00000  Uiso   1.00
N44    N     0.27047   0.45898   0.73466   0.00000  Uiso   1.00
N45    N     0.03527   0.55016   0.65372   0.00000  Uiso   1.00
N46    N     0.23215   0.70866   0.67927   0.00000  Uiso   1.00
C47    C     0.68324   0.07003   0.86523   0.00000  Uiso   1.00
C48    C     0.70740   0.03936   0.95774   0.00000  Uiso   1.00
C49    C     0.72972   0.01225   0.86966   0.00000  Uiso   1.00
C50    C     0.74967   0.98667   0.97864   0.00000  Uiso   1.00
C51    C     0.78752   0.93879   0.09336   0.00000  Uiso   1.00
C52    C     0.64257   0.06448   0.93544   0.00000  Uiso   1.00
C53    C     0.61039   0.05850   0.82859   0.00000  Uiso   1.00
C54    C     0.57577   0.05407   0.91881   0.00000  Uiso   1.00
C55    C     0.51297   0.04523   0.99889   0.00000  Uiso   1.00
C56    C     0.69684   0.10816   0.94248   0.00000  Uiso   1.00
C57    C     0.71027   0.13891   0.84155   0.00000  Uiso   1.00
C58    C     0.72134   0.17126   0.93769   0.00000  Uiso   1.00
C59    C     0.74279   0.23024   0.02871   0.00000  Uiso   1.00
C60    C     0.67900   0.07281   0.21543   0.00000  Uiso   1.00
C61    C     0.70509   0.04087   0.14796   0.00000  Uiso   1.00
C62    C     0.72502   0.01532   0.25711   0.00000  Uiso   1.00
C63    C     0.74736   0.98818   0.16920   0.00000  Uiso   1.00
C64    C     0.64027   0.06599   0.12565   0.00000  Uiso   1.00
C65    C     0.60569   0.06157   0.21604   0.00000  Uiso   1.00
C66    C     0.57346   0.05558   0.10936   0.00000  Uiso   1.00
C67    C     0.69454   0.10967   0.13270   0.00000  Uiso   1.00
C68    C     0.70558   0.14198   0.22901   0.00000  Uiso   1.00
C69    C     0.71903   0.17277   0.12825   0.00000  Uiso   1.00
H70    H     0.68503   0.06886   0.71714   0.00000  Uiso   1.00
H71    H     0.73149   0.01109   0.72245   0.00000  Uiso   1.00
H72    H     0.61218   0.05733   0.68139   0.00000  Uiso   1.00
H73    H     0.71205   0.13773   0.69436   0.00000  Uiso   1.00
H74    H     0.78197   0.94769   0.81222   0.00000  Uiso   1.00
H75    H     0.53040   0.04522   0.72565   0.00000  Uiso   1.00
H76    H     0.74099   0.21476   0.75298   0.00000  Uiso   1.00
H77    H     0.67720   0.07398   0.36352   0.00000  Uiso   1.00
H78    H     0.72323   0.01649   0.40431   0.00000  Uiso   1.00
H79    H     0.60392   0.06274   0.36324   0.00000  Uiso   1.00
H80    H     0.70379   0.14314   0.37621   0.00000  Uiso   1.00
H81    H     0.77526   0.95208   0.36564   0.00000  Uiso   1.00
H82    H     0.52369   0.04961   0.27906   0.00000  Uiso   1.00
H83    H     0.73429   0.21915   0.30640   0.00000  Uiso   1.00
O84    O     0.80902   0.91197   0.10409   0.00000  Uiso   1.00
O85    O     0.47897   0.03993   0.99051   0.00000  Uiso   1.00
O86    O     0.75527   0.26235   0.02637   0.00000  Uiso   1.00
N87    N     0.77408   0.95662   0.93687   0.00000  Uiso   1.00
N88    N     0.53887   0.04780   0.85593   0.00000  Uiso   1.00
N89    N     0.73575   0.20630   0.88148   0.00000  Uiso   1.00
N90    N     0.77047   0.95898   0.23466   0.00000  Uiso   1.00
N91    N     0.53527   0.05016   0.15372   0.00000  Uiso   1.00
N92    N     0.73215   0.20866   0.17927   0.00000  Uiso   1.00
C93    C     0.81676   0.42997   0.36523   0.00000  Uiso   1.00
C94    C     0.79260   0.46064   0.45774   0.00000  Uiso   1.00
C95    C     0.77028   0.48775   0.36966   0.00000  Uiso   1.00
C96    C     0.75033   0.51333   0.47864   0.00000  Uiso   1.00
C97    C     0.71248   0.56121   0.59336   0.00000  Uiso   1.00
C98    C     0.85743   0.43552   0.43544   0.00000  Uiso   1.00
C99    C     0.88961   0.44150   0.32859   0.00000  Uiso   1.00
C100   C     0.92423   0.44593   0.41881   0.00000  Uiso   1.00
C101   C     0.98703   0.45477   0.49889   0.00000  Uiso   1.00
C102   C     0.80316   0.39184   0.44248   0.00000  Uiso   1.00
C103   C     0.78973   0.36109   0.34155   0.00000  Uiso   1.00
C104   C     0.77866   0.32874   0.43769   0.00000  Uiso   1.00
C105   C     0.75721   0.26976   0.52871   0.00000  Uiso   1.00
C106   C     0.82100   0.42719   0.71543   0.00000  Uiso   1.00
C107   C     0.79491   0.45913   0.64796   0.00000  Uiso   1.00
C108   C     0.77498   0.48468   0.75711   0.00000  Uiso   1.00
C109   C     0.75264   0.51182   0.66920   0.00000  Uiso   1.00
C110   C     0.85973   0.43401   0.62565   0.00000  Uiso   1.00
C111   C     0.89431   0.43843   0.71604   0.00000  Uiso   1.00
C112   C     0.92654   0.44442   0.60936   0.00000  Uiso   1.00
C113   C     0.80546   0.39033   0.63270   0.00000  Uiso   1.00
C114   C     0.79442   0.35802   0.72901   0.00000  Uiso   1.00
C115   C     0.78097   0.32723   0.62825   0.00000  Uiso   1.00
H116   H     0.81497   0.43114   0.21714   0.00000  Uiso   1.00
H117   H     0.76851   0.48891   0.22245   0.00000  Uiso   1.00
H118   H     0.88782   0.44267   0.18139   0.00000  Uiso   1.00
H119   H     0.78795   0.36227   0.19436   0.00000  Uiso   1.00
H120   H     0.71803   0.55231   0.31222   0.00000  Uiso   1.00
H121   H     0.96960   0.45478   0.22565   0.00000  Uiso   1.00
H122   H     0.75901   0.28524   0.25298   0.00000  Uiso   1.00
H123   H     0.82280   0.42602   0.86352   0.00000  Uiso   1.00
H124   H     0.77677   0.48351   0.90431   0.00000  Uiso   1.00
H125   H     0.89608   0.43726   0.86324   0.00000  Uiso   1.00
H126   H     0.79621   0.35686   0.87621   0.00000  Uiso   1.00
H127   H     0.72474   0.54792   0.86564   0.00000  Uiso   1.00
H128   H     0.97631   0.45039   0.77906   0.00000  Uiso   1.00
H129   H     0.76571   0.28085   0.80640   0.00000  Uiso   1.00
O130   O     0.69098   0.58803   0.60409   0.00000  Uiso   1.00
O131   O     0.02103   0.46007   0.49051   0.00000  Uiso   1.00
O132   O     0.74473   0.23765   0.52637   0.00000  Uiso   1.00
N133   N     0.72592   0.54338   0.43687   0.00000  Uiso   1.00
N134   N     0.96113   0.45220   0.35593   0.00000  Uiso   1.00
N135   N     0.76425   0.29370   0.38148   0.00000  Uiso   1.00
N136   N     0.72953   0.54102   0.73466   0.00000  Uiso   1.00
N137   N     0.96473   0.44984   0.65372   0.00000  Uiso   1.00
N138   N     0.76785   0.29134   0.67927   0.00000  Uiso   1.00
C139   C     0.31676   0.92997   0.86523   0.00000  Uiso   1.00
C140   C     0.29260   0.96064   0.95774   0.00000  Uiso   1.00
C141   C     0.27028   0.98775   0.86966   0.00000  Uiso   1.00
C142   C     0.25033   0.01333   0.97864   0.00000  Uiso   1.00
C143   C     0.21248   0.06121   0.09336   0.00000  Uiso   1.00
C144   C     0.35743   0.93552   0.93544   0.00000  Uiso   1.00
C145   C     0.38961   0.94150   0.82859   0.00000  Uiso   1.00
C146   C     0.42423   0.94593   0.91881   0.00000  Uiso   1.00
C147   C     0.48703   0.95477   0.99889   0.00000  Uiso   1.00
C148   C     0.30316   0.89184   0.94248   0.00000  Uiso   1.00
C149   C     0.28973   0.86109   0.84155   0.00000  Uiso   1.00
C150   C     0.27866   0.82874   0.93769   0.00000  Uiso   1.00
C151   C     0.25721   0.76976   0.02871   0.00000  Uiso   1.00
C152   C     0.32100   0.92719   0.21543   0.00000  Uiso   1.00
C153   C     0.29491   0.95913   0.14796   0.00000  Uiso   1.00
C154   C     0.27498   0.98468   0.25711   0.00000  Uiso   1.00
C155   C     0.25264   0.01182   0.16920   0.00000  Uiso   1.00
C156   C     0.35973   0.93401   0.12565   0.00000  Uiso   1.00
C157   C     0.39431   0.93843   0.21604   0.00000  Uiso   1.00
C158   C     0.42654   0.94442   0.10936   0.00000  Uiso   1.00
C159   C     0.30546   0.89033   0.13270   0.00000  Uiso   1.00
C160   C     0.29442   0.85802   0.22901   0.00000  Uiso   1.00
C161   C     0.28097   0.82723   0.12825   0.00000  Uiso   1.00
H162   H     0.31497   0.93114   0.71714   0.00000  Uiso   1.00
H163   H     0.26851   0.98891   0.72245   0.00000  Uiso   1.00
H164   H     0.38782   0.94267   0.68139   0.00000  Uiso   1.00
H165   H     0.28795   0.86227   0.69436   0.00000  Uiso   1.00
H166   H     0.21803   0.05231   0.81222   0.00000  Uiso   1.00
H167   H     0.46960   0.95478   0.72565   0.00000  Uiso   1.00
H168   H     0.25901   0.78524   0.75298   0.00000  Uiso   1.00
H169   H     0.32280   0.92602   0.36352   0.00000  Uiso   1.00
H170   H     0.27677   0.98351   0.40431   0.00000  Uiso   1.00
H171   H     0.39608   0.93726   0.36324   0.00000  Uiso   1.00
H172   H     0.29621   0.85686   0.37621   0.00000  Uiso   1.00
H173   H     0.22474   0.04792   0.36564   0.00000  Uiso   1.00
H174   H     0.47631   0.95039   0.27906   0.00000  Uiso   1.00
H175   H     0.26571   0.78085   0.30640   0.00000  Uiso   1.00
O176   O     0.19098   0.08803   0.10409   0.00000  Uiso   1.00
O177   O     0.52103   0.96007   0.99051   0.00000  Uiso   1.00
O178   O     0.24473   0.73765   0.02637   0.00000  Uiso   1.00
N179   N     0.22592   0.04338   0.93687   0.00000  Uiso   1.00
N180   N     0.46113   0.95220   0.85593   0.00000  Uiso   1.00
N181   N     0.26425   0.79370   0.88148   0.00000  Uiso   1.00
N182   N     0.22953   0.04102   0.23466   0.00000  Uiso   1.00
N183   N     0.46473   0.94984   0.15372   0.00000  Uiso   1.00
N184   N     0.26785   0.79134   0.17927   0.00000  Uiso   1.00
C185   C     0.57003   0.81676   0.63477   0.00000  Uiso   1.00
C186   C     0.53936   0.79260   0.54226   0.00000  Uiso   1.00
C187   C     0.51225   0.77028   0.63034   0.00000  Uiso   1.00
C188   C     0.48667   0.75033   0.52136   0.00000  Uiso   1.00
C189   C     0.43879   0.71248   0.40664   0.00000  Uiso   1.00
C190   C     0.56448   0.85743   0.56456   0.00000  Uiso   1.00
C191   C     0.55850   0.88961   0.67141   0.00000  Uiso   1.00
C192   C     0.55407   0.92423   0.58119   0.00000  Uiso   1.00
C193   C     0.54523   0.98703   0.50111   0.00000  Uiso   1.00
C194   C     0.60816   0.80316   0.55752   0.00000  Uiso   1.00
C195   C     0.63891   0.78973   0.65845   0.00000  Uiso   1.00
C196   C     0.67126   0.77866   0.56231   0.00000  Uiso   1.00
C197   C     0.73024   0.75721   0.47129   0.00000  Uiso   1.00
C198   C     0.57281   0.82100   0.28457   0.00000  Uiso   1.00
C199   C     0.54087   0.79491   0.35204   0.00000  Uiso   1.00
C200   C     0.51532   0.77498   0.24289   0.00000  Uiso   1.00
C201   C     0.48818   0.75264   0.33080   0.00000  Uiso   1.00
C202   C     0.56599   0.85973   0.37435   0.00000  Uiso   1.00
C203   C     0.56157   0.89431   0.28396   0.00000  Uiso   1.00
C204   C     0.55558   0.92654   0.39064   0.00000  Uiso   1.00
C205   C     0.60967   0.80546   0.36730   0.00000  Uiso   1.00
C206   C     0.64198   0.79442   0.27099   0.00000  Uiso   1.00
C207   C     0.67277   0.78097   0.37175   0.00000  Uiso   1.00
H208   H     0.56886   0.81497   0.78286   0.00000  Uiso   1.00
H209   H     0.51109   0.76851   0.77755   0.00000  Uiso   1.00
H210   H     0.55733   0.88782   0.81861   0.00000  Uiso   1.00
H211   H     0.63773   0.78795   0.80564   0.00000  Uiso   1.00
H212   H     0.44769   0.71803   0.68778   0.00000  Uiso   1.00
H213   H     0.54522   0.96960   0.77435   0.00000  Uiso   1.00
H214   H     0.71476   0.75901   0.74702   0.00000  Uiso   1.00
H215   H     0.57398   0.82280   0.13648   0.00000  Uiso   1.00
H216   H     0.51649   0.77677   0.09569   0.00000  Uiso   1.00
H217   H     0.56274   0.89608   0.13676   0.00000  Uiso   1.00
H218   H     0.64314   0.79621   0.12379   0.00000  Uiso   1.00
H219   H     0.45208   0.72474   0.13436   0.00000  Uiso   1.00
H220   H     0.54961   0.97631   0.22094   0.00000  Uiso   1.00
H221   H     0.71915   0.76571   0.19360   0.00000  Uiso   1.00
O222   O     0.41197   0.69098   0.39591   0.00000  Uiso   1.00
O223   O     0.53993   0.02103   0.50949   0.00000  Uiso   1.00
O224   O     0.76235   0.74473   0.47363   0.00000  Uiso   1.00
N225   N     0.45662   0.72592   0.56313   0.00000  Uiso   1.00
N226   N     0.54780   0.96113   0.64407   0.00000  Uiso   1.00
N227   N     0.70630   0.76425   0.61852   0.00000  Uiso   1.00
N228   N     0.45898   0.72953   0.26534   0.00000  Uiso   1.00
N229   N     0.55016   0.96473   0.34628   0.00000  Uiso   1.00
N230   N     0.70866   0.76785   0.32073   0.00000  Uiso   1.00
C231   C     0.07003   0.31676   0.13477   0.00000  Uiso   1.00
C232   C     0.03936   0.29260   0.04226   0.00000  Uiso   1.00
C233   C     0.01225   0.27028   0.13034   0.00000  Uiso   1.00
C234   C     0.98667   0.25033   0.02136   0.00000  Uiso   1.00
C235   C     0.93879   0.21248   0.90664   0.00000  Uiso   1.00
C236   C     0.06448   0.35743   0.06456   0.00000  Uiso   1.00
C237   C     0.05850   0.38961   0.17141   0.00000  Uiso   1.00
C238   C     0.05407   0.42423   0.08119   0.00000  Uiso   1.00
C239   C     0.04523   0.48703   0.00111   0.00000  Uiso   1.00
C240   C     0.10816   0.30316   0.05752   0.00000  Uiso   1.00
C241   C     0.13891   0.28973   0.15845   0.00000  Uiso   1.00
C242   C     0.17126   0.27866   0.06231   0.00000  Uiso   1.00
C243   C     0.23024   0.25721   0.97129   0.00000  Uiso   1.00
C244   C     0.07281   0.32100   0.78457   0.00000  Uiso   1.00
C245   C     0.04087   0.29491   0.85204   0.00000  Uiso   1.00
C246   C     0.01532   0.27498   0.74289   0.00000  Uiso   1.00
C247   C     0.98818   0.25264   0.83080   0.00000  Uiso   1.00
C248   C     0.06599   0.35973   0.87435   0.00000  Uiso   1.00
C249   C     0.06157   0.39431   0.78396   0.00000  Uiso   1.00
C250   C     0.05558   0.42654   0.89064   0.00000  Uiso   1.00
C251   C     0.10967   0.30546   0.86730   0.00000  Uiso   1.00
C252   C     0.14198   0.29442   0.77099   0.00000  Uiso   1.00
C253   C     0.17277   0.28097   0.87175   0.00000  Uiso   1.00
H254   H     0.06886   0.31497   0.28286   0.00000  Uiso   1.00
H255   H     0.01109   0.26851   0.27755   0.00000  Uiso   1.00
H256   H     0.05733   0.38782   0.31861   0.00000  Uiso   1.00
H257   H     0.13773   0.28795   0.30564   0.00000  Uiso   1.00
H258   H     0.94769   0.21803   0.18778   0.00000  Uiso   1.00
H259   H     0.04522   0.46960   0.27435   0.00000  Uiso   1.00
H260   H     0.21476   0.25901   0.24702   0.00000  Uiso   1.00
H261   H     0.07398   0.32280   0.63648   0.00000  Uiso   1.00
H262   H     0.01649   0.27677   0.59569   0.00000  Uiso   1.00
H263   H     0.06274   0.39608   0.63676   0.00000  Uiso   1.00
H264   H     0.14314   0.29621   0.62379   0.00000  Uiso   1.00
H265   H     0.95208   0.22474   0.63436   0.00000  Uiso   1.00
H266   H     0.04961   0.47631   0.72094   0.00000  Uiso   1.00
H267   H     0.21915   0.26571   0.69360   0.00000  Uiso   1.00
O268   O     0.91197   0.19098   0.89591   0.00000  Uiso   1.00
O269   O     0.03993   0.52103   0.00949   0.00000  Uiso   1.00
O270   O     0.26235   0.24473   0.97363   0.00000  Uiso   1.00
N271   N     0.95662   0.22592   0.06313   0.00000  Uiso   1.00
N272   N     0.04780   0.46113   0.14407   0.00000  Uiso   1.00
N273   N     0.20630   0.26425   0.11852   0.00000  Uiso   1.00
N274   N     0.95898   0.22953   0.76534   0.00000  Uiso   1.00
N275   N     0.05016   0.46473   0.84628   0.00000  Uiso   1.00
N276   N     0.20866   0.26785   0.82073   0.00000  Uiso   1.00
C277   C     0.42997   0.18324   0.63477   0.00000  Uiso   1.00
C278   C     0.46064   0.20740   0.54226   0.00000  Uiso   1.00
C279   C     0.48775   0.22972   0.63034   0.00000  Uiso   1.00
C280   C     0.51333   0.24967   0.52136   0.00000  Uiso   1.00
C281   C     0.56121   0.28752   0.40664   0.00000  Uiso   1.00
C282   C     0.43552   0.14257   0.56456   0.00000  Uiso   1.00
C283   C     0.44150   0.11039   0.67141   0.00000  Uiso   1.00
C284   C     0.44593   0.07577   0.58119   0.00000  Uiso   1.00
C285   C     0.45477   0.01297   0.50111   0.00000  Uiso   1.00
C286   C     0.39184   0.19684   0.55752   0.00000  Uiso   1.00
C287   C     0.36109   0.21027   0.65845   0.00000  Uiso   1.00
C288   C     0.32874   0.22134   0.56231   0.00000  Uiso   1.00
C289   C     0.26976   0.24279   0.47129   0.00000  Uiso   1.00
C290   C     0.42719   0.17900   0.28457   0.00000  Uiso   1.00
C291   C     0.45913   0.20509   0.35204   0.00000  Uiso   1.00
C292   C     0.48468   0.22502   0.24289   0.00000  Uiso   1.00
C293   C     0.51182   0.24736   0.33080   0.00000  Uiso   1.00
C294   C     0.43401   0.14027   0.37435   0.00000  Uiso   1.00
C295   C     0.43843   0.10569   0.28396   0.00000  Uiso   1.00
C296   C     0.44442   0.07346   0.39064   0.00000  Uiso   1.00
C297   C     0.39033   0.19454   0.36730   0.00000  Uiso   1.00
C298   C     0.35802   0.20558   0.27099   0.00000  Uiso   1.00
C299   C     0.32723   0.21903   0.37175   0.00000  Uiso   1.00
H300   H     0.43114   0.18503   0.78286   0.00000  Uiso   1.00
H301   H     0.48891   0.23149   0.77755   0.00000  Uiso   1.00
H302   H     0.44267   0.11218   0.81861   0.00000  Uiso   1.00
H303   H     0.36227   0.21205   0.80564   0.00000  Uiso   1.00
H304   H     0.55231   0.28197   0.68778   0.00000  Uiso   1.00
H305   H     0.45478   0.03040   0.77435   0.00000  Uiso   1.00
H306   H     0.28524   0.24099   0.74702   0.00000  Uiso   1.00
H307   H     0.42602   0.17720   0.13648   0.00000  Uiso   1.00
H308   H     0.48351   0.22323   0.09569   0.00000  Uiso   1.00
H309   H     0.43726   0.10392   0.13676   0.00000  Uiso   1.00
H310   H     0.35686   0.20379   0.12379   0.00000  Uiso   1.00
H311   H     0.54792   0.27526   0.13436   0.00000  Uiso   1.00
H312   H     0.45039   0.02369   0.22094   0.00000  Uiso   1.00
H313   H     0.28085   0.23429   0.19360   0.00000  Uiso   1.00
O314   O     0.58803   0.30902   0.39591   0.00000  Uiso   1.00
O315   O     0.46007   0.97897   0.50949   0.00000  Uiso   1.00
O316   O     0.23765   0.25527   0.47363   0.00000  Uiso   1.00
N317   N     0.54338   0.27408   0.56313   0.00000  Uiso   1.00
N318   N     0.45220   0.03887   0.64407   0.00000  Uiso   1.00
N319   N     0.29370   0.23575   0.61852   0.00000  Uiso   1.00
N320   N     0.54102   0.27047   0.26534   0.00000  Uiso   1.00
N321   N     0.44984   0.03527   0.34628   0.00000  Uiso   1.00
N322   N     0.29134   0.23215   0.32073   0.00000  Uiso   1.00
C323   C     0.92997   0.68324   0.13477   0.00000  Uiso   1.00
C324   C     0.96064   0.70740   0.04226   0.00000  Uiso   1.00
C325   C     0.98775   0.72972   0.13034   0.00000  Uiso   1.00
C326   C     0.01333   0.74967   0.02136   0.00000  Uiso   1.00
C327   C     0.06121   0.78752   0.90664   0.00000  Uiso   1.00
C328   C     0.93552   0.64257   0.06456   0.00000  Uiso   1.00
C329   C     0.94150   0.61039   0.17141   0.00000  Uiso   1.00
C330   C     0.94593   0.57577   0.08119   0.00000  Uiso   1.00
C331   C     0.95477   0.51297   0.00111   0.00000  Uiso   1.00
C332   C     0.89184   0.69684   0.05752   0.00000  Uiso   1.00
C333   C     0.86109   0.71027   0.15845   0.00000  Uiso   1.00
C334   C     0.82874   0.72134   0.06231   0.00000  Uiso   1.00
C335   C     0.76976   0.74279   0.97129   0.00000  Uiso   1.00
C336   C     0.92719   0.67900   0.78457   0.00000  Uiso   1.00
C337   C     0.95913   0.70509   0.85204   0.00000  Uiso   1.00
C338   C     0.98468   0.72502   0.74289   0.00000  Uiso   1.00
C339   C     0.01182   0.74736   0.83080   0.00000  Uiso   1.00
C340   C     0.93401   0.64027   0.87435   0.00000  Uiso   1.00
C341   C     0.93843   0.60569   0.78396   0.00000  Uiso   1.00
C342   C     0.94442   0.57346   0.89064   0.00000  Uiso   1.00
C343   C     0.89033   0.69454   0.86730   0.00000  Uiso   1.00
C344   C     0.85802   0.70558   0.77099   0.00000  Uiso   1.00
C345   C     0.82723   0.71903   0.87175   0.00000  Uiso   1.00
H346   H     0.93114   0.68503   0.28286   0.00000  Uiso   1.00
H347   H     0.98891   0.73149   0.27755   0.00000  Uiso   1.00
H348   H     0.94267   0.61218   0.31861   0.00000  Uiso   1.00
H349   H     0.86227   0.71205   0.30564   0.00000  Uiso   1.00
H350   H     0.05231   0.78197   0.18778   0.00000  Uiso   1.00
H351   H     0.95478   0.53040   0.27435   0.00000  Uiso   1.00
H352   H     0.78524   0.74099   0.24702   0.00000  Uiso   1.00
H353   H     0.92602   0.67720   0.63648   0.00000  Uiso   1.00
H354   H     0.98351   0.72323   0.59569   0.00000  Uiso   1.00
H355   H     0.93726   0.60392   0.63676   0.00000  Uiso   1.00
H356   H     0.85686   0.70379   0.62379   0.00000  Uiso   1.00
H357   H     0.04792   0.77526   0.63436   0.00000  Uiso   1.00
H358   H     0.95039   0.52369   0.72094   0.00000  Uiso   1.00
H359   H     0.78085   0.73429   0.69360   0.00000  Uiso   1.00
O360   O     0.08803   0.80902   0.89591   0.00000  Uiso   1.00
O361   O     0.96007   0.47897   0.00949   0.00000  Uiso   1.00
O362   O     0.73765   0.75527   0.97363   0.00000  Uiso   1.00
N363   N     0.04338   0.77408   0.06313   0.00000  Uiso   1.00
N364   N     0.95220   0.53887   0.14407   0.00000  Uiso   1.00
N365   N     0.79370   0.73575   0.11852   0.00000  Uiso   1.00
N366   N     0.04102   0.77047   0.76534   0.00000  Uiso   1.00
N367   N     0.94984   0.53527   0.84628   0.00000  Uiso   1.00
N368   N     0.79134   0.73215   0.82073   0.00000  Uiso   1.00
