data_job_03292
_audit_creation_date              2018-12-19
_audit_creation_method            'Materials Studio'
_symmetry_space_group_name_H-M    'P1'
_symmetry_Int_Tables_number       1
_symmetry_cell_setting            triclinic
loop_
_symmetry_equiv_pos_as_xyz
  x,y,z
_cell_length_a                    22.6534
_cell_length_b                    22.6534
_cell_length_c                    12.4447
_cell_angle_alpha                 90.0000
_cell_angle_beta                  90.0000
_cell_angle_gamma                 90.0000
loop_
_atom_site_label
_atom_site_type_symbol
_atom_site_fract_x
_atom_site_fract_y
_atom_site_fract_z
_atom_site_U_iso_or_equiv
_atom_site_adp_type
_atom_site_occupancy
C1     C     0.22221   0.62599   0.34101   0.00000  Uiso   1.00
C2     C     0.21305   0.69149   0.36386   0.00000  Uiso   1.00
C3     C     0.25584   0.73511   0.35570   0.00000  Uiso   1.00
C4     C     0.23866   0.79239   0.38009   0.00000  Uiso   1.00
C5     C     0.23325   0.89209   0.41084   0.00000  Uiso   1.00
C6     C     0.20379   0.59357   0.44303   0.00000  Uiso   1.00
C7     C     0.23879   0.55484   0.50142   0.00000  Uiso   1.00
C8     C     0.21382   0.52969   0.59244   0.00000  Uiso   1.00
C9     C     0.19402   0.47733   0.74605   0.00000  Uiso   1.00
C10    C     0.17675   0.60949   0.25578   0.00000  Uiso   1.00
C11    C     0.18901   0.58414   0.15674   0.00000  Uiso   1.00
C12    C     0.14127   0.57238   0.09013   0.00000  Uiso   1.00
C13    C     0.07949   0.54474   0.95302   0.00000  Uiso   1.00
C14    C     0.11563   0.65018   0.39883   0.00000  Uiso   1.00
C15    C     0.15516   0.70462   0.39527   0.00000  Uiso   1.00
C16    C     0.13791   0.76186   0.41967   0.00000  Uiso   1.00
C17    C     0.18067   0.80555   0.41155   0.00000  Uiso   1.00
C18    C     0.14590   0.60670   0.47443   0.00000  Uiso   1.00
C19    C     0.12087   0.58160   0.56538   0.00000  Uiso   1.00
C20    C     0.15582   0.54285   0.62390   0.00000  Uiso   1.00
C21    C     0.11886   0.62263   0.28718   0.00000  Uiso   1.00
C22    C     0.07109   0.61090   0.22071   0.00000  Uiso   1.00
C23    C     0.08328   0.58554   0.12159   0.00000  Uiso   1.00
H24    H     0.26728   0.61577   0.31657   0.00000  Uiso   1.00
H25    H     0.30064   0.72492   0.33141   0.00000  Uiso   1.00
H26    H     0.28359   0.54469   0.47709   0.00000  Uiso   1.00
H27    H     0.23382   0.57398   0.13247   0.00000  Uiso   1.00
H28    H     0.31209   0.85173   0.36174   0.00000  Uiso   1.00
H29    H     0.27614   0.47168   0.66890   0.00000  Uiso   1.00
H30    H     0.17119   0.53345   0.94221   0.00000  Uiso   1.00
H31    H     0.07055   0.66040   0.42328   0.00000  Uiso   1.00
H32    H     0.09311   0.77201   0.44397   0.00000  Uiso   1.00
H33    H     0.07606   0.59177   0.58966   0.00000  Uiso   1.00
H34    H     0.02630   0.62107   0.24504   0.00000  Uiso   1.00
H35    H     0.14365   0.88995   0.45311   0.00000  Uiso   1.00
H36    H     0.10770   0.50989   0.76027   0.00000  Uiso   1.00
H37    H     0.00275   0.57167   0.03357   0.00000  Uiso   1.00
O38    O     0.24626   0.94345   0.41915   0.00000  Uiso   1.00
O39    O     0.19909   0.44483   0.82211   0.00000  Uiso   1.00
O40    O     0.06141   0.52588   0.86871   0.00000  Uiso   1.00
N41    N     0.26935   0.84541   0.38039   0.00000  Uiso   1.00
N42    N     0.23574   0.49009   0.66757   0.00000  Uiso   1.00
N43    N     0.13762   0.54783   0.98818   0.00000  Uiso   1.00
N44    N     0.17871   0.86598   0.42955   0.00000  Uiso   1.00
N45    N     0.14511   0.51065   0.71674   0.00000  Uiso   1.00
N46    N     0.04699   0.56839   0.03735   0.00000  Uiso   1.00
C47    C     0.72221   0.12599   0.84101   0.00000  Uiso   1.00
C48    C     0.71305   0.19149   0.86386   0.00000  Uiso   1.00
C49    C     0.75584   0.23511   0.85570   0.00000  Uiso   1.00
C50    C     0.73866   0.29239   0.88009   0.00000  Uiso   1.00
C51    C     0.73325   0.39209   0.91084   0.00000  Uiso   1.00
C52    C     0.70379   0.09357   0.94303   0.00000  Uiso   1.00
C53    C     0.73879   0.05484   0.00142   0.00000  Uiso   1.00
C54    C     0.71382   0.02969   0.09244   0.00000  Uiso   1.00
C55    C     0.69402   0.97733   0.24605   0.00000  Uiso   1.00
C56    C     0.67675   0.10949   0.75578   0.00000  Uiso   1.00
C57    C     0.68901   0.08414   0.65674   0.00000  Uiso   1.00
C58    C     0.64127   0.07238   0.59013   0.00000  Uiso   1.00
C59    C     0.57949   0.04474   0.45302   0.00000  Uiso   1.00
C60    C     0.61563   0.15018   0.89883   0.00000  Uiso   1.00
C61    C     0.65516   0.20462   0.89527   0.00000  Uiso   1.00
C62    C     0.63791   0.26186   0.91967   0.00000  Uiso   1.00
C63    C     0.68067   0.30555   0.91155   0.00000  Uiso   1.00
C64    C     0.64590   0.10670   0.97443   0.00000  Uiso   1.00
C65    C     0.62087   0.08160   0.06538   0.00000  Uiso   1.00
C66    C     0.65582   0.04285   0.12390   0.00000  Uiso   1.00
C67    C     0.61886   0.12263   0.78718   0.00000  Uiso   1.00
C68    C     0.57109   0.11090   0.72071   0.00000  Uiso   1.00
C69    C     0.58328   0.08554   0.62159   0.00000  Uiso   1.00
H70    H     0.76728   0.11577   0.81657   0.00000  Uiso   1.00
H71    H     0.80064   0.22492   0.83141   0.00000  Uiso   1.00
H72    H     0.78359   0.04469   0.97709   0.00000  Uiso   1.00
H73    H     0.73382   0.07398   0.63247   0.00000  Uiso   1.00
H74    H     0.81209   0.35173   0.86174   0.00000  Uiso   1.00
H75    H     0.77614   0.97168   0.16890   0.00000  Uiso   1.00
H76    H     0.67119   0.03345   0.44221   0.00000  Uiso   1.00
H77    H     0.57055   0.16040   0.92328   0.00000  Uiso   1.00
H78    H     0.59311   0.27201   0.94397   0.00000  Uiso   1.00
H79    H     0.57606   0.09177   0.08966   0.00000  Uiso   1.00
H80    H     0.52630   0.12107   0.74504   0.00000  Uiso   1.00
H81    H     0.64365   0.38995   0.95311   0.00000  Uiso   1.00
H82    H     0.60770   0.00989   0.26027   0.00000  Uiso   1.00
H83    H     0.50275   0.07167   0.53357   0.00000  Uiso   1.00
O84    O     0.74626   0.44345   0.91915   0.00000  Uiso   1.00
O85    O     0.69909   0.94483   0.32211   0.00000  Uiso   1.00
O86    O     0.56141   0.02588   0.36871   0.00000  Uiso   1.00
N87    N     0.76935   0.34541   0.88039   0.00000  Uiso   1.00
N88    N     0.73574   0.99009   0.16757   0.00000  Uiso   1.00
N89    N     0.63762   0.04783   0.48818   0.00000  Uiso   1.00
N90    N     0.67871   0.36598   0.92955   0.00000  Uiso   1.00
N91    N     0.64511   0.01065   0.21674   0.00000  Uiso   1.00
N92    N     0.54699   0.06839   0.53735   0.00000  Uiso   1.00
C93    C     0.77779   0.37401   0.34101   0.00000  Uiso   1.00
C94    C     0.78695   0.30851   0.36386   0.00000  Uiso   1.00
C95    C     0.74416   0.26489   0.35570   0.00000  Uiso   1.00
C96    C     0.76134   0.20761   0.38009   0.00000  Uiso   1.00
C97    C     0.76675   0.10791   0.41084   0.00000  Uiso   1.00
C98    C     0.79621   0.40643   0.44303   0.00000  Uiso   1.00
C99    C     0.76121   0.44516   0.50142   0.00000  Uiso   1.00
C100   C     0.78618   0.47031   0.59244   0.00000  Uiso   1.00
C101   C     0.80598   0.52267   0.74605   0.00000  Uiso   1.00
C102   C     0.82325   0.39051   0.25578   0.00000  Uiso   1.00
C103   C     0.81099   0.41586   0.15674   0.00000  Uiso   1.00
C104   C     0.85873   0.42762   0.09013   0.00000  Uiso   1.00
C105   C     0.92051   0.45526   0.95302   0.00000  Uiso   1.00
C106   C     0.88437   0.34982   0.39883   0.00000  Uiso   1.00
C107   C     0.84484   0.29538   0.39527   0.00000  Uiso   1.00
C108   C     0.86209   0.23814   0.41967   0.00000  Uiso   1.00
C109   C     0.81933   0.19445   0.41155   0.00000  Uiso   1.00
C110   C     0.85410   0.39330   0.47443   0.00000  Uiso   1.00
C111   C     0.87913   0.41840   0.56538   0.00000  Uiso   1.00
C112   C     0.84418   0.45715   0.62390   0.00000  Uiso   1.00
C113   C     0.88114   0.37737   0.28718   0.00000  Uiso   1.00
C114   C     0.92891   0.38910   0.22071   0.00000  Uiso   1.00
C115   C     0.91672   0.41446   0.12159   0.00000  Uiso   1.00
H116   H     0.73272   0.38423   0.31657   0.00000  Uiso   1.00
H117   H     0.69936   0.27508   0.33141   0.00000  Uiso   1.00
H118   H     0.71641   0.45531   0.47709   0.00000  Uiso   1.00
H119   H     0.76618   0.42602   0.13247   0.00000  Uiso   1.00
H120   H     0.68791   0.14827   0.36174   0.00000  Uiso   1.00
H121   H     0.72386   0.52832   0.66890   0.00000  Uiso   1.00
H122   H     0.82881   0.46655   0.94221   0.00000  Uiso   1.00
H123   H     0.92945   0.33960   0.42328   0.00000  Uiso   1.00
H124   H     0.90689   0.22799   0.44397   0.00000  Uiso   1.00
H125   H     0.92394   0.40823   0.58966   0.00000  Uiso   1.00
H126   H     0.97370   0.37893   0.24504   0.00000  Uiso   1.00
H127   H     0.85635   0.11005   0.45311   0.00000  Uiso   1.00
H128   H     0.89230   0.49011   0.76027   0.00000  Uiso   1.00
H129   H     0.99725   0.42833   0.03357   0.00000  Uiso   1.00
O130   O     0.75374   0.05655   0.41915   0.00000  Uiso   1.00
O131   O     0.80091   0.55517   0.82211   0.00000  Uiso   1.00
O132   O     0.93859   0.47412   0.86871   0.00000  Uiso   1.00
N133   N     0.73065   0.15459   0.38039   0.00000  Uiso   1.00
N134   N     0.76426   0.50991   0.66757   0.00000  Uiso   1.00
N135   N     0.86238   0.45217   0.98818   0.00000  Uiso   1.00
N136   N     0.82129   0.13402   0.42955   0.00000  Uiso   1.00
N137   N     0.85489   0.48935   0.71674   0.00000  Uiso   1.00
N138   N     0.95301   0.43161   0.03735   0.00000  Uiso   1.00
C139   C     0.27779   0.87401   0.84101   0.00000  Uiso   1.00
C140   C     0.28695   0.80851   0.86386   0.00000  Uiso   1.00
C141   C     0.24416   0.76489   0.85570   0.00000  Uiso   1.00
C142   C     0.26134   0.70761   0.88009   0.00000  Uiso   1.00
C143   C     0.26675   0.60791   0.91084   0.00000  Uiso   1.00
C144   C     0.29621   0.90643   0.94303   0.00000  Uiso   1.00
C145   C     0.26121   0.94516   0.00142   0.00000  Uiso   1.00
C146   C     0.28618   0.97031   0.09244   0.00000  Uiso   1.00
C147   C     0.30598   0.02267   0.24605   0.00000  Uiso   1.00
C148   C     0.32325   0.89051   0.75578   0.00000  Uiso   1.00
C149   C     0.31099   0.91586   0.65674   0.00000  Uiso   1.00
C150   C     0.35873   0.92762   0.59013   0.00000  Uiso   1.00
C151   C     0.42051   0.95526   0.45302   0.00000  Uiso   1.00
C152   C     0.38437   0.84982   0.89883   0.00000  Uiso   1.00
C153   C     0.34484   0.79538   0.89527   0.00000  Uiso   1.00
C154   C     0.36209   0.73814   0.91967   0.00000  Uiso   1.00
C155   C     0.31933   0.69445   0.91155   0.00000  Uiso   1.00
C156   C     0.35410   0.89330   0.97443   0.00000  Uiso   1.00
C157   C     0.37913   0.91840   0.06538   0.00000  Uiso   1.00
C158   C     0.34418   0.95715   0.12390   0.00000  Uiso   1.00
C159   C     0.38114   0.87737   0.78718   0.00000  Uiso   1.00
C160   C     0.42891   0.88910   0.72071   0.00000  Uiso   1.00
C161   C     0.41672   0.91446   0.62159   0.00000  Uiso   1.00
H162   H     0.23272   0.88423   0.81657   0.00000  Uiso   1.00
H163   H     0.19936   0.77508   0.83141   0.00000  Uiso   1.00
H164   H     0.21641   0.95531   0.97709   0.00000  Uiso   1.00
H165   H     0.26618   0.92602   0.63247   0.00000  Uiso   1.00
H166   H     0.18791   0.64827   0.86174   0.00000  Uiso   1.00
H167   H     0.22386   0.02832   0.16890   0.00000  Uiso   1.00
H168   H     0.32881   0.96655   0.44221   0.00000  Uiso   1.00
H169   H     0.42945   0.83960   0.92328   0.00000  Uiso   1.00
H170   H     0.40689   0.72799   0.94397   0.00000  Uiso   1.00
H171   H     0.42394   0.90823   0.08966   0.00000  Uiso   1.00
H172   H     0.47370   0.87893   0.74504   0.00000  Uiso   1.00
H173   H     0.35635   0.61005   0.95311   0.00000  Uiso   1.00
H174   H     0.39230   0.99011   0.26027   0.00000  Uiso   1.00
H175   H     0.49725   0.92833   0.53357   0.00000  Uiso   1.00
O176   O     0.25374   0.55655   0.91915   0.00000  Uiso   1.00
O177   O     0.30091   0.05517   0.32211   0.00000  Uiso   1.00
O178   O     0.43859   0.97412   0.36871   0.00000  Uiso   1.00
N179   N     0.23065   0.65459   0.88039   0.00000  Uiso   1.00
N180   N     0.26426   0.00991   0.16757   0.00000  Uiso   1.00
N181   N     0.36238   0.95217   0.48818   0.00000  Uiso   1.00
N182   N     0.32129   0.63402   0.92955   0.00000  Uiso   1.00
N183   N     0.35489   0.98935   0.21674   0.00000  Uiso   1.00
N184   N     0.45301   0.93161   0.53735   0.00000  Uiso   1.00
C185   C     0.62599   0.77779   0.65899   0.00000  Uiso   1.00
C186   C     0.69149   0.78695   0.63614   0.00000  Uiso   1.00
C187   C     0.73511   0.74416   0.64430   0.00000  Uiso   1.00
C188   C     0.79239   0.76134   0.61991   0.00000  Uiso   1.00
C189   C     0.89209   0.76675   0.58916   0.00000  Uiso   1.00
C190   C     0.59357   0.79621   0.55697   0.00000  Uiso   1.00
C191   C     0.55484   0.76121   0.49858   0.00000  Uiso   1.00
C192   C     0.52969   0.78618   0.40756   0.00000  Uiso   1.00
C193   C     0.47733   0.80598   0.25395   0.00000  Uiso   1.00
C194   C     0.60949   0.82325   0.74422   0.00000  Uiso   1.00
C195   C     0.58414   0.81099   0.84326   0.00000  Uiso   1.00
C196   C     0.57238   0.85873   0.90987   0.00000  Uiso   1.00
C197   C     0.54474   0.92051   0.04698   0.00000  Uiso   1.00
C198   C     0.65018   0.88437   0.60117   0.00000  Uiso   1.00
C199   C     0.70462   0.84484   0.60473   0.00000  Uiso   1.00
C200   C     0.76186   0.86209   0.58033   0.00000  Uiso   1.00
C201   C     0.80555   0.81933   0.58845   0.00000  Uiso   1.00
C202   C     0.60670   0.85410   0.52557   0.00000  Uiso   1.00
C203   C     0.58160   0.87913   0.43462   0.00000  Uiso   1.00
C204   C     0.54285   0.84418   0.37610   0.00000  Uiso   1.00
C205   C     0.62263   0.88114   0.71282   0.00000  Uiso   1.00
C206   C     0.61090   0.92891   0.77929   0.00000  Uiso   1.00
C207   C     0.58554   0.91672   0.87841   0.00000  Uiso   1.00
H208   H     0.61577   0.73272   0.68343   0.00000  Uiso   1.00
H209   H     0.72492   0.69936   0.66859   0.00000  Uiso   1.00
H210   H     0.54469   0.71641   0.52291   0.00000  Uiso   1.00
H211   H     0.57398   0.76618   0.86753   0.00000  Uiso   1.00
H212   H     0.85173   0.68791   0.63826   0.00000  Uiso   1.00
H213   H     0.47168   0.72386   0.33110   0.00000  Uiso   1.00
H214   H     0.53345   0.82881   0.05779   0.00000  Uiso   1.00
H215   H     0.66040   0.92945   0.57672   0.00000  Uiso   1.00
H216   H     0.77201   0.90689   0.55603   0.00000  Uiso   1.00
H217   H     0.59177   0.92394   0.41034   0.00000  Uiso   1.00
H218   H     0.62107   0.97370   0.75496   0.00000  Uiso   1.00
H219   H     0.88995   0.85635   0.54689   0.00000  Uiso   1.00
H220   H     0.50989   0.89230   0.23973   0.00000  Uiso   1.00
H221   H     0.57167   0.99725   0.96643   0.00000  Uiso   1.00
O222   O     0.94345   0.75374   0.58085   0.00000  Uiso   1.00
O223   O     0.44483   0.80091   0.17789   0.00000  Uiso   1.00
O224   O     0.52588   0.93859   0.13129   0.00000  Uiso   1.00
N225   N     0.84541   0.73065   0.61961   0.00000  Uiso   1.00
N226   N     0.49009   0.76426   0.33243   0.00000  Uiso   1.00
N227   N     0.54783   0.86238   0.01182   0.00000  Uiso   1.00
N228   N     0.86598   0.82129   0.57045   0.00000  Uiso   1.00
N229   N     0.51065   0.85489   0.28326   0.00000  Uiso   1.00
N230   N     0.56839   0.95301   0.96265   0.00000  Uiso   1.00
C231   C     0.12599   0.27779   0.15899   0.00000  Uiso   1.00
C232   C     0.19149   0.28695   0.13614   0.00000  Uiso   1.00
C233   C     0.23511   0.24416   0.14430   0.00000  Uiso   1.00
C234   C     0.29239   0.26134   0.11991   0.00000  Uiso   1.00
C235   C     0.39209   0.26675   0.08916   0.00000  Uiso   1.00
C236   C     0.09357   0.29621   0.05697   0.00000  Uiso   1.00
C237   C     0.05484   0.26121   0.99858   0.00000  Uiso   1.00
C238   C     0.02969   0.28618   0.90756   0.00000  Uiso   1.00
C239   C     0.97733   0.30598   0.75395   0.00000  Uiso   1.00
C240   C     0.10949   0.32325   0.24422   0.00000  Uiso   1.00
C241   C     0.08414   0.31099   0.34326   0.00000  Uiso   1.00
C242   C     0.07238   0.35873   0.40987   0.00000  Uiso   1.00
C243   C     0.04474   0.42051   0.54698   0.00000  Uiso   1.00
C244   C     0.15018   0.38437   0.10117   0.00000  Uiso   1.00
C245   C     0.20462   0.34484   0.10473   0.00000  Uiso   1.00
C246   C     0.26186   0.36209   0.08033   0.00000  Uiso   1.00
C247   C     0.30555   0.31933   0.08845   0.00000  Uiso   1.00
C248   C     0.10670   0.35410   0.02557   0.00000  Uiso   1.00
C249   C     0.08160   0.37913   0.93462   0.00000  Uiso   1.00
C250   C     0.04285   0.34418   0.87610   0.00000  Uiso   1.00
C251   C     0.12263   0.38114   0.21282   0.00000  Uiso   1.00
C252   C     0.11090   0.42891   0.27929   0.00000  Uiso   1.00
C253   C     0.08554   0.41672   0.37841   0.00000  Uiso   1.00
H254   H     0.11577   0.23272   0.18343   0.00000  Uiso   1.00
H255   H     0.22492   0.19936   0.16859   0.00000  Uiso   1.00
H256   H     0.04469   0.21641   0.02291   0.00000  Uiso   1.00
H257   H     0.07398   0.26618   0.36753   0.00000  Uiso   1.00
H258   H     0.35173   0.18791   0.13826   0.00000  Uiso   1.00
H259   H     0.97168   0.22386   0.83110   0.00000  Uiso   1.00
H260   H     0.03345   0.32881   0.55779   0.00000  Uiso   1.00
H261   H     0.16040   0.42945   0.07672   0.00000  Uiso   1.00
H262   H     0.27201   0.40689   0.05603   0.00000  Uiso   1.00
H263   H     0.09177   0.42394   0.91034   0.00000  Uiso   1.00
H264   H     0.12107   0.47370   0.25496   0.00000  Uiso   1.00
H265   H     0.38995   0.35635   0.04689   0.00000  Uiso   1.00
H266   H     0.00989   0.39230   0.73973   0.00000  Uiso   1.00
H267   H     0.07167   0.49725   0.46643   0.00000  Uiso   1.00
O268   O     0.44345   0.25374   0.08085   0.00000  Uiso   1.00
O269   O     0.94483   0.30091   0.67789   0.00000  Uiso   1.00
O270   O     0.02588   0.43859   0.63129   0.00000  Uiso   1.00
N271   N     0.34541   0.23065   0.11961   0.00000  Uiso   1.00
N272   N     0.99009   0.26426   0.83243   0.00000  Uiso   1.00
N273   N     0.04783   0.36238   0.51182   0.00000  Uiso   1.00
N274   N     0.36598   0.32129   0.07045   0.00000  Uiso   1.00
N275   N     0.01065   0.35489   0.78326   0.00000  Uiso   1.00
N276   N     0.06839   0.45301   0.46265   0.00000  Uiso   1.00
C277   C     0.37401   0.22221   0.65899   0.00000  Uiso   1.00
C278   C     0.30851   0.21305   0.63614   0.00000  Uiso   1.00
C279   C     0.26489   0.25584   0.64430   0.00000  Uiso   1.00
C280   C     0.20761   0.23866   0.61991   0.00000  Uiso   1.00
C281   C     0.10791   0.23325   0.58916   0.00000  Uiso   1.00
C282   C     0.40643   0.20379   0.55697   0.00000  Uiso   1.00
C283   C     0.44516   0.23879   0.49858   0.00000  Uiso   1.00
C284   C     0.47031   0.21382   0.40756   0.00000  Uiso   1.00
C285   C     0.52267   0.19402   0.25395   0.00000  Uiso   1.00
C286   C     0.39051   0.17675   0.74422   0.00000  Uiso   1.00
C287   C     0.41586   0.18901   0.84326   0.00000  Uiso   1.00
C288   C     0.42762   0.14127   0.90987   0.00000  Uiso   1.00
C289   C     0.45526   0.07949   0.04698   0.00000  Uiso   1.00
C290   C     0.34982   0.11563   0.60117   0.00000  Uiso   1.00
C291   C     0.29538   0.15516   0.60473   0.00000  Uiso   1.00
C292   C     0.23814   0.13791   0.58033   0.00000  Uiso   1.00
C293   C     0.19445   0.18067   0.58845   0.00000  Uiso   1.00
C294   C     0.39330   0.14590   0.52557   0.00000  Uiso   1.00
C295   C     0.41840   0.12087   0.43462   0.00000  Uiso   1.00
C296   C     0.45715   0.15582   0.37610   0.00000  Uiso   1.00
C297   C     0.37737   0.11886   0.71282   0.00000  Uiso   1.00
C298   C     0.38910   0.07109   0.77929   0.00000  Uiso   1.00
C299   C     0.41446   0.08328   0.87841   0.00000  Uiso   1.00
H300   H     0.38423   0.26728   0.68343   0.00000  Uiso   1.00
H301   H     0.27508   0.30064   0.66859   0.00000  Uiso   1.00
H302   H     0.45531   0.28359   0.52291   0.00000  Uiso   1.00
H303   H     0.42602   0.23382   0.86753   0.00000  Uiso   1.00
H304   H     0.14827   0.31209   0.63826   0.00000  Uiso   1.00
H305   H     0.52832   0.27614   0.33110   0.00000  Uiso   1.00
H306   H     0.46655   0.17119   0.05779   0.00000  Uiso   1.00
H307   H     0.33960   0.07055   0.57672   0.00000  Uiso   1.00
H308   H     0.22799   0.09311   0.55603   0.00000  Uiso   1.00
H309   H     0.40823   0.07606   0.41034   0.00000  Uiso   1.00
H310   H     0.37893   0.02630   0.75496   0.00000  Uiso   1.00
H311   H     0.11005   0.14365   0.54689   0.00000  Uiso   1.00
H312   H     0.49011   0.10770   0.23973   0.00000  Uiso   1.00
H313   H     0.42833   0.00275   0.96643   0.00000  Uiso   1.00
O314   O     0.05655   0.24626   0.58085   0.00000  Uiso   1.00
O315   O     0.55517   0.19909   0.17789   0.00000  Uiso   1.00
O316   O     0.47412   0.06141   0.13129   0.00000  Uiso   1.00
N317   N     0.15459   0.26935   0.61961   0.00000  Uiso   1.00
N318   N     0.50991   0.23574   0.33243   0.00000  Uiso   1.00
N319   N     0.45217   0.13762   0.01182   0.00000  Uiso   1.00
N320   N     0.13402   0.17871   0.57045   0.00000  Uiso   1.00
N321   N     0.48935   0.14511   0.28326   0.00000  Uiso   1.00
N322   N     0.43161   0.04699   0.96265   0.00000  Uiso   1.00
C323   C     0.87401   0.72221   0.15899   0.00000  Uiso   1.00
C324   C     0.80851   0.71305   0.13614   0.00000  Uiso   1.00
C325   C     0.76489   0.75584   0.14430   0.00000  Uiso   1.00
C326   C     0.70761   0.73866   0.11991   0.00000  Uiso   1.00
C327   C     0.60791   0.73325   0.08916   0.00000  Uiso   1.00
C328   C     0.90643   0.70379   0.05697   0.00000  Uiso   1.00
C329   C     0.94516   0.73879   0.99858   0.00000  Uiso   1.00
C330   C     0.97031   0.71382   0.90756   0.00000  Uiso   1.00
C331   C     0.02267   0.69402   0.75395   0.00000  Uiso   1.00
C332   C     0.89051   0.67675   0.24422   0.00000  Uiso   1.00
C333   C     0.91586   0.68901   0.34326   0.00000  Uiso   1.00
C334   C     0.92762   0.64127   0.40987   0.00000  Uiso   1.00
C335   C     0.95526   0.57949   0.54698   0.00000  Uiso   1.00
C336   C     0.84982   0.61563   0.10117   0.00000  Uiso   1.00
C337   C     0.79538   0.65516   0.10473   0.00000  Uiso   1.00
C338   C     0.73814   0.63791   0.08033   0.00000  Uiso   1.00
C339   C     0.69445   0.68067   0.08845   0.00000  Uiso   1.00
C340   C     0.89330   0.64590   0.02557   0.00000  Uiso   1.00
C341   C     0.91840   0.62087   0.93462   0.00000  Uiso   1.00
C342   C     0.95715   0.65582   0.87610   0.00000  Uiso   1.00
C343   C     0.87737   0.61886   0.21282   0.00000  Uiso   1.00
C344   C     0.88910   0.57109   0.27929   0.00000  Uiso   1.00
C345   C     0.91446   0.58328   0.37841   0.00000  Uiso   1.00
H346   H     0.88423   0.76728   0.18343   0.00000  Uiso   1.00
H347   H     0.77508   0.80064   0.16859   0.00000  Uiso   1.00
H348   H     0.95531   0.78359   0.02291   0.00000  Uiso   1.00
H349   H     0.92602   0.73382   0.36753   0.00000  Uiso   1.00
H350   H     0.64827   0.81209   0.13826   0.00000  Uiso   1.00
H351   H     0.02832   0.77614   0.83110   0.00000  Uiso   1.00
H352   H     0.96655   0.67119   0.55779   0.00000  Uiso   1.00
H353   H     0.83960   0.57055   0.07672   0.00000  Uiso   1.00
H354   H     0.72799   0.59311   0.05603   0.00000  Uiso   1.00
H355   H     0.90823   0.57606   0.91034   0.00000  Uiso   1.00
H356   H     0.87893   0.52630   0.25496   0.00000  Uiso   1.00
H357   H     0.61005   0.64365   0.04689   0.00000  Uiso   1.00
H358   H     0.99011   0.60770   0.73973   0.00000  Uiso   1.00
H359   H     0.92833   0.50275   0.46643   0.00000  Uiso   1.00
O360   O     0.55655   0.74626   0.08085   0.00000  Uiso   1.00
O361   O     0.05517   0.69909   0.67789   0.00000  Uiso   1.00
O362   O     0.97412   0.56141   0.63129   0.00000  Uiso   1.00
N363   N     0.65459   0.76935   0.11961   0.00000  Uiso   1.00
N364   N     0.00991   0.73574   0.83243   0.00000  Uiso   1.00
N365   N     0.95217   0.63762   0.51182   0.00000  Uiso   1.00
N366   N     0.63402   0.67871   0.07045   0.00000  Uiso   1.00
N367   N     0.98935   0.64511   0.78326   0.00000  Uiso   1.00
N368   N     0.93161   0.54699   0.46265   0.00000  Uiso   1.00
