data_job_01625
_audit_creation_date              2018-12-19
_audit_creation_method            'Materials Studio'
_symmetry_space_group_name_H-M    'P1'
_symmetry_Int_Tables_number       1
_symmetry_cell_setting            triclinic
loop_
_symmetry_equiv_pos_as_xyz
  x,y,z
_cell_length_a                    13.9900
_cell_length_b                    7.5069
_cell_length_c                    27.6498
_cell_angle_alpha                 90.0000
_cell_angle_beta                  56.0948
_cell_angle_gamma                 90.0000
loop_
_atom_site_label
_atom_site_type_symbol
_atom_site_fract_x
_atom_site_fract_y
_atom_site_fract_z
_atom_site_U_iso_or_equiv
_atom_site_adp_type
_atom_site_occupancy
C1     C     0.82141   0.02467   0.93778   0.00000  Uiso   1.00
C2     C     0.72839   0.15969   0.97716   0.00000  Uiso   1.00
C3     C     0.63244   0.12637   0.03277   0.00000  Uiso   1.00
C4     C     0.55744   0.26756   0.06169   0.00000  Uiso   1.00
C5     C     0.40989   0.45156   0.12675   0.00000  Uiso   1.00
C6     C     0.82636   0.02108   0.88128   0.00000  Uiso   1.00
C7     C     0.81280   0.87121   0.85627   0.00000  Uiso   1.00
C8     C     0.82030   0.89572   0.80449   0.00000  Uiso   1.00
C9     C     0.82493   0.86451   0.72067   0.00000  Uiso   1.00
C10    C     0.93512   0.10568   0.92235   0.00000  Uiso   1.00
C11    C     0.01302   0.02692   0.93186   0.00000  Uiso   1.00
C12    C     0.11210   0.12264   0.91463   0.00000  Uiso   1.00
C13    C     0.28559   0.22278   0.89457   0.00000  Uiso   1.00
C14    C     0.85885   0.33466   0.89027   0.00000  Uiso   1.00
C15    C     0.74873   0.32806   0.95135   0.00000  Uiso   1.00
C16    C     0.67386   0.46934   0.98020   0.00000  Uiso   1.00
C17    C     0.57781   0.43623   0.03584   0.00000  Uiso   1.00
C18    C     0.84670   0.18944   0.85547   0.00000  Uiso   1.00
C19    C     0.85422   0.21417   0.80371   0.00000  Uiso   1.00
C20    C     0.84067   0.06439   0.77863   0.00000  Uiso   1.00
C21    C     0.95545   0.27405   0.89654   0.00000  Uiso   1.00
C22    C     0.05444   0.36990   0.87929   0.00000  Uiso   1.00
C23    C     0.13247   0.29131   0.88878   0.00000  Uiso   1.00
H24    H     0.80557   0.89359   0.95787   0.00000  Uiso   1.00
H25    H     0.61672   0.99605   0.05272   0.00000  Uiso   1.00
H26    H     0.79708   0.74093   0.87625   0.00000  Uiso   1.00
H27    H     0.99725   0.89663   0.95183   0.00000  Uiso   1.00
H28    H     0.41630   0.18388   0.14649   0.00000  Uiso   1.00
H29    H     0.79661   0.64594   0.77439   0.00000  Uiso   1.00
H30    H     0.21874   0.97425   0.93375   0.00000  Uiso   1.00
H31    H     0.87468   0.46575   0.87018   0.00000  Uiso   1.00
H32    H     0.68962   0.59962   0.96022   0.00000  Uiso   1.00
H33    H     0.86997   0.34449   0.78375   0.00000  Uiso   1.00
H34    H     0.07015   0.50019   0.85932   0.00000  Uiso   1.00
H35    H     0.47545   0.67376   0.07141   0.00000  Uiso   1.00
H36    H     0.85578   0.13581   0.69930   0.00000  Uiso   1.00
H37    H     0.27790   0.46413   0.85867   0.00000  Uiso   1.00
O38    O     0.32287   0.50654   0.16975   0.00000  Uiso   1.00
O39    O     0.82186   0.80077   0.68157   0.00000  Uiso   1.00
O40    O     0.37566   0.23152   0.89065   0.00000  Uiso   1.00
N41    N     0.45563   0.28081   0.11647   0.00000  Uiso   1.00
N42    N     0.81119   0.77787   0.76858   0.00000  Uiso   1.00
N43    N     0.20585   0.08480   0.91755   0.00000  Uiso   1.00
N44    N     0.48746   0.54441   0.07607   0.00000  Uiso   1.00
N45    N     0.84302   0.04147   0.72818   0.00000  Uiso   1.00
N46    N     0.23768   0.34840   0.87715   0.00000  Uiso   1.00
C47    C     0.17859   0.02467   0.56222   0.00000  Uiso   1.00
C48    C     0.27161   0.15969   0.52284   0.00000  Uiso   1.00
C49    C     0.36756   0.12637   0.46723   0.00000  Uiso   1.00
C50    C     0.44256   0.26756   0.43831   0.00000  Uiso   1.00
C51    C     0.59011   0.45156   0.37325   0.00000  Uiso   1.00
C52    C     0.17364   0.02108   0.61872   0.00000  Uiso   1.00
C53    C     0.18720   0.87121   0.64373   0.00000  Uiso   1.00
C54    C     0.17970   0.89572   0.69551   0.00000  Uiso   1.00
C55    C     0.17507   0.86451   0.77933   0.00000  Uiso   1.00
C56    C     0.06488   0.10568   0.57765   0.00000  Uiso   1.00
C57    C     0.98698   0.02692   0.56814   0.00000  Uiso   1.00
C58    C     0.88790   0.12264   0.58537   0.00000  Uiso   1.00
C59    C     0.71441   0.22278   0.60543   0.00000  Uiso   1.00
C60    C     0.14115   0.33466   0.60973   0.00000  Uiso   1.00
C61    C     0.25127   0.32806   0.54865   0.00000  Uiso   1.00
C62    C     0.32614   0.46934   0.51980   0.00000  Uiso   1.00
C63    C     0.42219   0.43623   0.46416   0.00000  Uiso   1.00
C64    C     0.15330   0.18944   0.64453   0.00000  Uiso   1.00
C65    C     0.14578   0.21417   0.69629   0.00000  Uiso   1.00
C66    C     0.15933   0.06439   0.72137   0.00000  Uiso   1.00
C67    C     0.04455   0.27405   0.60346   0.00000  Uiso   1.00
C68    C     0.94556   0.36990   0.62071   0.00000  Uiso   1.00
C69    C     0.86753   0.29131   0.61122   0.00000  Uiso   1.00
H70    H     0.19443   0.89359   0.54213   0.00000  Uiso   1.00
H71    H     0.38328   0.99605   0.44728   0.00000  Uiso   1.00
H72    H     0.20292   0.74093   0.62375   0.00000  Uiso   1.00
H73    H     0.00275   0.89663   0.54817   0.00000  Uiso   1.00
H74    H     0.58370   0.18388   0.35351   0.00000  Uiso   1.00
H75    H     0.20339   0.64594   0.72561   0.00000  Uiso   1.00
H76    H     0.78126   0.97425   0.56625   0.00000  Uiso   1.00
H77    H     0.12532   0.46575   0.62982   0.00000  Uiso   1.00
H78    H     0.31038   0.59962   0.53978   0.00000  Uiso   1.00
H79    H     0.13003   0.34449   0.71625   0.00000  Uiso   1.00
H80    H     0.92985   0.50019   0.64068   0.00000  Uiso   1.00
H81    H     0.52455   0.67376   0.42859   0.00000  Uiso   1.00
H82    H     0.14422   0.13581   0.80070   0.00000  Uiso   1.00
H83    H     0.72210   0.46413   0.64133   0.00000  Uiso   1.00
O84    O     0.67713   0.50654   0.33025   0.00000  Uiso   1.00
O85    O     0.17814   0.80077   0.81843   0.00000  Uiso   1.00
O86    O     0.62434   0.23152   0.60935   0.00000  Uiso   1.00
N87    N     0.54437   0.28081   0.38353   0.00000  Uiso   1.00
N88    N     0.18881   0.77787   0.73142   0.00000  Uiso   1.00
N89    N     0.79415   0.08480   0.58245   0.00000  Uiso   1.00
N90    N     0.51254   0.54441   0.42393   0.00000  Uiso   1.00
N91    N     0.15698   0.04147   0.77182   0.00000  Uiso   1.00
N92    N     0.76232   0.34840   0.62285   0.00000  Uiso   1.00
C93    C     0.17859   0.97533   0.06222   0.00000  Uiso   1.00
C94    C     0.27161   0.84031   0.02284   0.00000  Uiso   1.00
C95    C     0.36756   0.87363   0.96723   0.00000  Uiso   1.00
C96    C     0.44256   0.73244   0.93831   0.00000  Uiso   1.00
C97    C     0.59011   0.54844   0.87325   0.00000  Uiso   1.00
C98    C     0.17364   0.97892   0.11872   0.00000  Uiso   1.00
C99    C     0.18720   0.12879   0.14373   0.00000  Uiso   1.00
C100   C     0.17970   0.10428   0.19551   0.00000  Uiso   1.00
C101   C     0.17507   0.13549   0.27933   0.00000  Uiso   1.00
C102   C     0.06488   0.89432   0.07765   0.00000  Uiso   1.00
C103   C     0.98698   0.97308   0.06814   0.00000  Uiso   1.00
C104   C     0.88790   0.87736   0.08537   0.00000  Uiso   1.00
C105   C     0.71441   0.77722   0.10543   0.00000  Uiso   1.00
C106   C     0.14115   0.66534   0.10973   0.00000  Uiso   1.00
C107   C     0.25127   0.67194   0.04865   0.00000  Uiso   1.00
C108   C     0.32614   0.53066   0.01980   0.00000  Uiso   1.00
C109   C     0.42219   0.56377   0.96416   0.00000  Uiso   1.00
C110   C     0.15330   0.81056   0.14453   0.00000  Uiso   1.00
C111   C     0.14578   0.78583   0.19629   0.00000  Uiso   1.00
C112   C     0.15933   0.93561   0.22137   0.00000  Uiso   1.00
C113   C     0.04455   0.72595   0.10346   0.00000  Uiso   1.00
C114   C     0.94556   0.63010   0.12071   0.00000  Uiso   1.00
C115   C     0.86753   0.70869   0.11122   0.00000  Uiso   1.00
H116   H     0.19443   0.10641   0.04213   0.00000  Uiso   1.00
H117   H     0.38328   0.00395   0.94728   0.00000  Uiso   1.00
H118   H     0.20292   0.25907   0.12375   0.00000  Uiso   1.00
H119   H     0.00275   0.10337   0.04817   0.00000  Uiso   1.00
H120   H     0.58370   0.81612   0.85351   0.00000  Uiso   1.00
H121   H     0.20339   0.35406   0.22561   0.00000  Uiso   1.00
H122   H     0.78126   0.02575   0.06625   0.00000  Uiso   1.00
H123   H     0.12532   0.53425   0.12982   0.00000  Uiso   1.00
H124   H     0.31038   0.40038   0.03978   0.00000  Uiso   1.00
H125   H     0.13003   0.65551   0.21625   0.00000  Uiso   1.00
H126   H     0.92985   0.49981   0.14068   0.00000  Uiso   1.00
H127   H     0.52455   0.32624   0.92859   0.00000  Uiso   1.00
H128   H     0.14422   0.86419   0.30070   0.00000  Uiso   1.00
H129   H     0.72210   0.53587   0.14133   0.00000  Uiso   1.00
O130   O     0.67713   0.49346   0.83025   0.00000  Uiso   1.00
O131   O     0.17814   0.19923   0.31843   0.00000  Uiso   1.00
O132   O     0.62434   0.76848   0.10935   0.00000  Uiso   1.00
N133   N     0.54437   0.71919   0.88353   0.00000  Uiso   1.00
N134   N     0.18881   0.22213   0.23142   0.00000  Uiso   1.00
N135   N     0.79415   0.91520   0.08245   0.00000  Uiso   1.00
N136   N     0.51254   0.45559   0.92393   0.00000  Uiso   1.00
N137   N     0.15698   0.95853   0.27182   0.00000  Uiso   1.00
N138   N     0.76232   0.65160   0.12285   0.00000  Uiso   1.00
C139   C     0.82141   0.97533   0.43778   0.00000  Uiso   1.00
C140   C     0.72839   0.84031   0.47716   0.00000  Uiso   1.00
C141   C     0.63244   0.87363   0.53277   0.00000  Uiso   1.00
C142   C     0.55744   0.73244   0.56169   0.00000  Uiso   1.00
C143   C     0.40989   0.54844   0.62675   0.00000  Uiso   1.00
C144   C     0.82636   0.97892   0.38128   0.00000  Uiso   1.00
C145   C     0.81280   0.12879   0.35627   0.00000  Uiso   1.00
C146   C     0.82030   0.10428   0.30449   0.00000  Uiso   1.00
C147   C     0.82493   0.13549   0.22067   0.00000  Uiso   1.00
C148   C     0.93512   0.89432   0.42235   0.00000  Uiso   1.00
C149   C     0.01302   0.97308   0.43186   0.00000  Uiso   1.00
C150   C     0.11210   0.87736   0.41463   0.00000  Uiso   1.00
C151   C     0.28559   0.77722   0.39457   0.00000  Uiso   1.00
C152   C     0.85885   0.66534   0.39027   0.00000  Uiso   1.00
C153   C     0.74873   0.67194   0.45135   0.00000  Uiso   1.00
C154   C     0.67386   0.53066   0.48020   0.00000  Uiso   1.00
C155   C     0.57781   0.56377   0.53584   0.00000  Uiso   1.00
C156   C     0.84670   0.81056   0.35547   0.00000  Uiso   1.00
C157   C     0.85422   0.78583   0.30371   0.00000  Uiso   1.00
C158   C     0.84067   0.93561   0.27863   0.00000  Uiso   1.00
C159   C     0.95545   0.72595   0.39654   0.00000  Uiso   1.00
C160   C     0.05444   0.63010   0.37929   0.00000  Uiso   1.00
C161   C     0.13247   0.70869   0.38878   0.00000  Uiso   1.00
H162   H     0.80557   0.10641   0.45787   0.00000  Uiso   1.00
H163   H     0.61672   0.00395   0.55272   0.00000  Uiso   1.00
H164   H     0.79708   0.25907   0.37625   0.00000  Uiso   1.00
H165   H     0.99725   0.10337   0.45183   0.00000  Uiso   1.00
H166   H     0.41630   0.81612   0.64649   0.00000  Uiso   1.00
H167   H     0.79661   0.35406   0.27439   0.00000  Uiso   1.00
H168   H     0.21874   0.02575   0.43375   0.00000  Uiso   1.00
H169   H     0.87468   0.53425   0.37018   0.00000  Uiso   1.00
H170   H     0.68962   0.40038   0.46022   0.00000  Uiso   1.00
H171   H     0.86997   0.65551   0.28375   0.00000  Uiso   1.00
H172   H     0.07015   0.49981   0.35932   0.00000  Uiso   1.00
H173   H     0.47545   0.32624   0.57141   0.00000  Uiso   1.00
H174   H     0.85578   0.86419   0.19930   0.00000  Uiso   1.00
H175   H     0.27790   0.53587   0.35867   0.00000  Uiso   1.00
O176   O     0.32287   0.49346   0.66975   0.00000  Uiso   1.00
O177   O     0.82186   0.19923   0.18157   0.00000  Uiso   1.00
O178   O     0.37566   0.76848   0.39065   0.00000  Uiso   1.00
N179   N     0.45563   0.71919   0.61647   0.00000  Uiso   1.00
N180   N     0.81119   0.22213   0.26858   0.00000  Uiso   1.00
N181   N     0.20585   0.91520   0.41755   0.00000  Uiso   1.00
N182   N     0.48746   0.45559   0.57607   0.00000  Uiso   1.00
N183   N     0.84302   0.95853   0.22818   0.00000  Uiso   1.00
N184   N     0.23768   0.65160   0.37715   0.00000  Uiso   1.00
