data_job_03480
_audit_creation_date              2018-12-19
_audit_creation_method            'Materials Studio'
_symmetry_space_group_name_H-M    'P1'
_symmetry_Int_Tables_number       1
_symmetry_cell_setting            triclinic
loop_
_symmetry_equiv_pos_as_xyz
  x,y,z
_cell_length_a                    35.1063
_cell_length_b                    12.6137
_cell_length_c                    28.0121
_cell_angle_alpha                 90.0000
_cell_angle_beta                  139.8130
_cell_angle_gamma                 90.0000
loop_
_atom_site_label
_atom_site_type_symbol
_atom_site_fract_x
_atom_site_fract_y
_atom_site_fract_z
_atom_site_U_iso_or_equiv
_atom_site_adp_type
_atom_site_occupancy
C1     C     0.35903   0.18129   0.49371   0.00000  Uiso   1.00
C2     C     0.40774   0.16865   0.50321   0.00000  Uiso   1.00
C3     C     0.46761   0.18394   0.56843   0.00000  Uiso   1.00
C4     C     0.50507   0.16846   0.56569   0.00000  Uiso   1.00
C5     C     0.58400   0.15340   0.59041   0.00000  Uiso   1.00
C6     C     0.31582   0.26193   0.43175   0.00000  Uiso   1.00
C7     C     0.29840   0.35564   0.43690   0.00000  Uiso   1.00
C8     C     0.25848   0.41867   0.37400   0.00000  Uiso   1.00
C9     C     0.19467   0.54839   0.28777   0.00000  Uiso   1.00
C10    C     0.32615   0.07583   0.46337   0.00000  Uiso   1.00
C11    C     0.31741   0.01307   0.49507   0.00000  Uiso   1.00
C12    C     0.28617   0.91943   0.45878   0.00000  Uiso   1.00
C13    C     0.23841   0.76021   0.42163   0.00000  Uiso   1.00
C14    C     0.31908   0.12660   0.37287   0.00000  Uiso   1.00
C15    C     0.38604   0.13895   0.43757   0.00000  Uiso   1.00
C16    C     0.42341   0.12343   0.43473   0.00000  Uiso   1.00
C17    C     0.48334   0.13869   0.49993   0.00000  Uiso   1.00
C18    C     0.29412   0.23223   0.36612   0.00000  Uiso   1.00
C19    C     0.25420   0.29513   0.30320   0.00000  Uiso   1.00
C20    C     0.23674   0.38891   0.30824   0.00000  Uiso   1.00
C21    C     0.30445   0.04612   0.39773   0.00000  Uiso   1.00
C22    C     0.27322   0.95257   0.36138   0.00000  Uiso   1.00
C23    C     0.26443   0.88968   0.39303   0.00000  Uiso   1.00
H24    H     0.37592   0.20442   0.54481   0.00000  Uiso   1.00
H25    H     0.48439   0.20693   0.61921   0.00000  Uiso   1.00
H26    H     0.31520   0.37860   0.48769   0.00000  Uiso   1.00
H27    H     0.33421   0.03608   0.54587   0.00000  Uiso   1.00
H28    H     0.59507   0.19666   0.67274   0.00000  Uiso   1.00
H29    H     0.23831   0.55860   0.39543   0.00000  Uiso   1.00
H30    H     0.27840   0.83635   0.51809   0.00000  Uiso   1.00
H31    H     0.30218   0.10348   0.32177   0.00000  Uiso   1.00
H32    H     0.40661   0.10045   0.38393   0.00000  Uiso   1.00
H33    H     0.23742   0.27212   0.25241   0.00000  Uiso   1.00
H34    H     0.25643   0.92961   0.31059   0.00000  Uiso   1.00
H35    H     0.53195   0.11024   0.48178   0.00000  Uiso   1.00
H36    H     0.17518   0.47218   0.20446   0.00000  Uiso   1.00
H37    H     0.21527   0.74993   0.32713   0.00000  Uiso   1.00
O38    O     0.63353   0.15331   0.62217   0.00000  Uiso   1.00
O39    O     0.16547   0.62816   0.25834   0.00000  Uiso   1.00
O40    O     0.21806   0.68058   0.41928   0.00000  Uiso   1.00
N41    N     0.56589   0.17671   0.61927   0.00000  Uiso   1.00
N42    N     0.23234   0.51512   0.36000   0.00000  Uiso   1.00
N43    N     0.26981   0.83989   0.47467   0.00000  Uiso   1.00
N44    N     0.53192   0.13021   0.51652   0.00000  Uiso   1.00
N45    N     0.19838   0.46862   0.25725   0.00000  Uiso   1.00
N46    N     0.23584   0.79338   0.37192   0.00000  Uiso   1.00
C47    C     0.85903   0.68129   0.49371   0.00000  Uiso   1.00
C48    C     0.90774   0.66865   0.50321   0.00000  Uiso   1.00
C49    C     0.96761   0.68394   0.56843   0.00000  Uiso   1.00
C50    C     0.00507   0.66846   0.56569   0.00000  Uiso   1.00
C51    C     0.08400   0.65340   0.59041   0.00000  Uiso   1.00
C52    C     0.81582   0.76193   0.43175   0.00000  Uiso   1.00
C53    C     0.79840   0.85564   0.43690   0.00000  Uiso   1.00
C54    C     0.75848   0.91867   0.37400   0.00000  Uiso   1.00
C55    C     0.69467   0.04839   0.28777   0.00000  Uiso   1.00
C56    C     0.82615   0.57583   0.46337   0.00000  Uiso   1.00
C57    C     0.81741   0.51307   0.49507   0.00000  Uiso   1.00
C58    C     0.78617   0.41943   0.45878   0.00000  Uiso   1.00
C59    C     0.73841   0.26021   0.42163   0.00000  Uiso   1.00
C60    C     0.81908   0.62660   0.37287   0.00000  Uiso   1.00
C61    C     0.88604   0.63895   0.43757   0.00000  Uiso   1.00
C62    C     0.92341   0.62343   0.43473   0.00000  Uiso   1.00
C63    C     0.98334   0.63869   0.49993   0.00000  Uiso   1.00
C64    C     0.79412   0.73223   0.36612   0.00000  Uiso   1.00
C65    C     0.75420   0.79513   0.30320   0.00000  Uiso   1.00
C66    C     0.73674   0.88891   0.30824   0.00000  Uiso   1.00
C67    C     0.80445   0.54612   0.39773   0.00000  Uiso   1.00
C68    C     0.77322   0.45257   0.36138   0.00000  Uiso   1.00
C69    C     0.76443   0.38968   0.39303   0.00000  Uiso   1.00
H70    H     0.87592   0.70442   0.54481   0.00000  Uiso   1.00
H71    H     0.98439   0.70693   0.61921   0.00000  Uiso   1.00
H72    H     0.81520   0.87860   0.48769   0.00000  Uiso   1.00
H73    H     0.83421   0.53608   0.54587   0.00000  Uiso   1.00
H74    H     0.09507   0.69666   0.67274   0.00000  Uiso   1.00
H75    H     0.73831   0.05860   0.39543   0.00000  Uiso   1.00
H76    H     0.77840   0.33635   0.51809   0.00000  Uiso   1.00
H77    H     0.80218   0.60348   0.32177   0.00000  Uiso   1.00
H78    H     0.90661   0.60045   0.38393   0.00000  Uiso   1.00
H79    H     0.73742   0.77212   0.25241   0.00000  Uiso   1.00
H80    H     0.75643   0.42961   0.31059   0.00000  Uiso   1.00
H81    H     0.03195   0.61024   0.48178   0.00000  Uiso   1.00
H82    H     0.67518   0.97218   0.20446   0.00000  Uiso   1.00
H83    H     0.71527   0.24993   0.32713   0.00000  Uiso   1.00
O84    O     0.13353   0.65331   0.62217   0.00000  Uiso   1.00
O85    O     0.66547   0.12816   0.25834   0.00000  Uiso   1.00
O86    O     0.71806   0.18058   0.41928   0.00000  Uiso   1.00
N87    N     0.06589   0.67671   0.61927   0.00000  Uiso   1.00
N88    N     0.73234   0.01512   0.36000   0.00000  Uiso   1.00
N89    N     0.76981   0.33989   0.47467   0.00000  Uiso   1.00
N90    N     0.03192   0.63021   0.51652   0.00000  Uiso   1.00
N91    N     0.69838   0.96862   0.25725   0.00000  Uiso   1.00
N92    N     0.73584   0.29338   0.37192   0.00000  Uiso   1.00
C93    C     0.64097   0.18129   0.00629   0.00000  Uiso   1.00
C94    C     0.59226   0.16865   0.99679   0.00000  Uiso   1.00
C95    C     0.53239   0.18394   0.93157   0.00000  Uiso   1.00
C96    C     0.49493   0.16846   0.93431   0.00000  Uiso   1.00
C97    C     0.41600   0.15340   0.90959   0.00000  Uiso   1.00
C98    C     0.68418   0.26193   0.06825   0.00000  Uiso   1.00
C99    C     0.70160   0.35564   0.06310   0.00000  Uiso   1.00
C100   C     0.74152   0.41867   0.12600   0.00000  Uiso   1.00
C101   C     0.80533   0.54839   0.21223   0.00000  Uiso   1.00
C102   C     0.67385   0.07583   0.03663   0.00000  Uiso   1.00
C103   C     0.68259   0.01307   0.00493   0.00000  Uiso   1.00
C104   C     0.71383   0.91943   0.04122   0.00000  Uiso   1.00
C105   C     0.76159   0.76021   0.07837   0.00000  Uiso   1.00
C106   C     0.68092   0.12660   0.12713   0.00000  Uiso   1.00
C107   C     0.61396   0.13895   0.06243   0.00000  Uiso   1.00
C108   C     0.57659   0.12343   0.06527   0.00000  Uiso   1.00
C109   C     0.51666   0.13869   0.00007   0.00000  Uiso   1.00
C110   C     0.70588   0.23223   0.13388   0.00000  Uiso   1.00
C111   C     0.74580   0.29513   0.19680   0.00000  Uiso   1.00
C112   C     0.76326   0.38891   0.19176   0.00000  Uiso   1.00
C113   C     0.69555   0.04612   0.10227   0.00000  Uiso   1.00
C114   C     0.72678   0.95257   0.13862   0.00000  Uiso   1.00
C115   C     0.73557   0.88968   0.10697   0.00000  Uiso   1.00
H116   H     0.62408   0.20442   0.95519   0.00000  Uiso   1.00
H117   H     0.51561   0.20693   0.88079   0.00000  Uiso   1.00
H118   H     0.68480   0.37860   0.01231   0.00000  Uiso   1.00
H119   H     0.66579   0.03608   0.95413   0.00000  Uiso   1.00
H120   H     0.40493   0.19666   0.82726   0.00000  Uiso   1.00
H121   H     0.76169   0.55860   0.10457   0.00000  Uiso   1.00
H122   H     0.72160   0.83635   0.98191   0.00000  Uiso   1.00
H123   H     0.69782   0.10348   0.17823   0.00000  Uiso   1.00
H124   H     0.59339   0.10045   0.11607   0.00000  Uiso   1.00
H125   H     0.76258   0.27212   0.24759   0.00000  Uiso   1.00
H126   H     0.74357   0.92961   0.18941   0.00000  Uiso   1.00
H127   H     0.46805   0.11024   0.01822   0.00000  Uiso   1.00
H128   H     0.82482   0.47218   0.29554   0.00000  Uiso   1.00
H129   H     0.78473   0.74993   0.17287   0.00000  Uiso   1.00
O130   O     0.36647   0.15331   0.87783   0.00000  Uiso   1.00
O131   O     0.83453   0.62816   0.24166   0.00000  Uiso   1.00
O132   O     0.78194   0.68058   0.08072   0.00000  Uiso   1.00
N133   N     0.43411   0.17671   0.88073   0.00000  Uiso   1.00
N134   N     0.76766   0.51512   0.14000   0.00000  Uiso   1.00
N135   N     0.73019   0.83989   0.02533   0.00000  Uiso   1.00
N136   N     0.46808   0.13021   0.98348   0.00000  Uiso   1.00
N137   N     0.80162   0.46862   0.24275   0.00000  Uiso   1.00
N138   N     0.76416   0.79338   0.12808   0.00000  Uiso   1.00
C139   C     0.14097   0.68129   0.00629   0.00000  Uiso   1.00
C140   C     0.09226   0.66865   0.99679   0.00000  Uiso   1.00
C141   C     0.03239   0.68394   0.93157   0.00000  Uiso   1.00
C142   C     0.99493   0.66846   0.93431   0.00000  Uiso   1.00
C143   C     0.91600   0.65340   0.90959   0.00000  Uiso   1.00
C144   C     0.18418   0.76193   0.06825   0.00000  Uiso   1.00
C145   C     0.20160   0.85564   0.06310   0.00000  Uiso   1.00
C146   C     0.24152   0.91867   0.12600   0.00000  Uiso   1.00
C147   C     0.30533   0.04839   0.21223   0.00000  Uiso   1.00
C148   C     0.17385   0.57583   0.03663   0.00000  Uiso   1.00
C149   C     0.18259   0.51307   0.00493   0.00000  Uiso   1.00
C150   C     0.21383   0.41943   0.04122   0.00000  Uiso   1.00
C151   C     0.26159   0.26021   0.07837   0.00000  Uiso   1.00
C152   C     0.18092   0.62660   0.12713   0.00000  Uiso   1.00
C153   C     0.11396   0.63895   0.06243   0.00000  Uiso   1.00
C154   C     0.07659   0.62343   0.06527   0.00000  Uiso   1.00
C155   C     0.01666   0.63869   0.00007   0.00000  Uiso   1.00
C156   C     0.20588   0.73223   0.13388   0.00000  Uiso   1.00
C157   C     0.24580   0.79513   0.19680   0.00000  Uiso   1.00
C158   C     0.26326   0.88891   0.19176   0.00000  Uiso   1.00
C159   C     0.19555   0.54612   0.10227   0.00000  Uiso   1.00
C160   C     0.22678   0.45257   0.13862   0.00000  Uiso   1.00
C161   C     0.23557   0.38968   0.10697   0.00000  Uiso   1.00
H162   H     0.12408   0.70442   0.95519   0.00000  Uiso   1.00
H163   H     0.01561   0.70693   0.88079   0.00000  Uiso   1.00
H164   H     0.18480   0.87860   0.01231   0.00000  Uiso   1.00
H165   H     0.16579   0.53608   0.95413   0.00000  Uiso   1.00
H166   H     0.90493   0.69666   0.82726   0.00000  Uiso   1.00
H167   H     0.26169   0.05860   0.10457   0.00000  Uiso   1.00
H168   H     0.22160   0.33635   0.98191   0.00000  Uiso   1.00
H169   H     0.19782   0.60348   0.17823   0.00000  Uiso   1.00
H170   H     0.09339   0.60045   0.11607   0.00000  Uiso   1.00
H171   H     0.26258   0.77212   0.24759   0.00000  Uiso   1.00
H172   H     0.24357   0.42961   0.18941   0.00000  Uiso   1.00
H173   H     0.96805   0.61024   0.01822   0.00000  Uiso   1.00
H174   H     0.32482   0.97218   0.29554   0.00000  Uiso   1.00
H175   H     0.28473   0.24993   0.17287   0.00000  Uiso   1.00
O176   O     0.86647   0.65331   0.87783   0.00000  Uiso   1.00
O177   O     0.33453   0.12816   0.24166   0.00000  Uiso   1.00
O178   O     0.28194   0.18058   0.08072   0.00000  Uiso   1.00
N179   N     0.93411   0.67671   0.88073   0.00000  Uiso   1.00
N180   N     0.26766   0.01512   0.14000   0.00000  Uiso   1.00
N181   N     0.23019   0.33989   0.02533   0.00000  Uiso   1.00
N182   N     0.96808   0.63021   0.98348   0.00000  Uiso   1.00
N183   N     0.30162   0.96862   0.24275   0.00000  Uiso   1.00
N184   N     0.26416   0.29338   0.12808   0.00000  Uiso   1.00
C185   C     0.64097   0.81871   0.50629   0.00000  Uiso   1.00
C186   C     0.59226   0.83135   0.49679   0.00000  Uiso   1.00
C187   C     0.53239   0.81606   0.43157   0.00000  Uiso   1.00
C188   C     0.49493   0.83154   0.43431   0.00000  Uiso   1.00
C189   C     0.41600   0.84660   0.40959   0.00000  Uiso   1.00
C190   C     0.68418   0.73807   0.56825   0.00000  Uiso   1.00
C191   C     0.70160   0.64436   0.56310   0.00000  Uiso   1.00
C192   C     0.74152   0.58133   0.62600   0.00000  Uiso   1.00
C193   C     0.80533   0.45161   0.71223   0.00000  Uiso   1.00
C194   C     0.67385   0.92417   0.53663   0.00000  Uiso   1.00
C195   C     0.68259   0.98693   0.50493   0.00000  Uiso   1.00
C196   C     0.71383   0.08057   0.54122   0.00000  Uiso   1.00
C197   C     0.76159   0.23979   0.57837   0.00000  Uiso   1.00
C198   C     0.68092   0.87340   0.62713   0.00000  Uiso   1.00
C199   C     0.61396   0.86105   0.56243   0.00000  Uiso   1.00
C200   C     0.57659   0.87657   0.56527   0.00000  Uiso   1.00
C201   C     0.51666   0.86131   0.50007   0.00000  Uiso   1.00
C202   C     0.70588   0.76777   0.63388   0.00000  Uiso   1.00
C203   C     0.74580   0.70487   0.69680   0.00000  Uiso   1.00
C204   C     0.76326   0.61109   0.69176   0.00000  Uiso   1.00
C205   C     0.69555   0.95388   0.60227   0.00000  Uiso   1.00
C206   C     0.72678   0.04743   0.63862   0.00000  Uiso   1.00
C207   C     0.73557   0.11032   0.60697   0.00000  Uiso   1.00
H208   H     0.62408   0.79558   0.45519   0.00000  Uiso   1.00
H209   H     0.51561   0.79307   0.38079   0.00000  Uiso   1.00
H210   H     0.68480   0.62140   0.51231   0.00000  Uiso   1.00
H211   H     0.66579   0.96392   0.45413   0.00000  Uiso   1.00
H212   H     0.40493   0.80334   0.32726   0.00000  Uiso   1.00
H213   H     0.76169   0.44140   0.60457   0.00000  Uiso   1.00
H214   H     0.72160   0.16365   0.48191   0.00000  Uiso   1.00
H215   H     0.69782   0.89652   0.67823   0.00000  Uiso   1.00
H216   H     0.59339   0.89955   0.61607   0.00000  Uiso   1.00
H217   H     0.76258   0.72788   0.74759   0.00000  Uiso   1.00
H218   H     0.74357   0.07039   0.68941   0.00000  Uiso   1.00
H219   H     0.46805   0.88976   0.51822   0.00000  Uiso   1.00
H220   H     0.82482   0.52782   0.79554   0.00000  Uiso   1.00
H221   H     0.78473   0.25007   0.67287   0.00000  Uiso   1.00
O222   O     0.36647   0.84669   0.37783   0.00000  Uiso   1.00
O223   O     0.83453   0.37184   0.74166   0.00000  Uiso   1.00
O224   O     0.78194   0.31942   0.58072   0.00000  Uiso   1.00
N225   N     0.43411   0.82329   0.38073   0.00000  Uiso   1.00
N226   N     0.76766   0.48488   0.64000   0.00000  Uiso   1.00
N227   N     0.73019   0.16011   0.52533   0.00000  Uiso   1.00
N228   N     0.46808   0.86979   0.48348   0.00000  Uiso   1.00
N229   N     0.80162   0.53138   0.74275   0.00000  Uiso   1.00
N230   N     0.76416   0.20662   0.62808   0.00000  Uiso   1.00
C231   C     0.14097   0.31871   0.50629   0.00000  Uiso   1.00
C232   C     0.09226   0.33135   0.49679   0.00000  Uiso   1.00
C233   C     0.03239   0.31606   0.43157   0.00000  Uiso   1.00
C234   C     0.99493   0.33154   0.43431   0.00000  Uiso   1.00
C235   C     0.91600   0.34660   0.40959   0.00000  Uiso   1.00
C236   C     0.18418   0.23807   0.56825   0.00000  Uiso   1.00
C237   C     0.20160   0.14436   0.56310   0.00000  Uiso   1.00
C238   C     0.24152   0.08133   0.62600   0.00000  Uiso   1.00
C239   C     0.30533   0.95161   0.71223   0.00000  Uiso   1.00
C240   C     0.17385   0.42417   0.53663   0.00000  Uiso   1.00
C241   C     0.18259   0.48693   0.50493   0.00000  Uiso   1.00
C242   C     0.21383   0.58057   0.54122   0.00000  Uiso   1.00
C243   C     0.26159   0.73979   0.57837   0.00000  Uiso   1.00
C244   C     0.18092   0.37340   0.62713   0.00000  Uiso   1.00
C245   C     0.11396   0.36105   0.56243   0.00000  Uiso   1.00
C246   C     0.07659   0.37657   0.56527   0.00000  Uiso   1.00
C247   C     0.01666   0.36131   0.50007   0.00000  Uiso   1.00
C248   C     0.20588   0.26777   0.63388   0.00000  Uiso   1.00
C249   C     0.24580   0.20487   0.69680   0.00000  Uiso   1.00
C250   C     0.26326   0.11109   0.69176   0.00000  Uiso   1.00
C251   C     0.19555   0.45388   0.60227   0.00000  Uiso   1.00
C252   C     0.22678   0.54743   0.63862   0.00000  Uiso   1.00
C253   C     0.23557   0.61032   0.60697   0.00000  Uiso   1.00
H254   H     0.12408   0.29558   0.45519   0.00000  Uiso   1.00
H255   H     0.01561   0.29307   0.38079   0.00000  Uiso   1.00
H256   H     0.18480   0.12140   0.51231   0.00000  Uiso   1.00
H257   H     0.16579   0.46392   0.45413   0.00000  Uiso   1.00
H258   H     0.90493   0.30334   0.32726   0.00000  Uiso   1.00
H259   H     0.26169   0.94140   0.60457   0.00000  Uiso   1.00
H260   H     0.22160   0.66365   0.48191   0.00000  Uiso   1.00
H261   H     0.19782   0.39652   0.67823   0.00000  Uiso   1.00
H262   H     0.09339   0.39955   0.61607   0.00000  Uiso   1.00
H263   H     0.26258   0.22788   0.74759   0.00000  Uiso   1.00
H264   H     0.24357   0.57039   0.68941   0.00000  Uiso   1.00
H265   H     0.96805   0.38976   0.51822   0.00000  Uiso   1.00
H266   H     0.32482   0.02782   0.79554   0.00000  Uiso   1.00
H267   H     0.28473   0.75007   0.67287   0.00000  Uiso   1.00
O268   O     0.86647   0.34669   0.37783   0.00000  Uiso   1.00
O269   O     0.33453   0.87184   0.74166   0.00000  Uiso   1.00
O270   O     0.28194   0.81942   0.58072   0.00000  Uiso   1.00
N271   N     0.93411   0.32329   0.38073   0.00000  Uiso   1.00
N272   N     0.26766   0.98488   0.64000   0.00000  Uiso   1.00
N273   N     0.23019   0.66011   0.52533   0.00000  Uiso   1.00
N274   N     0.96808   0.36979   0.48348   0.00000  Uiso   1.00
N275   N     0.30162   0.03138   0.74275   0.00000  Uiso   1.00
N276   N     0.26416   0.70662   0.62808   0.00000  Uiso   1.00
C277   C     0.35903   0.81871   0.99371   0.00000  Uiso   1.00
C278   C     0.40774   0.83135   0.00321   0.00000  Uiso   1.00
C279   C     0.46761   0.81606   0.06843   0.00000  Uiso   1.00
C280   C     0.50507   0.83154   0.06569   0.00000  Uiso   1.00
C281   C     0.58400   0.84660   0.09041   0.00000  Uiso   1.00
C282   C     0.31582   0.73807   0.93175   0.00000  Uiso   1.00
C283   C     0.29840   0.64436   0.93690   0.00000  Uiso   1.00
C284   C     0.25848   0.58133   0.87400   0.00000  Uiso   1.00
C285   C     0.19467   0.45161   0.78777   0.00000  Uiso   1.00
C286   C     0.32615   0.92417   0.96337   0.00000  Uiso   1.00
C287   C     0.31741   0.98693   0.99507   0.00000  Uiso   1.00
C288   C     0.28617   0.08057   0.95878   0.00000  Uiso   1.00
C289   C     0.23841   0.23979   0.92163   0.00000  Uiso   1.00
C290   C     0.31908   0.87340   0.87287   0.00000  Uiso   1.00
C291   C     0.38604   0.86105   0.93757   0.00000  Uiso   1.00
C292   C     0.42341   0.87657   0.93473   0.00000  Uiso   1.00
C293   C     0.48334   0.86131   0.99993   0.00000  Uiso   1.00
C294   C     0.29412   0.76777   0.86612   0.00000  Uiso   1.00
C295   C     0.25420   0.70487   0.80320   0.00000  Uiso   1.00
C296   C     0.23674   0.61109   0.80824   0.00000  Uiso   1.00
C297   C     0.30445   0.95388   0.89773   0.00000  Uiso   1.00
C298   C     0.27322   0.04743   0.86138   0.00000  Uiso   1.00
C299   C     0.26443   0.11032   0.89303   0.00000  Uiso   1.00
H300   H     0.37592   0.79558   0.04481   0.00000  Uiso   1.00
H301   H     0.48439   0.79307   0.11921   0.00000  Uiso   1.00
H302   H     0.31520   0.62140   0.98769   0.00000  Uiso   1.00
H303   H     0.33421   0.96392   0.04587   0.00000  Uiso   1.00
H304   H     0.59507   0.80334   0.17274   0.00000  Uiso   1.00
H305   H     0.23831   0.44140   0.89543   0.00000  Uiso   1.00
H306   H     0.27840   0.16365   0.01809   0.00000  Uiso   1.00
H307   H     0.30218   0.89652   0.82177   0.00000  Uiso   1.00
H308   H     0.40661   0.89955   0.88393   0.00000  Uiso   1.00
H309   H     0.23742   0.72788   0.75241   0.00000  Uiso   1.00
H310   H     0.25643   0.07039   0.81059   0.00000  Uiso   1.00
H311   H     0.53195   0.88976   0.98178   0.00000  Uiso   1.00
H312   H     0.17518   0.52782   0.70446   0.00000  Uiso   1.00
H313   H     0.21527   0.25007   0.82713   0.00000  Uiso   1.00
O314   O     0.63353   0.84669   0.12217   0.00000  Uiso   1.00
O315   O     0.16547   0.37184   0.75834   0.00000  Uiso   1.00
O316   O     0.21806   0.31942   0.91928   0.00000  Uiso   1.00
N317   N     0.56589   0.82329   0.11927   0.00000  Uiso   1.00
N318   N     0.23234   0.48488   0.86000   0.00000  Uiso   1.00
N319   N     0.26981   0.16011   0.97467   0.00000  Uiso   1.00
N320   N     0.53192   0.86979   0.01652   0.00000  Uiso   1.00
N321   N     0.19838   0.53138   0.75725   0.00000  Uiso   1.00
N322   N     0.23584   0.20662   0.87192   0.00000  Uiso   1.00
C323   C     0.85903   0.31871   0.99371   0.00000  Uiso   1.00
C324   C     0.90774   0.33135   0.00321   0.00000  Uiso   1.00
C325   C     0.96761   0.31606   0.06843   0.00000  Uiso   1.00
C326   C     0.00507   0.33154   0.06569   0.00000  Uiso   1.00
C327   C     0.08400   0.34660   0.09041   0.00000  Uiso   1.00
C328   C     0.81582   0.23807   0.93175   0.00000  Uiso   1.00
C329   C     0.79840   0.14436   0.93690   0.00000  Uiso   1.00
C330   C     0.75848   0.08133   0.87400   0.00000  Uiso   1.00
C331   C     0.69467   0.95161   0.78777   0.00000  Uiso   1.00
C332   C     0.82615   0.42417   0.96337   0.00000  Uiso   1.00
C333   C     0.81741   0.48693   0.99507   0.00000  Uiso   1.00
C334   C     0.78617   0.58057   0.95878   0.00000  Uiso   1.00
C335   C     0.73841   0.73979   0.92163   0.00000  Uiso   1.00
C336   C     0.81908   0.37340   0.87287   0.00000  Uiso   1.00
C337   C     0.88604   0.36105   0.93757   0.00000  Uiso   1.00
C338   C     0.92341   0.37657   0.93473   0.00000  Uiso   1.00
C339   C     0.98334   0.36131   0.99993   0.00000  Uiso   1.00
C340   C     0.79412   0.26777   0.86612   0.00000  Uiso   1.00
C341   C     0.75420   0.20487   0.80320   0.00000  Uiso   1.00
C342   C     0.73674   0.11109   0.80824   0.00000  Uiso   1.00
C343   C     0.80445   0.45388   0.89773   0.00000  Uiso   1.00
C344   C     0.77322   0.54743   0.86138   0.00000  Uiso   1.00
C345   C     0.76443   0.61032   0.89303   0.00000  Uiso   1.00
H346   H     0.87592   0.29558   0.04481   0.00000  Uiso   1.00
H347   H     0.98439   0.29307   0.11921   0.00000  Uiso   1.00
H348   H     0.81520   0.12140   0.98769   0.00000  Uiso   1.00
H349   H     0.83421   0.46392   0.04587   0.00000  Uiso   1.00
H350   H     0.09507   0.30334   0.17274   0.00000  Uiso   1.00
H351   H     0.73831   0.94140   0.89543   0.00000  Uiso   1.00
H352   H     0.77840   0.66365   0.01809   0.00000  Uiso   1.00
H353   H     0.80218   0.39652   0.82177   0.00000  Uiso   1.00
H354   H     0.90661   0.39955   0.88393   0.00000  Uiso   1.00
H355   H     0.73742   0.22788   0.75241   0.00000  Uiso   1.00
H356   H     0.75643   0.57039   0.81059   0.00000  Uiso   1.00
H357   H     0.03195   0.38976   0.98178   0.00000  Uiso   1.00
H358   H     0.67518   0.02782   0.70446   0.00000  Uiso   1.00
H359   H     0.71527   0.75007   0.82713   0.00000  Uiso   1.00
O360   O     0.13353   0.34669   0.12217   0.00000  Uiso   1.00
O361   O     0.66547   0.87184   0.75834   0.00000  Uiso   1.00
O362   O     0.71806   0.81942   0.91928   0.00000  Uiso   1.00
N363   N     0.06589   0.32329   0.11927   0.00000  Uiso   1.00
N364   N     0.73234   0.98488   0.86000   0.00000  Uiso   1.00
N365   N     0.76981   0.66011   0.97467   0.00000  Uiso   1.00
N366   N     0.03192   0.36979   0.01652   0.00000  Uiso   1.00
N367   N     0.69838   0.03138   0.75725   0.00000  Uiso   1.00
N368   N     0.73584   0.70662   0.87192   0.00000  Uiso   1.00
