data_job_06863
_audit_creation_date              2018-12-19
_audit_creation_method            'Materials Studio'
_symmetry_space_group_name_H-M    'P1'
_symmetry_Int_Tables_number       1
_symmetry_cell_setting            triclinic
loop_
_symmetry_equiv_pos_as_xyz
  x,y,z
_cell_length_a                    23.6241
_cell_length_b                    21.7708
_cell_length_c                    20.4971
_cell_angle_alpha                 104.2620
_cell_angle_beta                  114.8670
_cell_angle_gamma                 104.6450
loop_
_atom_site_label
_atom_site_type_symbol
_atom_site_fract_x
_atom_site_fract_y
_atom_site_fract_z
_atom_site_U_iso_or_equiv
_atom_site_adp_type
_atom_site_occupancy
C1     C     0.27326   0.70644   0.52546   0.00000  Uiso   1.00
C2     C     0.19930   0.68677   0.46414   0.00000  Uiso   1.00
C3     C     0.14520   0.67649   0.47714   0.00000  Uiso   1.00
C4     C     0.08142   0.65875   0.41341   0.00000  Uiso   1.00
C5     C     0.96798   0.62927   0.32946   0.00000  Uiso   1.00
C6     C     0.29349   0.65056   0.49248   0.00000  Uiso   1.00
C7     C     0.31859   0.60985   0.52933   0.00000  Uiso   1.00
C8     C     0.33411   0.56164   0.48946   0.00000  Uiso   1.00
C9     C     0.36695   0.47598   0.44954   0.00000  Uiso   1.00
C10    C     0.31529   0.77289   0.52634   0.00000  Uiso   1.00
C11    C     0.35874   0.83504   0.59165   0.00000  Uiso   1.00
C12    C     0.39262   0.88982   0.58029   0.00000  Uiso   1.00
C13    C     0.45932   0.99411   0.59293   0.00000  Uiso   1.00
C14    C     0.25619   0.69319   0.38916   0.00000  Uiso   1.00
C15    C     0.19003   0.67957   0.39011   0.00000  Uiso   1.00
C16    C     0.12632   0.66184   0.32634   0.00000  Uiso   1.00
C17    C     0.07213   0.65155   0.33925   0.00000  Uiso   1.00
C18    C     0.28422   0.64337   0.41845   0.00000  Uiso   1.00
C19    C     0.29971   0.59520   0.37853   0.00000  Uiso   1.00
C20    C     0.32482   0.55443   0.41530   0.00000  Uiso   1.00
C21    C     0.30602   0.76570   0.45231   0.00000  Uiso   1.00
C22    C     0.33985   0.82039   0.44085   0.00000  Uiso   1.00
C23    C     0.38334   0.88261   0.50613   0.00000  Uiso   1.00
H24    H     0.28048   0.71203   0.58309   0.00000  Uiso   1.00
H25    H     0.15240   0.68206   0.53444   0.00000  Uiso   1.00
H26    H     0.32577   0.61544   0.58662   0.00000  Uiso   1.00
H27    H     0.36590   0.84059   0.64893   0.00000  Uiso   1.00
H28    H     0.00630   0.64563   0.44785   0.00000  Uiso   1.00
H29    H     0.37188   0.50517   0.55788   0.00000  Uiso   1.00
H30    H     0.45652   0.97995   0.68928   0.00000  Uiso   1.00
H31    H     0.24898   0.68759   0.33152   0.00000  Uiso   1.00
H32    H     0.11916   0.65628   0.26906   0.00000  Uiso   1.00
H33    H     0.29253   0.58966   0.32124   0.00000  Uiso   1.00
H34    H     0.33267   0.81481   0.38355   0.00000  Uiso   1.00
H35    H     0.97932   0.62471   0.23245   0.00000  Uiso   1.00
H36    H     0.34491   0.48424   0.34249   0.00000  Uiso   1.00
H37    H     0.42954   0.95902   0.47388   0.00000  Uiso   1.00
O38    O     0.90797   0.61499   0.30359   0.00000  Uiso   1.00
O39    O     0.38762   0.43072   0.44796   0.00000  Uiso   1.00
O40    O     0.49866   0.05362   0.62035   0.00000  Uiso   1.00
N41    N     0.01776   0.64502   0.40573   0.00000  Uiso   1.00
N42    N     0.35956   0.51369   0.50860   0.00000  Uiso   1.00
N43    N     0.43870   0.95756   0.63145   0.00000  Uiso   1.00
N44    N     0.00325   0.63376   0.28983   0.00000  Uiso   1.00
N45    N     0.34504   0.50243   0.39270   0.00000  Uiso   1.00
N46    N     0.42418   0.94630   0.51555   0.00000  Uiso   1.00
C47    C     0.43139   0.17036   0.66564   0.00000  Uiso   1.00
C48    C     0.35990   0.13128   0.64847   0.00000  Uiso   1.00
C49    C     0.32925   0.06063   0.62763   0.00000  Uiso   1.00
C50    C     0.26354   0.03481   0.61435   0.00000  Uiso   1.00
C51    C     0.15767   0.96754   0.58652   0.00000  Uiso   1.00
C52    C     0.42255   0.20704   0.60980   0.00000  Uiso   1.00
C53    C     0.44458   0.20009   0.55645   0.00000  Uiso   1.00
C54    C     0.43162   0.23806   0.51063   0.00000  Uiso   1.00
C55    C     0.42306   0.28844   0.42281   0.00000  Uiso   1.00
C56    C     0.46909   0.22744   0.74790   0.00000  Uiso   1.00
C57    C     0.53026   0.23766   0.81067   0.00000  Uiso   1.00
C58    C     0.55649   0.29281   0.88112   0.00000  Uiso   1.00
C59    C     0.62019   0.37486   0.00773   0.00000  Uiso   1.00
C60    C     0.36921   0.25016   0.67913   0.00000  Uiso   1.00
C61    C     0.32613   0.17463   0.65579   0.00000  Uiso   1.00
C62    C     0.26045   0.14892   0.64254   0.00000  Uiso   1.00
C63    C     0.22971   0.07823   0.62169   0.00000  Uiso   1.00
C64    C     0.38878   0.25039   0.61712   0.00000  Uiso   1.00
C65    C     0.37579   0.28838   0.57137   0.00000  Uiso   1.00
C66    C     0.39779   0.28148   0.51797   0.00000  Uiso   1.00
C67    C     0.43532   0.27079   0.75522   0.00000  Uiso   1.00
C68    C     0.46146   0.32594   0.82559   0.00000  Uiso   1.00
C69    C     0.52266   0.33623   0.88846   0.00000  Uiso   1.00
H70    H     0.45768   0.13662   0.65994   0.00000  Uiso   1.00
H71    H     0.35540   0.02710   0.62196   0.00000  Uiso   1.00
H72    H     0.47072   0.16655   0.55081   0.00000  Uiso   1.00
H73    H     0.55638   0.20410   0.80498   0.00000  Uiso   1.00
H74    H     0.22710   0.92479   0.58305   0.00000  Uiso   1.00
H75    H     0.47028   0.21884   0.43304   0.00000  Uiso   1.00
H76    H     0.65092   0.29804   0.96902   0.00000  Uiso   1.00
H77    H     0.34291   0.28391   0.68483   0.00000  Uiso   1.00
H78    H     0.23433   0.18247   0.64821   0.00000  Uiso   1.00
H79    H     0.34965   0.32192   0.57706   0.00000  Uiso   1.00
H80    H     0.43531   0.35947   0.83123   0.00000  Uiso   1.00
H81    H     0.12883   0.05089   0.60435   0.00000  Uiso   1.00
H82    H     0.37202   0.34495   0.45434   0.00000  Uiso   1.00
H83    H     0.55265   0.42414   0.99033   0.00000  Uiso   1.00
O84    O     0.10860   0.91845   0.56914   0.00000  Uiso   1.00
O85    O     0.42766   0.30425   0.37234   0.00000  Uiso   1.00
O86    O     0.66464   0.40814   0.07554   0.00000  Uiso   1.00
N87    N     0.21888   0.96839   0.59310   0.00000  Uiso   1.00
N88    N     0.44623   0.24331   0.45284   0.00000  Uiso   1.00
N89    N     0.61512   0.31736   0.95394   0.00000  Uiso   1.00
N90    N     0.16600   0.03625   0.60457   0.00000  Uiso   1.00
N91    N     0.39335   0.31116   0.46431   0.00000  Uiso   1.00
N92    N     0.56224   0.38521   0.96540   0.00000  Uiso   1.00
C93    C     0.61171   0.38582   0.20237   0.00000  Uiso   1.00
C94    C     0.59927   0.30948   0.18077   0.00000  Uiso   1.00
C95    C     0.58225   0.26304   0.10868   0.00000  Uiso   1.00
C96    C     0.57299   0.19545   0.10060   0.00000  Uiso   1.00
C97    C     0.55249   0.08000   0.05764   0.00000  Uiso   1.00
C98    C     0.56233   0.39600   0.22928   0.00000  Uiso   1.00
C99    C     0.51427   0.42231   0.19798   0.00000  Uiso   1.00
C100   C     0.47392   0.42755   0.23074   0.00000  Uiso   1.00
C101   C     0.39612   0.44646   0.26313   0.00000  Uiso   1.00
C102   C     0.68299   0.42631   0.27508   0.00000  Uiso   1.00
C103   C     0.73638   0.47812   0.28230   0.00000  Uiso   1.00
C104   C     0.79762   0.50889   0.35363   0.00000  Uiso   1.00
C105   C     0.90716   0.57486   0.45713   0.00000  Uiso   1.00
C106   C     0.62553   0.34836   0.31621   0.00000  Uiso   1.00
C107   C     0.60677   0.28914   0.24260   0.00000  Uiso   1.00
C108   C     0.59754   0.22159   0.23463   0.00000  Uiso   1.00
C109   C     0.58051   0.17506   0.16254   0.00000  Uiso   1.00
C110   C     0.56984   0.37565   0.29111   0.00000  Uiso   1.00
C111   C     0.52956   0.38086   0.32393   0.00000  Uiso   1.00
C112   C     0.48144   0.40716   0.29269   0.00000  Uiso   1.00
C113   C     0.69050   0.40596   0.33691   0.00000  Uiso   1.00
C114   C     0.75167   0.43666   0.40824   0.00000  Uiso   1.00
C115   C     0.80514   0.48850   0.41557   0.00000  Uiso   1.00
H116   H     0.60586   0.40166   0.15424   0.00000  Uiso   1.00
H117   H     0.57643   0.27881   0.06084   0.00000  Uiso   1.00
H118   H     0.50847   0.43805   0.15014   0.00000  Uiso   1.00
H119   H     0.73055   0.49385   0.23444   0.00000  Uiso   1.00
H120   H     0.54710   0.13362   0.98456   0.00000  Uiso   1.00
H121   H     0.40381   0.46942   0.17286   0.00000  Uiso   1.00
H122   H     0.87210   0.58708   0.35063   0.00000  Uiso   1.00
H123   H     0.63137   0.33252   0.36435   0.00000  Uiso   1.00
H124   H     0.60335   0.20586   0.28249   0.00000  Uiso   1.00
H125   H     0.53539   0.36511   0.37178   0.00000  Uiso   1.00
H126   H     0.75746   0.42090   0.45608   0.00000  Uiso   1.00
H127   H     0.56894   0.07441   0.16445   0.00000  Uiso   1.00
H128   H     0.42566   0.41022   0.35275   0.00000  Uiso   1.00
H129   H     0.89394   0.52787   0.53052   0.00000  Uiso   1.00
O130   O     0.53911   0.02194   0.01686   0.00000  Uiso   1.00
O131   O     0.35113   0.46251   0.26390   0.00000  Uiso   1.00
O132   O     0.96551   0.61687   0.49713   0.00000  Uiso   1.00
N133   N     0.55610   0.13707   0.03814   0.00000  Uiso   1.00
N134   N     0.42213   0.45101   0.21418   0.00000  Uiso   1.00
N135   N     0.85993   0.56102   0.38038   0.00000  Uiso   1.00
N136   N     0.56786   0.10521   0.13494   0.00000  Uiso   1.00
N137   N     0.43388   0.41915   0.31097   0.00000  Uiso   1.00
N138   N     0.87169   0.52917   0.47718   0.00000  Uiso   1.00
C139   C     0.77720   0.04099   0.22572   0.00000  Uiso   1.00
C140   C     0.71151   0.99014   0.21205   0.00000  Uiso   1.00
C141   C     0.65965   0.00656   0.21603   0.00000  Uiso   1.00
C142   C     0.60371   0.95265   0.20161   0.00000  Uiso   1.00
C143   C     0.50227   0.88401   0.18305   0.00000  Uiso   1.00
C144   C     0.77974   0.01213   0.15171   0.00000  Uiso   1.00
C145   C     0.78527   0.04703   0.10497   0.00000  Uiso   1.00
C146   C     0.78677   0.01164   0.03976   0.00000  Uiso   1.00
C147   C     0.79133   0.97715   0.92756   0.00000  Uiso   1.00
C148   C     0.83545   0.03511   0.29098   0.00000  Uiso   1.00
C149   C     0.88784   0.08933   0.36133   0.00000  Uiso   1.00
C150   C     0.93626   0.07328   0.41338   0.00000  Uiso   1.00
C151   C     0.02731   0.07446   0.51741   0.00000  Uiso   1.00
C152   C     0.77005   0.91608   0.19304   0.00000  Uiso   1.00
C153   C     0.70762   0.92230   0.19430   0.00000  Uiso   1.00
C154   C     0.65174   0.86836   0.17987   0.00000  Uiso   1.00
C155   C     0.59982   0.88468   0.18383   0.00000  Uiso   1.00
C156   C     0.77586   0.94429   0.13396   0.00000  Uiso   1.00
C157   C     0.77736   0.90883   0.06881   0.00000  Uiso   1.00
C158   C     0.78288   0.94367   0.02198   0.00000  Uiso   1.00
C159   C     0.83157   0.96726   0.27323   0.00000  Uiso   1.00
C160   C     0.87992   0.95112   0.32517   0.00000  Uiso   1.00
C161   C     0.93237   0.00531   0.39559   0.00000  Uiso   1.00
H162   H     0.78022   0.09382   0.23954   0.00000  Uiso   1.00
H163   H     0.66267   0.05907   0.22976   0.00000  Uiso   1.00
H164   H     0.78828   0.09954   0.11873   0.00000  Uiso   1.00
H165   H     0.89082   0.14182   0.37505   0.00000  Uiso   1.00
H166   H     0.53062   0.99062   0.21107   0.00000  Uiso   1.00
H167   H     0.79549   0.07596   0.97696   0.00000  Uiso   1.00
H168   H     0.01173   0.16513   0.51747   0.00000  Uiso   1.00
H169   H     0.76703   0.86326   0.17921   0.00000  Uiso   1.00
H170   H     0.64875   0.81586   0.16613   0.00000  Uiso   1.00
H171   H     0.77436   0.85633   0.05509   0.00000  Uiso   1.00
H172   H     0.87690   0.89861   0.31142   0.00000  Uiso   1.00
H173   H     0.51932   0.79322   0.15942   0.00000  Uiso   1.00
H174   H     0.78419   0.87857   0.92531   0.00000  Uiso   1.00
H175   H     0.00043   0.96773   0.46582   0.00000  Uiso   1.00
O176   O     0.44739   0.86489   0.17771   0.00000  Uiso   1.00
O177   O     0.79490   0.97687   0.87057   0.00000  Uiso   1.00
O178   O     0.07860   0.09385   0.57970   0.00000  Uiso   1.00
N179   N     0.54420   0.95067   0.20073   0.00000  Uiso   1.00
N180   N     0.79182   0.03046   0.98184   0.00000  Uiso   1.00
N181   N     0.99400   0.11382   0.48716   0.00000  Uiso   1.00
N182   N     0.53812   0.84445   0.17294   0.00000  Uiso   1.00
N183   N     0.78574   0.92424   0.95405   0.00000  Uiso   1.00
N184   N     0.98792   0.00761   0.45937   0.00000  Uiso   1.00
C185   C     0.06448   0.22481   0.87300   0.00000  Uiso   1.00
C186   C     0.05837   0.23751   0.80087   0.00000  Uiso   1.00
C187   C     0.11171   0.26016   0.78811   0.00000  Uiso   1.00
C188   C     0.09560   0.26860   0.71840   0.00000  Uiso   1.00
C189   C     0.09630   0.29038   0.61473   0.00000  Uiso   1.00
C190   C     0.01541   0.14988   0.84231   0.00000  Uiso   1.00
C191   C     0.03263   0.09885   0.86439   0.00000  Uiso   1.00
C192   C     0.98035   0.03352   0.82957   0.00000  Uiso   1.00
C193   C     0.91434   0.91927   0.79028   0.00000  Uiso   1.00
C194   C     0.03506   0.26970   0.90654   0.00000  Uiso   1.00
C195   C     0.06880   0.31940   0.98265   0.00000  Uiso   1.00
C196   C     0.03306   0.35495   0.00191   0.00000  Uiso   1.00
C197   C     0.99757   0.42674   0.06235   0.00000  Uiso   1.00
C198   C     0.94102   0.19953   0.77190   0.00000  Uiso   1.00
C199   C     0.99131   0.22378   0.74596   0.00000  Uiso   1.00
C200   C     0.97511   0.23220   0.67625   0.00000  Uiso   1.00
C201   C     0.02842   0.25485   0.66339   0.00000  Uiso   1.00
C202   C     0.94835   0.13615   0.78739   0.00000  Uiso   1.00
C203   C     0.89603   0.07089   0.75253   0.00000  Uiso   1.00
C204   C     0.91316   0.01977   0.77455   0.00000  Uiso   1.00
C205   C     0.96800   0.25598   0.85163   0.00000  Uiso   1.00
C206   C     0.93220   0.29145   0.87078   0.00000  Uiso   1.00
C207   C     0.96588   0.34120   0.94690   0.00000  Uiso   1.00
H208   H     0.11669   0.23549   0.91576   0.00000  Uiso   1.00
H209   H     0.16360   0.27077   0.83062   0.00000  Uiso   1.00
H210   H     0.08452   0.10949   0.90690   0.00000  Uiso   1.00
H211   H     0.12069   0.33001   0.02513   0.00000  Uiso   1.00
H212   H     0.18603   0.30380   0.71200   0.00000  Uiso   1.00
H213   H     0.01929   0.96374   0.87285   0.00000  Uiso   1.00
H214   H     0.09556   0.42876   0.12217   0.00000  Uiso   1.00
H215   H     0.88881   0.18885   0.72914   0.00000  Uiso   1.00
H216   H     0.92321   0.22157   0.63376   0.00000  Uiso   1.00
H217   H     0.84414   0.06028   0.71004   0.00000  Uiso   1.00
H218   H     0.88031   0.28081   0.82827   0.00000  Uiso   1.00
H219   H     0.99092   0.26387   0.55222   0.00000  Uiso   1.00
H220   H     0.82419   0.92380   0.71308   0.00000  Uiso   1.00
H221   H     0.90045   0.38882   0.96239   0.00000  Uiso   1.00
O222   O     0.11521   0.30618   0.57272   0.00000  Uiso   1.00
O223   O     0.89646   0.86004   0.78377   0.00000  Uiso   1.00
O224   O     0.99653   0.47013   0.11086   0.00000  Uiso   1.00
N225   N     0.13539   0.28993   0.68749   0.00000  Uiso   1.00
N226   N     0.97950   0.97198   0.83787   0.00000  Uiso   1.00
N227   N     0.05080   0.40673   0.07096   0.00000  Uiso   1.00
N228   N     0.03040   0.26844   0.60152   0.00000  Uiso   1.00
N229   N     0.87452   0.95050   0.75190   0.00000  Uiso   1.00
N230   N     0.94582   0.38524   0.98499   0.00000  Uiso   1.00
C231   C     0.15295   0.77298   0.10578   0.00000  Uiso   1.00
C232   C     0.14657   0.70478   0.05416   0.00000  Uiso   1.00
C233   C     0.14320   0.64645   0.07100   0.00000  Uiso   1.00
C234   C     0.13744   0.58921   0.01624   0.00000  Uiso   1.00
C235   C     0.12785   0.48313   0.94659   0.00000  Uiso   1.00
C236   C     0.09272   0.78657   0.05447   0.00000  Uiso   1.00
C237   C     0.04409   0.79702   0.07158   0.00000  Uiso   1.00
C238   C     0.99301   0.80864   0.01709   0.00000  Uiso   1.00
C239   C     0.89986   0.82959   0.94794   0.00000  Uiso   1.00
C240   C     0.21664   0.82901   0.12155   0.00000  Uiso   1.00
C241   C     0.27219   0.87516   0.19505   0.00000  Uiso   1.00
C242   C     0.32544   0.92253   0.19703   0.00000  Uiso   1.00
C243   C     0.42468   0.00938   0.23203   0.00000  Uiso   1.00
C244   C     0.14871   0.77506   0.97861   0.00000  Uiso   1.00
C245   C     0.14427   0.70591   0.98509   0.00000  Uiso   1.00
C246   C     0.13852   0.64875   0.93030   0.00000  Uiso   1.00
C247   C     0.13514   0.59034   0.94705   0.00000  Uiso   1.00
C248   C     0.09042   0.78770   0.98540   0.00000  Uiso   1.00
C249   C     0.03941   0.79932   0.93088   0.00000  Uiso   1.00
C250   C     0.99071   0.80977   0.94789   0.00000  Uiso   1.00
C251   C     0.21434   0.83014   0.05247   0.00000  Uiso   1.00
C252   C     0.26751   0.87746   0.05434   0.00000  Uiso   1.00
C253   C     0.32313   0.92366   0.12783   0.00000  Uiso   1.00
H254   H     0.15473   0.77210   0.15955   0.00000  Uiso   1.00
H255   H     0.14498   0.64559   0.12446   0.00000  Uiso   1.00
H256   H     0.04589   0.79615   0.12504   0.00000  Uiso   1.00
H257   H     0.27395   0.87427   0.24849   0.00000  Uiso   1.00
H258   H     0.13312   0.50582   0.05507   0.00000  Uiso   1.00
H259   H     0.92420   0.82330   0.05631   0.00000  Uiso   1.00
H260   H     0.40512   0.98804   0.31663   0.00000  Uiso   1.00
H261   H     0.14692   0.77594   0.92483   0.00000  Uiso   1.00
H262   H     0.13674   0.64963   0.87685   0.00000  Uiso   1.00
H263   H     0.03765   0.80019   0.87743   0.00000  Uiso   1.00
H264   H     0.26571   0.87831   0.00088   0.00000  Uiso   1.00
H265   H     0.12643   0.50910   0.85410   0.00000  Uiso   1.00
H266   H     0.91751   0.82658   0.85534   0.00000  Uiso   1.00
H267   H     0.39843   0.99132   0.11566   0.00000  Uiso   1.00
O268   O     0.12319   0.42430   0.92724   0.00000  Uiso   1.00
O269   O     0.84911   0.84083   0.92888   0.00000  Uiso   1.00
O270   O     0.48006   0.05697   0.27041   0.00000  Uiso   1.00
N271   N     0.13295   0.52393   0.01436   0.00000  Uiso   1.00
N272   N     0.93762   0.82074   0.01551   0.00000  Uiso   1.00
N273   N     0.38723   0.97478   0.25889   0.00000  Uiso   1.00
N274   N     0.12935   0.52570   0.90622   0.00000  Uiso   1.00
N275   N     0.93402   0.82251   0.90737   0.00000  Uiso   1.00
N276   N     0.38364   0.97654   0.15075   0.00000  Uiso   1.00
C277   C     0.70534   0.34488   0.54145   0.00000  Uiso   1.00
C278   C     0.77818   0.35831   0.60018   0.00000  Uiso   1.00
C279   C     0.83157   0.36708   0.58599   0.00000  Uiso   1.00
C280   C     0.89436   0.37888   0.64736   0.00000  Uiso   1.00
C281   C     0.00610   0.39933   0.72748   0.00000  Uiso   1.00
C282   C     0.68971   0.40221   0.58054   0.00000  Uiso   1.00
C283   C     0.66870   0.44788   0.54983   0.00000  Uiso   1.00
C284   C     0.65701   0.49662   0.59466   0.00000  Uiso   1.00
C285   C     0.63135   0.58518   0.64425   0.00000  Uiso   1.00
C286   C     0.65950   0.27779   0.53561   0.00000  Uiso   1.00
C287   C     0.61309   0.21885   0.46711   0.00000  Uiso   1.00
C288   C     0.57596   0.16285   0.47411   0.00000  Uiso   1.00
C289   C     0.50339   0.05824   0.45394   0.00000  Uiso   1.00
C290   C     0.72192   0.35023   0.67566   0.00000  Uiso   1.00
C291   C     0.78718   0.36122   0.67308   0.00000  Uiso   1.00
C292   C     0.84991   0.37300   0.73448   0.00000  Uiso   1.00
C293   C     0.90338   0.38179   0.72039   0.00000  Uiso   1.00
C294   C     0.69871   0.40512   0.65343   0.00000  Uiso   1.00
C295   C     0.68705   0.45380   0.69832   0.00000  Uiso   1.00
C296   C     0.66603   0.49953   0.66769   0.00000  Uiso   1.00
C297   C     0.66851   0.28069   0.60851   0.00000  Uiso   1.00
C298   C     0.63144   0.22477   0.61561   0.00000  Uiso   1.00
C299   C     0.58498   0.16576   0.54714   0.00000  Uiso   1.00
H300   H     0.69833   0.34262   0.48470   0.00000  Uiso   1.00
H301   H     0.82458   0.36484   0.52957   0.00000  Uiso   1.00
H302   H     0.66173   0.44561   0.49341   0.00000  Uiso   1.00
H303   H     0.60613   0.21662   0.41071   0.00000  Uiso   1.00
H304   H     0.96853   0.39078   0.61148   0.00000  Uiso   1.00
H305   H     0.62513   0.56108   0.53522   0.00000  Uiso   1.00
H306   H     0.50789   0.07821   0.36083   0.00000  Uiso   1.00
H307   H     0.72893   0.35249   0.73242   0.00000  Uiso   1.00
H308   H     0.85686   0.37525   0.79089   0.00000  Uiso   1.00
H309   H     0.69402   0.45603   0.75473   0.00000  Uiso   1.00
H310   H     0.63842   0.22704   0.67203   0.00000  Uiso   1.00
H311   H     0.99473   0.39923   0.82358   0.00000  Uiso   1.00
H312   H     0.65133   0.56953   0.74731   0.00000  Uiso   1.00
H313   H     0.53409   0.08667   0.57293   0.00000  Uiso   1.00
O314   O     0.06524   0.40982   0.75153   0.00000  Uiso   1.00
O315   O     0.61471   0.63324   0.65147   0.00000  Uiso   1.00
O316   O     0.46089   0.99973   0.42268   0.00000  Uiso   1.00
N317   N     0.95714   0.38963   0.65337   0.00000  Uiso   1.00
N318   N     0.63609   0.54886   0.58207   0.00000  Uiso   1.00
N319   N     0.52646   0.09742   0.41904   0.00000  Uiso   1.00
N320   N     0.97124   0.39418   0.76750   0.00000  Uiso   1.00
N321   N     0.65019   0.55341   0.69620   0.00000  Uiso   1.00
N322   N     0.54056   0.10197   0.53316   0.00000  Uiso   1.00
C323   C     0.50011   0.80013   0.33499   0.00000  Uiso   1.00
C324   C     0.56790   0.85797   0.36333   0.00000  Uiso   1.00
C325   C     0.57812   0.92557   0.37080   0.00000  Uiso   1.00
C326   C     0.64396   0.97072   0.39774   0.00000  Uiso   1.00
C327   C     0.74107   0.06385   0.43893   0.00000  Uiso   1.00
C328   C     0.51244   0.77377   0.40002   0.00000  Uiso   1.00
C329   C     0.47602   0.77057   0.43832   0.00000  Uiso   1.00
C330   C     0.49518   0.74483   0.49614   0.00000  Uiso   1.00
C331   C     0.50615   0.70721   0.59425   0.00000  Uiso   1.00
C332   C     0.48767   0.74120   0.26532   0.00000  Uiso   1.00
C333   C     0.43042   0.71060   0.19036   0.00000  Uiso   1.00
C334   C     0.42871   0.65742   0.13478   0.00000  Uiso   1.00
C335   C     0.40123   0.56922   0.02374   0.00000  Uiso   1.00
C336   C     0.59888   0.76010   0.36957   0.00000  Uiso   1.00
C337   C     0.62154   0.83623   0.38211   0.00000  Uiso   1.00
C338   C     0.68739   0.88128   0.40905   0.00000  Uiso   1.00
C339   C     0.69770   0.94894   0.41655   0.00000  Uiso   1.00
C340   C     0.56609   0.75203   0.41880   0.00000  Uiso   1.00
C341   C     0.58530   0.72629   0.47658   0.00000  Uiso   1.00
C342   C     0.54892   0.72305   0.51496   0.00000  Uiso   1.00
C343   C     0.54132   0.71946   0.28410   0.00000  Uiso   1.00
C344   C     0.53970   0.66631   0.22862   0.00000  Uiso   1.00
C345   C     0.48245   0.63564   0.15359   0.00000  Uiso   1.00
H346   H     0.45834   0.81705   0.32037   0.00000  Uiso   1.00
H347   H     0.53659   0.94238   0.35626   0.00000  Uiso   1.00
H348   H     0.43451   0.78740   0.42377   0.00000  Uiso   1.00
H349   H     0.38891   0.72744   0.17585   0.00000  Uiso   1.00
H350   H     0.64700   0.07174   0.40436   0.00000  Uiso   1.00
H351   H     0.43174   0.74494   0.54669   0.00000  Uiso   1.00
H352   H     0.33560   0.61849   0.02391   0.00000  Uiso   1.00
H353   H     0.64064   0.74317   0.38419   0.00000  Uiso   1.00
H354   H     0.72889   0.86444   0.42358   0.00000  Uiso   1.00
H355   H     0.62681   0.70946   0.49109   0.00000  Uiso   1.00
H356   H     0.58122   0.64950   0.24317   0.00000  Uiso   1.00
H357   H     0.80308   0.00849   0.45900   0.00000  Uiso   1.00
H358   H     0.58782   0.68168   0.60133   0.00000  Uiso   1.00
H359   H     0.49168   0.55524   0.07855   0.00000  Uiso   1.00
O360   O     0.77981   0.12123   0.45647   0.00000  Uiso   1.00
O361   O     0.49739   0.69247   0.64318   0.00000  Uiso   1.00
O362   O     0.37125   0.52658   0.95731   0.00000  Uiso   1.00
N363   N     0.67162   0.04021   0.41180   0.00000  Uiso   1.00
N364   N     0.47037   0.73468   0.54488   0.00000  Uiso   1.00
N365   N     0.38048   0.61645   0.05612   0.00000  Uiso   1.00
N366   N     0.75561   0.00617   0.44120   0.00000  Uiso   1.00
N367   N     0.55436   0.70064   0.57428   0.00000  Uiso   1.00
N368   N     0.46446   0.58241   0.08552   0.00000  Uiso   1.00
C369   C     0.35335   0.63695   0.85827   0.00000  Uiso   1.00
C370   C     0.36347   0.71274   0.88086   0.00000  Uiso   1.00
C371   C     0.37694   0.75691   0.95222   0.00000  Uiso   1.00
C372   C     0.38455   0.82439   0.96143   0.00000  Uiso   1.00
C373   C     0.40116   0.93868   0.00566   0.00000  Uiso   1.00
C374   C     0.40573   0.63066   0.83504   0.00000  Uiso   1.00
C375   C     0.45472   0.60581   0.86786   0.00000  Uiso   1.00
C376   C     0.49789   0.60419   0.83849   0.00000  Uiso   1.00
C377   C     0.58007   0.59100   0.81154   0.00000  Uiso   1.00
C378   C     0.28369   0.59574   0.78316   0.00000  Uiso   1.00
C379   C     0.23008   0.54151   0.77235   0.00000  Uiso   1.00
C380   C     0.17051   0.51047   0.69929   0.00000  Uiso   1.00
C381   C     0.06322   0.44306   0.59179   0.00000  Uiso   1.00
C382   C     0.34289   0.67825   0.74774   0.00000  Uiso   1.00
C383   C     0.35779   0.73517   0.82083   0.00000  Uiso   1.00
C384   C     0.36537   0.80261   0.82993   0.00000  Uiso   1.00
C385   C     0.37885   0.84687   0.90129   0.00000  Uiso   1.00
C386   C     0.40005   0.65310   0.77501   0.00000  Uiso   1.00
C387   C     0.44315   0.65151   0.74558   0.00000  Uiso   1.00
C388   C     0.49220   0.62666   0.77835   0.00000  Uiso   1.00
C389   C     0.27801   0.61817   0.72312   0.00000  Uiso   1.00
C390   C     0.21851   0.58721   0.65006   0.00000  Uiso   1.00
C391   C     0.16482   0.53295   0.63914   0.00000  Uiso   1.00
H392   H     0.35778   0.61948   0.90501   0.00000  Uiso   1.00
H393   H     0.38134   0.73953   0.99867   0.00000  Uiso   1.00
H394   H     0.45910   0.58845   0.91432   0.00000  Uiso   1.00
H395   H     0.23450   0.52416   0.81882   0.00000  Uiso   1.00
H396   H     0.40499   0.88253   0.07604   0.00000  Uiso   1.00
H397   H     0.56893   0.56394   0.89817   0.00000  Uiso   1.00
H398   H     0.09531   0.42838   0.69679   0.00000  Uiso   1.00
H399   H     0.33847   0.69571   0.70100   0.00000  Uiso   1.00
H400   H     0.36098   0.81995   0.78346   0.00000  Uiso   1.00
H401   H     0.43874   0.66887   0.69911   0.00000  Uiso   1.00
H402   H     0.21414   0.60458   0.60362   0.00000  Uiso   1.00
H403   H     0.38846   0.94780   0.90138   0.00000  Uiso   1.00
H404   H     0.55241   0.62921   0.72350   0.00000  Uiso   1.00
H405   H     0.07879   0.49365   0.52212   0.00000  Uiso   1.00
O406   O     0.41190   0.99552   0.04665   0.00000  Uiso   1.00
O407   O     0.62698   0.57754   0.81327   0.00000  Uiso   1.00
O408   O     0.00560   0.39969   0.54908   0.00000  Uiso   1.00
N409   N     0.39800   0.88084   0.02361   0.00000  Uiso   1.00
N410   N     0.55128   0.58299   0.85732   0.00000  Uiso   1.00
N411   N     0.10850   0.45624   0.66904   0.00000  Uiso   1.00
N412   N     0.38910   0.91596   0.92962   0.00000  Uiso   1.00
N413   N     0.54239   0.61811   0.76333   0.00000  Uiso   1.00
N414   N     0.09960   0.49136   0.57505   0.00000  Uiso   1.00
C415   C     0.15879   0.95317   0.81364   0.00000  Uiso   1.00
C416   C     0.22327   0.98785   0.81314   0.00000  Uiso   1.00
C417   C     0.25981   0.95441   0.79255   0.00000  Uiso   1.00
C418   C     0.31741   0.99533   0.79593   0.00000  Uiso   1.00
C419   C     0.41446   0.03826   0.79168   0.00000  Uiso   1.00
C420   C     0.17407   0.98982   0.89655   0.00000  Uiso   1.00
C421   C     0.16924   0.95804   0.94608   0.00000  Uiso   1.00
C422   C     0.18542   0.00063   0.01967   0.00000  Uiso   1.00
C423   C     0.20605   0.04661   0.14489   0.00000  Uiso   1.00
C424   C     0.10461   0.97241   0.76043   0.00000  Uiso   1.00
C425   C     0.04136   0.92599   0.69552   0.00000  Uiso   1.00
C426   C     0.99905   0.95393   0.65451   0.00000  Uiso   1.00
C427   C     0.91182   0.97288   0.56838   0.00000  Uiso   1.00
C428   C     0.19611   0.08531   0.85625   0.00000  Uiso   1.00
C429   C     0.24354   0.05962   0.83629   0.00000  Uiso   1.00
C430   C     0.30110   0.10060   0.83970   0.00000  Uiso   1.00
C431   C     0.33772   0.06723   0.81912   0.00000  Uiso   1.00
C432   C     0.19434   0.06159   0.91970   0.00000  Uiso   1.00
C433   C     0.21053   0.10423   0.99323   0.00000  Uiso   1.00
C434   C     0.20573   0.07253   0.04286   0.00000  Uiso   1.00
C435   C     0.12488   0.04418   0.78357   0.00000  Uiso   1.00
C436   C     0.08265   0.07219   0.74266   0.00000  Uiso   1.00
C437   C     0.01936   0.02583   0.67770   0.00000  Uiso   1.00
H438   H     0.14301   0.89730   0.79562   0.00000  Uiso   1.00
H439   H     0.24411   0.89887   0.77465   0.00000  Uiso   1.00
H440   H     0.15355   0.90250   0.92815   0.00000  Uiso   1.00
H441   H     0.02569   0.87046   0.67762   0.00000  Uiso   1.00
H442   H     0.36515   0.93226   0.76164   0.00000  Uiso   1.00
H443   H     0.17417   0.93991   0.08529   0.00000  Uiso   1.00
H444   H     0.90456   0.87235   0.55700   0.00000  Uiso   1.00
H445   H     0.21189   0.14119   0.87427   0.00000  Uiso   1.00
H446   H     0.31677   0.15614   0.85762   0.00000  Uiso   1.00
H447   H     0.22621   0.15977   0.01112   0.00000  Uiso   1.00
H448   H     0.09836   0.12773   0.76059   0.00000  Uiso   1.00
H449   H     0.42413   0.14108   0.82898   0.00000  Uiso   1.00
H450   H     0.23315   0.14873   0.15264   0.00000  Uiso   1.00
H451   H     0.96354   0.08117   0.62435   0.00000  Uiso   1.00
O452   O     0.46240   0.04211   0.78296   0.00000  Uiso   1.00
O453   O     0.21184   0.05214   0.20757   0.00000  Uiso   1.00
O454   O     0.85812   0.96350   0.51447   0.00000  Uiso   1.00
N455   N     0.36463   0.97935   0.77976   0.00000  Uiso   1.00
N456   N     0.18609   0.98651   0.08236   0.00000  Uiso   1.00
N457   N     0.93402   0.92334   0.58847   0.00000  Uiso   1.00
N458   N     0.39636   0.09171   0.81599   0.00000  Uiso   1.00
N459   N     0.21783   0.09887   0.11860   0.00000  Uiso   1.00
N460   N     0.96575   0.03570   0.62470   0.00000  Uiso   1.00
C461   C     0.90637   0.79417   0.19946   0.00000  Uiso   1.00
C462   C     0.92380   0.79003   0.27838   0.00000  Uiso   1.00
C463   C     0.87868   0.77629   0.30488   0.00000  Uiso   1.00
C464   C     0.90456   0.77474   0.37881   0.00000  Uiso   1.00
C465   C     0.92120   0.76656   0.49442   0.00000  Uiso   1.00
C466   C     0.95551   0.86549   0.21820   0.00000  Uiso   1.00
C467   C     0.93705   0.91519   0.19407   0.00000  Uiso   1.00
C468   C     0.98963   0.97715   0.21733   0.00000  Uiso   1.00
C469   C     0.05550   0.08609   0.23945   0.00000  Uiso   1.00
C470   C     0.92629   0.74185   0.15948   0.00000  Uiso   1.00
C471   C     0.88326   0.68761   0.08597   0.00000  Uiso   1.00
C472   C     0.91124   0.64550   0.05978   0.00000  Uiso   1.00
C473   C     0.93174   0.56248   0.99074   0.00000  Uiso   1.00
C474   C     0.03255   0.81584   0.28364   0.00000  Uiso   1.00
C475   C     0.99234   0.80180   0.32411   0.00000  Uiso   1.00
C476   C     0.01829   0.80027   0.39802   0.00000  Uiso   1.00
C477   C     0.97322   0.78653   0.42461   0.00000  Uiso   1.00
C478   C     0.02404   0.87726   0.26392   0.00000  Uiso   1.00
C479   C     0.07666   0.93916   0.28721   0.00000  Uiso   1.00
C480   C     0.05829   0.98894   0.26313   0.00000  Uiso   1.00
C481   C     0.99482   0.75362   0.20520   0.00000  Uiso   1.00
C482   C     0.02287   0.71159   0.17912   0.00000  Uiso   1.00
C483   C     0.97990   0.65729   0.10559   0.00000  Uiso   1.00
H484   H     0.85302   0.78501   0.16386   0.00000  Uiso   1.00
H485   H     0.82565   0.76719   0.26948   0.00000  Uiso   1.00
H486   H     0.88401   0.90606   0.15868   0.00000  Uiso   1.00
H487   H     0.83023   0.67852   0.05061   0.00000  Uiso   1.00
H488   H     0.82553   0.75265   0.40675   0.00000  Uiso   1.00
H489   H     0.94860   0.04545   0.17311   0.00000  Uiso   1.00
H490   H     0.83519   0.56564   0.94521   0.00000  Uiso   1.00
H491   H     0.08592   0.82501   0.31924   0.00000  Uiso   1.00
H492   H     0.07133   0.80938   0.43339   0.00000  Uiso   1.00
H493   H     0.12969   0.94825   0.32259   0.00000  Uiso   1.00
H494   H     0.07591   0.72071   0.21452   0.00000  Uiso   1.00
H495   H     0.02494   0.78690   0.53979   0.00000  Uiso   1.00
H496   H     0.14800   0.07970   0.30615   0.00000  Uiso   1.00
H497   H     0.03459   0.59989   0.07825   0.00000  Uiso   1.00
O498   O     0.91144   0.75880   0.54557   0.00000  Uiso   1.00
O499   O     0.07290   0.14293   0.23903   0.00000  Uiso   1.00
O500   O     0.92411   0.51344   0.94003   0.00000  Uiso   1.00
N501   N     0.87446   0.76284   0.42239   0.00000  Uiso   1.00
N502   N     0.98952   0.03660   0.20396   0.00000  Uiso   1.00
N503   N     0.88350   0.58803   0.99089   0.00000  Uiso   1.00
N504   N     0.98176   0.78127   0.49398   0.00000  Uiso   1.00
N505   N     0.09682   0.05503   0.27555   0.00000  Uiso   1.00
N506   N     0.99080   0.60646   0.06247   0.00000  Uiso   1.00
C507   C     0.76920   0.17952   0.88548   0.00000  Uiso   1.00
C508   C     0.76839   0.25002   0.91832   0.00000  Uiso   1.00
C509   C     0.76129   0.29522   0.88106   0.00000  Uiso   1.00
C510   C     0.76183   0.35721   0.92088   0.00000  Uiso   1.00
C511   C     0.75949   0.46422   0.96058   0.00000  Uiso   1.00
C512   C     0.83600   0.18180   0.94642   0.00000  Uiso   1.00
C513   C     0.88574   0.16964   0.93278   0.00000  Uiso   1.00
C514   C     0.94319   0.17420   0.99625   0.00000  Uiso   1.00
C515   C     0.04579   0.17526   0.07956   0.00000  Uiso   1.00
C516   C     0.71252   0.12711   0.88556   0.00000  Uiso   1.00
C517   C     0.65843   0.06896   0.82075   0.00000  Uiso   1.00
C518   C     0.61193   0.02746   0.83299   0.00000  Uiso   1.00
C519   C     0.52280   0.94362   0.82181   0.00000  Uiso   1.00
C520   C     0.78278   0.20923   0.02246   0.00000  Uiso   1.00
C521   C     0.77577   0.26615   0.99273   0.00000  Uiso   1.00
C522   C     0.77632   0.32809   0.03262   0.00000  Uiso   1.00
C523   C     0.76921   0.37337   0.99542   0.00000  Uiso   1.00
C524   C     0.84338   0.19794   0.02083   0.00000  Uiso   1.00
C525   C     0.90077   0.20251   0.08434   0.00000  Uiso   1.00
C526   C     0.95058   0.19036   0.07079   0.00000  Uiso   1.00
C527   C     0.71989   0.14325   0.95997   0.00000  Uiso   1.00
C528   C     0.67346   0.10184   0.97231   0.00000  Uiso   1.00
C529   C     0.61932   0.04363   0.90753   0.00000  Uiso   1.00
H530   H     0.76346   0.16696   0.82755   0.00000  Uiso   1.00
H531   H     0.75558   0.28271   0.82348   0.00000  Uiso   1.00
H532   H     0.88001   0.15714   0.87519   0.00000  Uiso   1.00
H533   H     0.65274   0.05648   0.76318   0.00000  Uiso   1.00
H534   H     0.75014   0.41817   0.85179   0.00000  Uiso   1.00
H535   H     0.01248   0.15339   0.96082   0.00000  Uiso   1.00
H536   H     0.53324   0.94112   0.72463   0.00000  Uiso   1.00
H537   H     0.78853   0.22180   0.08039   0.00000  Uiso   1.00
H538   H     0.78203   0.34056   0.09020   0.00000  Uiso   1.00
H539   H     0.90646   0.21500   0.14191   0.00000  Uiso   1.00
H540   H     0.67919   0.11434   0.02990   0.00000  Uiso   1.00
H541   H     0.77160   0.46513   0.06827   0.00000  Uiso   1.00
H542   H     0.03395   0.20034   0.17730   0.00000  Uiso   1.00
H543   H     0.55471   0.98808   0.94111   0.00000  Uiso   1.00
O544   O     0.75617   0.51880   0.96193   0.00000  Uiso   1.00
O545   O     0.10035   0.17140   0.10496   0.00000  Uiso   1.00
O546   O     0.47160   0.89292   0.79508   0.00000  Uiso   1.00
N547   N     0.75607   0.41292   0.90139   0.00000  Uiso   1.00
N548   N     0.00135   0.16537   0.00332   0.00000  Uiso   1.00
N549   N     0.55331   0.96691   0.78251   0.00000  Uiso   1.00
N550   N     0.76762   0.43819   0.01788   0.00000  Uiso   1.00
N551   N     0.01290   0.19064   0.11981   0.00000  Uiso   1.00
N552   N     0.56486   0.99218   0.89899   0.00000  Uiso   1.00
