data_job_04051
_audit_creation_date              2018-12-19
_audit_creation_method            'Materials Studio'
_symmetry_space_group_name_H-M    'P1'
_symmetry_Int_Tables_number       1
_symmetry_cell_setting            triclinic
loop_
_symmetry_equiv_pos_as_xyz
  x,y,z
_cell_length_a                    18.1762
_cell_length_b                    12.3932
_cell_length_c                    30.5318
_cell_angle_alpha                 90.0000
_cell_angle_beta                  141.7918
_cell_angle_gamma                 90.0000
loop_
_atom_site_label
_atom_site_type_symbol
_atom_site_fract_x
_atom_site_fract_y
_atom_site_fract_z
_atom_site_U_iso_or_equiv
_atom_site_adp_type
_atom_site_occupancy
C1     C     0.58140   0.35761   0.22868   0.00000  Uiso   1.00
C2     C     0.71535   0.36315   0.29887   0.00000  Uiso   1.00
C3     C     0.77335   0.33990   0.36500   0.00000  Uiso   1.00
C4     C     0.89636   0.34982   0.42276   0.00000  Uiso   1.00
C5     C     0.09481   0.35360   0.53300   0.00000  Uiso   1.00
C6     C     0.54460   0.46906   0.19520   0.00000  Uiso   1.00
C7     C     0.45903   0.53483   0.17416   0.00000  Uiso   1.00
C8     C     0.43829   0.63390   0.14464   0.00000  Uiso   1.00
C9     C     0.37160   0.80207   0.09388   0.00000  Uiso   1.00
C10    C     0.56327   0.28105   0.18168   0.00000  Uiso   1.00
C11    C     0.49336   0.18875   0.14924   0.00000  Uiso   1.00
C12    C     0.48833   0.12954   0.10832   0.00000  Uiso   1.00
C13    C     0.45062   0.00579   0.03656   0.00000  Uiso   1.00
C14    C     0.69672   0.41659   0.21367   0.00000  Uiso   1.00
C15    C     0.77799   0.39519   0.29072   0.00000  Uiso   1.00
C16    C     0.90094   0.40514   0.34839   0.00000  Uiso   1.00
C17    C     0.95911   0.38190   0.41460   0.00000  Uiso   1.00
C18    C     0.60724   0.50109   0.18705   0.00000  Uiso   1.00
C19    C     0.58662   0.60008   0.15755   0.00000  Uiso   1.00
C20    C     0.50104   0.66599   0.13647   0.00000  Uiso   1.00
C21    C     0.62591   0.31308   0.17352   0.00000  Uiso   1.00
C22    C     0.62097   0.25400   0.13264   0.00000  Uiso   1.00
C23    C     0.55108   0.16163   0.10016   0.00000  Uiso   1.00
H24    H     0.53263   0.33268   0.23502   0.00000  Uiso   1.00
H25    H     0.72484   0.31512   0.37129   0.00000  Uiso   1.00
H26    H     0.41056   0.51002   0.18047   0.00000  Uiso   1.00
H27    H     0.44491   0.16399   0.15556   0.00000  Uiso   1.00
H28    H     0.96556   0.30981   0.51877   0.00000  Uiso   1.00
H29    H     0.30286   0.72076   0.11639   0.00000  Uiso   1.00
H30    H     0.37527   0.99109   0.06387   0.00000  Uiso   1.00
H31    H     0.74549   0.44153   0.20732   0.00000  Uiso   1.00
H32    H     0.94939   0.42993   0.34207   0.00000  Uiso   1.00
H33    H     0.63511   0.62484   0.15125   0.00000  Uiso   1.00
H34    H     0.66945   0.27881   0.12634   0.00000  Uiso   1.00
H35    H     0.14781   0.40301   0.49505   0.00000  Uiso   1.00
H36    H     0.48510   0.81395   0.09267   0.00000  Uiso   1.00
H37    H     0.55753   0.08428   0.04016   0.00000  Uiso   1.00
O38    O     0.18697   0.34686   0.59606   0.00000  Uiso   1.00
O39    O     0.31752   0.88599   0.06814   0.00000  Uiso   1.00
O40    O     0.41253   0.92868   0.99924   0.00000  Uiso   1.00
N41    N     0.98047   0.33332   0.49469   0.00000  Uiso   1.00
N42    N     0.36090   0.71753   0.11851   0.00000  Uiso   1.00
N43    N     0.42858   0.03537   0.06939   0.00000  Uiso   1.00
N44    N     0.07854   0.38346   0.48193   0.00000  Uiso   1.00
N45    N     0.45897   0.76768   0.10575   0.00000  Uiso   1.00
N46    N     0.52665   0.08551   0.05663   0.00000  Uiso   1.00
C47    C     0.41860   0.35761   0.27132   0.00000  Uiso   1.00
C48    C     0.28465   0.36315   0.20113   0.00000  Uiso   1.00
C49    C     0.22665   0.33990   0.13500   0.00000  Uiso   1.00
C50    C     0.10364   0.34982   0.07724   0.00000  Uiso   1.00
C51    C     0.90519   0.35360   0.96700   0.00000  Uiso   1.00
C52    C     0.45540   0.46906   0.30480   0.00000  Uiso   1.00
C53    C     0.54097   0.53483   0.32584   0.00000  Uiso   1.00
C54    C     0.56171   0.63390   0.35536   0.00000  Uiso   1.00
C55    C     0.62840   0.80207   0.40612   0.00000  Uiso   1.00
C56    C     0.43673   0.28105   0.31832   0.00000  Uiso   1.00
C57    C     0.50664   0.18875   0.35076   0.00000  Uiso   1.00
C58    C     0.51167   0.12954   0.39168   0.00000  Uiso   1.00
C59    C     0.54938   0.00579   0.46344   0.00000  Uiso   1.00
C60    C     0.30328   0.41659   0.28633   0.00000  Uiso   1.00
C61    C     0.22201   0.39519   0.20928   0.00000  Uiso   1.00
C62    C     0.09906   0.40514   0.15161   0.00000  Uiso   1.00
C63    C     0.04089   0.38190   0.08540   0.00000  Uiso   1.00
C64    C     0.39276   0.50109   0.31295   0.00000  Uiso   1.00
C65    C     0.41338   0.60008   0.34245   0.00000  Uiso   1.00
C66    C     0.49896   0.66599   0.36353   0.00000  Uiso   1.00
C67    C     0.37409   0.31308   0.32648   0.00000  Uiso   1.00
C68    C     0.37903   0.25400   0.36736   0.00000  Uiso   1.00
C69    C     0.44892   0.16163   0.39984   0.00000  Uiso   1.00
H70    H     0.46737   0.33268   0.26498   0.00000  Uiso   1.00
H71    H     0.27516   0.31512   0.12871   0.00000  Uiso   1.00
H72    H     0.58944   0.51002   0.31953   0.00000  Uiso   1.00
H73    H     0.55509   0.16399   0.34444   0.00000  Uiso   1.00
H74    H     0.03444   0.30981   0.98123   0.00000  Uiso   1.00
H75    H     0.69714   0.72076   0.38361   0.00000  Uiso   1.00
H76    H     0.62473   0.99109   0.43613   0.00000  Uiso   1.00
H77    H     0.25451   0.44153   0.29268   0.00000  Uiso   1.00
H78    H     0.05061   0.42993   0.15793   0.00000  Uiso   1.00
H79    H     0.36489   0.62484   0.34875   0.00000  Uiso   1.00
H80    H     0.33055   0.27881   0.37366   0.00000  Uiso   1.00
H81    H     0.85219   0.40301   0.00495   0.00000  Uiso   1.00
H82    H     0.51490   0.81395   0.40733   0.00000  Uiso   1.00
H83    H     0.44247   0.08428   0.45984   0.00000  Uiso   1.00
O84    O     0.81303   0.34686   0.90394   0.00000  Uiso   1.00
O85    O     0.68248   0.88599   0.43186   0.00000  Uiso   1.00
O86    O     0.58747   0.92868   0.50076   0.00000  Uiso   1.00
N87    N     0.01953   0.33332   0.00531   0.00000  Uiso   1.00
N88    N     0.63910   0.71753   0.38149   0.00000  Uiso   1.00
N89    N     0.57142   0.03537   0.43061   0.00000  Uiso   1.00
N90    N     0.92146   0.38346   0.01807   0.00000  Uiso   1.00
N91    N     0.54103   0.76768   0.39425   0.00000  Uiso   1.00
N92    N     0.47335   0.08551   0.44337   0.00000  Uiso   1.00
C93    C     0.41860   0.64239   0.77132   0.00000  Uiso   1.00
C94    C     0.28465   0.63685   0.70113   0.00000  Uiso   1.00
C95    C     0.22665   0.66010   0.63500   0.00000  Uiso   1.00
C96    C     0.10364   0.65018   0.57724   0.00000  Uiso   1.00
C97    C     0.90519   0.64640   0.46700   0.00000  Uiso   1.00
C98    C     0.45540   0.53094   0.80480   0.00000  Uiso   1.00
C99    C     0.54097   0.46517   0.82584   0.00000  Uiso   1.00
C100   C     0.56171   0.36610   0.85536   0.00000  Uiso   1.00
C101   C     0.62840   0.19793   0.90612   0.00000  Uiso   1.00
C102   C     0.43673   0.71895   0.81832   0.00000  Uiso   1.00
C103   C     0.50664   0.81125   0.85076   0.00000  Uiso   1.00
C104   C     0.51167   0.87046   0.89168   0.00000  Uiso   1.00
C105   C     0.54938   0.99421   0.96344   0.00000  Uiso   1.00
C106   C     0.30328   0.58341   0.78633   0.00000  Uiso   1.00
C107   C     0.22201   0.60481   0.70928   0.00000  Uiso   1.00
C108   C     0.09906   0.59486   0.65161   0.00000  Uiso   1.00
C109   C     0.04089   0.61810   0.58540   0.00000  Uiso   1.00
C110   C     0.39276   0.49891   0.81295   0.00000  Uiso   1.00
C111   C     0.41338   0.39992   0.84245   0.00000  Uiso   1.00
C112   C     0.49896   0.33401   0.86353   0.00000  Uiso   1.00
C113   C     0.37409   0.68692   0.82648   0.00000  Uiso   1.00
C114   C     0.37903   0.74600   0.86736   0.00000  Uiso   1.00
C115   C     0.44892   0.83837   0.89984   0.00000  Uiso   1.00
H116   H     0.46737   0.66732   0.76498   0.00000  Uiso   1.00
H117   H     0.27516   0.68488   0.62871   0.00000  Uiso   1.00
H118   H     0.58944   0.48998   0.81953   0.00000  Uiso   1.00
H119   H     0.55509   0.83601   0.84444   0.00000  Uiso   1.00
H120   H     0.03444   0.69019   0.48123   0.00000  Uiso   1.00
H121   H     0.69714   0.27924   0.88361   0.00000  Uiso   1.00
H122   H     0.62473   0.00891   0.93613   0.00000  Uiso   1.00
H123   H     0.25451   0.55847   0.79268   0.00000  Uiso   1.00
H124   H     0.05061   0.57007   0.65793   0.00000  Uiso   1.00
H125   H     0.36489   0.37516   0.84875   0.00000  Uiso   1.00
H126   H     0.33055   0.72119   0.87366   0.00000  Uiso   1.00
H127   H     0.85219   0.59699   0.50495   0.00000  Uiso   1.00
H128   H     0.51490   0.18605   0.90733   0.00000  Uiso   1.00
H129   H     0.44247   0.91572   0.95984   0.00000  Uiso   1.00
O130   O     0.81303   0.65314   0.40394   0.00000  Uiso   1.00
O131   O     0.68248   0.11401   0.93186   0.00000  Uiso   1.00
O132   O     0.58747   0.07132   0.00076   0.00000  Uiso   1.00
N133   N     0.01953   0.66668   0.50531   0.00000  Uiso   1.00
N134   N     0.63910   0.28247   0.88149   0.00000  Uiso   1.00
N135   N     0.57142   0.96463   0.93061   0.00000  Uiso   1.00
N136   N     0.92146   0.61654   0.51807   0.00000  Uiso   1.00
N137   N     0.54103   0.23232   0.89425   0.00000  Uiso   1.00
N138   N     0.47335   0.91449   0.94337   0.00000  Uiso   1.00
C139   C     0.58140   0.64239   0.72868   0.00000  Uiso   1.00
C140   C     0.71535   0.63685   0.79887   0.00000  Uiso   1.00
C141   C     0.77335   0.66010   0.86500   0.00000  Uiso   1.00
C142   C     0.89636   0.65018   0.92276   0.00000  Uiso   1.00
C143   C     0.09481   0.64640   0.03300   0.00000  Uiso   1.00
C144   C     0.54460   0.53094   0.69520   0.00000  Uiso   1.00
C145   C     0.45903   0.46517   0.67416   0.00000  Uiso   1.00
C146   C     0.43829   0.36610   0.64464   0.00000  Uiso   1.00
C147   C     0.37160   0.19793   0.59388   0.00000  Uiso   1.00
C148   C     0.56327   0.71895   0.68168   0.00000  Uiso   1.00
C149   C     0.49336   0.81125   0.64924   0.00000  Uiso   1.00
C150   C     0.48833   0.87046   0.60832   0.00000  Uiso   1.00
C151   C     0.45062   0.99421   0.53656   0.00000  Uiso   1.00
C152   C     0.69672   0.58341   0.71367   0.00000  Uiso   1.00
C153   C     0.77799   0.60481   0.79072   0.00000  Uiso   1.00
C154   C     0.90094   0.59486   0.84839   0.00000  Uiso   1.00
C155   C     0.95911   0.61810   0.91460   0.00000  Uiso   1.00
C156   C     0.60724   0.49891   0.68705   0.00000  Uiso   1.00
C157   C     0.58662   0.39992   0.65755   0.00000  Uiso   1.00
C158   C     0.50104   0.33401   0.63647   0.00000  Uiso   1.00
C159   C     0.62591   0.68692   0.67352   0.00000  Uiso   1.00
C160   C     0.62097   0.74600   0.63264   0.00000  Uiso   1.00
C161   C     0.55108   0.83837   0.60016   0.00000  Uiso   1.00
H162   H     0.53263   0.66732   0.73502   0.00000  Uiso   1.00
H163   H     0.72484   0.68488   0.87129   0.00000  Uiso   1.00
H164   H     0.41056   0.48998   0.68047   0.00000  Uiso   1.00
H165   H     0.44491   0.83601   0.65556   0.00000  Uiso   1.00
H166   H     0.96556   0.69019   0.01877   0.00000  Uiso   1.00
H167   H     0.30286   0.27924   0.61639   0.00000  Uiso   1.00
H168   H     0.37527   0.00891   0.56387   0.00000  Uiso   1.00
H169   H     0.74549   0.55847   0.70732   0.00000  Uiso   1.00
H170   H     0.94939   0.57007   0.84207   0.00000  Uiso   1.00
H171   H     0.63511   0.37516   0.65125   0.00000  Uiso   1.00
H172   H     0.66945   0.72119   0.62634   0.00000  Uiso   1.00
H173   H     0.14781   0.59699   0.99505   0.00000  Uiso   1.00
H174   H     0.48510   0.18605   0.59267   0.00000  Uiso   1.00
H175   H     0.55753   0.91572   0.54016   0.00000  Uiso   1.00
O176   O     0.18697   0.65314   0.09606   0.00000  Uiso   1.00
O177   O     0.31752   0.11401   0.56814   0.00000  Uiso   1.00
O178   O     0.41253   0.07132   0.49924   0.00000  Uiso   1.00
N179   N     0.98047   0.66668   0.99469   0.00000  Uiso   1.00
N180   N     0.36090   0.28247   0.61851   0.00000  Uiso   1.00
N181   N     0.42858   0.96463   0.56939   0.00000  Uiso   1.00
N182   N     0.07854   0.61654   0.98193   0.00000  Uiso   1.00
N183   N     0.45897   0.23232   0.60575   0.00000  Uiso   1.00
N184   N     0.52665   0.91449   0.55663   0.00000  Uiso   1.00
