data_job_05998
_audit_creation_date              2018-12-19
_audit_creation_method            'Materials Studio'
_symmetry_space_group_name_H-M    'P1'
_symmetry_Int_Tables_number       1
_symmetry_cell_setting            triclinic
loop_
_symmetry_equiv_pos_as_xyz
  x,y,z
_cell_length_a                    7.9013
_cell_length_b                    22.1513
_cell_length_c                    23.1982
_cell_angle_alpha                 117.4690
_cell_angle_beta                  82.5103
_cell_angle_gamma                 91.2487
loop_
_atom_site_label
_atom_site_type_symbol
_atom_site_fract_x
_atom_site_fract_y
_atom_site_fract_z
_atom_site_U_iso_or_equiv
_atom_site_adp_type
_atom_site_occupancy
C1     C     0.80778   0.60358   0.78309   0.00000  Uiso   1.00
C2     C     0.88945   0.60091   0.71861   0.00000  Uiso   1.00
C3     C     0.80607   0.58741   0.66512   0.00000  Uiso   1.00
C4     C     0.90333   0.58725   0.61070   0.00000  Uiso   1.00
C5     C     0.00363   0.58110   0.51069   0.00000  Uiso   1.00
C6     C     0.91111   0.55244   0.79282   0.00000  Uiso   1.00
C7     C     0.84593   0.49819   0.80173   0.00000  Uiso   1.00
C8     C     0.96143   0.45724   0.80978   0.00000  Uiso   1.00
C9     C     0.09534   0.37587   0.82504   0.00000  Uiso   1.00
C10    C     0.84278   0.67366   0.83679   0.00000  Uiso   1.00
C11    C     0.72015   0.72134   0.88269   0.00000  Uiso   1.00
C12    C     0.77812   0.78244   0.92778   0.00000  Uiso   1.00
C13    C     0.80594   0.88929   0.01131   0.00000  Uiso   1.00
C14    C     0.12879   0.62731   0.78157   0.00000  Uiso   1.00
C15    C     0.06381   0.61380   0.71779   0.00000  Uiso   1.00
C16    C     0.16122   0.61366   0.66344   0.00000  Uiso   1.00
C17    C     0.07800   0.60017   0.60987   0.00000  Uiso   1.00
C18    C     0.08546   0.56533   0.79200   0.00000  Uiso   1.00
C19    C     0.20108   0.52445   0.80005   0.00000  Uiso   1.00
C20    C     0.13610   0.47015   0.80896   0.00000  Uiso   1.00
C21    C     0.01713   0.68655   0.83597   0.00000  Uiso   1.00
C22    C     0.07531   0.74759   0.88100   0.00000  Uiso   1.00
C23    C     0.95279   0.79535   0.92695   0.00000  Uiso   1.00
H24    H     0.67204   0.59355   0.78373   0.00000  Uiso   1.00
H25    H     0.67114   0.57743   0.66577   0.00000  Uiso   1.00
H26    H     0.71099   0.48824   0.80237   0.00000  Uiso   1.00
H27    H     0.58524   0.71134   0.88331   0.00000  Uiso   1.00
H28    H     0.74704   0.56522   0.53462   0.00000  Uiso   1.00
H29    H     0.83107   0.37716   0.82266   0.00000  Uiso   1.00
H30    H     0.56588   0.84763   0.99335   0.00000  Uiso   1.00
H31    H     0.26454   0.63735   0.78093   0.00000  Uiso   1.00
H32    H     0.29615   0.62364   0.66281   0.00000  Uiso   1.00
H33    H     0.33600   0.53444   0.79941   0.00000  Uiso   1.00
H34    H     0.21024   0.75755   0.88035   0.00000  Uiso   1.00
H35    H     0.25432   0.60272   0.53222   0.00000  Uiso   1.00
H36    H     0.33834   0.41466   0.82026   0.00000  Uiso   1.00
H37    H     0.07317   0.88513   0.99094   0.00000  Uiso   1.00
O38    O     0.01080   0.57414   0.45576   0.00000  Uiso   1.00
O39    O     0.12103   0.32742   0.83367   0.00000  Uiso   1.00
O40    O     0.77311   0.94466   0.05760   0.00000  Uiso   1.00
N41    N     0.86208   0.57594   0.55027   0.00000  Uiso   1.00
N42    N     0.94065   0.40011   0.81956   0.00000  Uiso   1.00
N43    N     0.69273   0.83995   0.97915   0.00000  Uiso   1.00
N44    N     0.13505   0.59612   0.54897   0.00000  Uiso   1.00
N45    N     0.21361   0.42029   0.81827   0.00000  Uiso   1.00
N46    N     0.96569   0.86013   0.97785   0.00000  Uiso   1.00
C47    C     0.59717   0.19800   0.82438   0.00000  Uiso   1.00
C48    C     0.61770   0.26713   0.88234   0.00000  Uiso   1.00
C49    C     0.48627   0.31436   0.92172   0.00000  Uiso   1.00
C50    C     0.53143   0.37460   0.97226   0.00000  Uiso   1.00
C51    C     0.53738   0.48005   0.06060   0.00000  Uiso   1.00
C52    C     0.71064   0.19723   0.76558   0.00000  Uiso   1.00
C53    C     0.65736   0.18568   0.70678   0.00000  Uiso   1.00
C54    C     0.78078   0.18708   0.65903   0.00000  Uiso   1.00
C55    C     0.93105   0.18395   0.56608   0.00000  Uiso   1.00
C56    C     0.67828   0.14541   0.83874   0.00000  Uiso   1.00
C57    C     0.59782   0.09028   0.84145   0.00000  Uiso   1.00
C58    C     0.69400   0.04804   0.85528   0.00000  Uiso   1.00
C59    C     0.79402   0.96446   0.87593   0.00000  Uiso   1.00
C60    C     0.91107   0.22100   0.84411   0.00000  Uiso   1.00
C61    C     0.78820   0.27962   0.89305   0.00000  Uiso   1.00
C62    C     0.83357   0.33980   0.94355   0.00000  Uiso   1.00
C63    C     0.70223   0.38711   0.98299   0.00000  Uiso   1.00
C64    C     0.88114   0.20972   0.77629   0.00000  Uiso   1.00
C65    C     0.00466   0.21112   0.72861   0.00000  Uiso   1.00
C66    C     0.95158   0.19959   0.66976   0.00000  Uiso   1.00
C67    C     0.84878   0.15790   0.84946   0.00000  Uiso   1.00
C68    C     0.94511   0.11573   0.86328   0.00000  Uiso   1.00
C69    C     0.86481   0.06055   0.86602   0.00000  Uiso   1.00
H70    H     0.46443   0.18828   0.81603   0.00000  Uiso   1.00
H71    H     0.35434   0.30468   0.91340   0.00000  Uiso   1.00
H72    H     0.52542   0.17601   0.69850   0.00000  Uiso   1.00
H73    H     0.46588   0.08063   0.83315   0.00000  Uiso   1.00
H74    H     0.30749   0.43925   0.02607   0.00000  Uiso   1.00
H75    H     0.66821   0.16793   0.57293   0.00000  Uiso   1.00
H76    H     0.54266   0.96680   0.85686   0.00000  Uiso   1.00
H77    H     0.04382   0.23072   0.85245   0.00000  Uiso   1.00
H78    H     0.96552   0.34945   0.95183   0.00000  Uiso   1.00
H79    H     0.13659   0.22079   0.73692   0.00000  Uiso   1.00
H80    H     0.07705   0.12541   0.87157   0.00000  Uiso   1.00
H81    H     0.80354   0.47559   0.05725   0.00000  Uiso   1.00
H82    H     0.16427   0.20426   0.60411   0.00000  Uiso   1.00
H83    H     0.03871   0.00314   0.88805   0.00000  Uiso   1.00
O84    O     0.49356   0.53477   0.10636   0.00000  Uiso   1.00
O85    O     0.96682   0.17879   0.51185   0.00000  Uiso   1.00
O86    O     0.80209   0.91492   0.88437   0.00000  Uiso   1.00
N87    N     0.43497   0.43150   0.01978   0.00000  Uiso   1.00
N88    N     0.77223   0.17784   0.59612   0.00000  Uiso   1.00
N89    N     0.65486   0.98979   0.86156   0.00000  Uiso   1.00
N90    N     0.70190   0.45105   0.03656   0.00000  Uiso   1.00
N91    N     0.03915   0.19740   0.61290   0.00000  Uiso   1.00
N92    N     0.92178   0.00935   0.87834   0.00000  Uiso   1.00
C93    C     0.42549   0.15457   0.37703   0.00000  Uiso   1.00
C94    C     0.49635   0.09683   0.38662   0.00000  Uiso   1.00
C95    C     0.40117   0.04750   0.39524   0.00000  Uiso   1.00
C96    C     0.48983   0.99904   0.40322   0.00000  Uiso   1.00
C97    C     0.57286   0.90926   0.41824   0.00000  Uiso   1.00
C98    C     0.48258   0.22026   0.43096   0.00000  Uiso   1.00
C99    C     0.37579   0.27473   0.47686   0.00000  Uiso   1.00
C100   C     0.45287   0.33018   0.52216   0.00000  Uiso   1.00
C101   C     0.51452   0.43206   0.60599   0.00000  Uiso   1.00
C102   C     0.52145   0.14775   0.31273   0.00000  Uiso   1.00
C103   C     0.44737   0.14126   0.25921   0.00000  Uiso   1.00
C104   C     0.55719   0.13568   0.20497   0.00000  Uiso   1.00
C105   C     0.67919   0.12498   0.10522   0.00000  Uiso   1.00
C106   C     0.75224   0.15621   0.37588   0.00000  Uiso   1.00
C107   C     0.67383   0.09772   0.38600   0.00000  Uiso   1.00
C108   C     0.76267   0.04932   0.39397   0.00000  Uiso   1.00
C109   C     0.66763   0.99993   0.40259   0.00000  Uiso   1.00
C110   C     0.66004   0.22116   0.43034   0.00000  Uiso   1.00
C111   C     0.73730   0.27654   0.47559   0.00000  Uiso   1.00
C112   C     0.63067   0.33108   0.52154   0.00000  Uiso   1.00
C113   C     0.69893   0.14864   0.31210   0.00000  Uiso   1.00
C114   C     0.80888   0.14308   0.25794   0.00000  Uiso   1.00
C115   C     0.73498   0.13658   0.20435   0.00000  Uiso   1.00
H116   H     0.28732   0.15388   0.37752   0.00000  Uiso   1.00
H117   H     0.26382   0.04684   0.39572   0.00000  Uiso   1.00
H118   H     0.23846   0.27403   0.47732   0.00000  Uiso   1.00
H119   H     0.31003   0.14058   0.25971   0.00000  Uiso   1.00
H120   H     0.31602   0.92856   0.41565   0.00000  Uiso   1.00
H121   H     0.26256   0.40762   0.58770   0.00000  Uiso   1.00
H122   H     0.41347   0.12622   0.12882   0.00000  Uiso   1.00
H123   H     0.89042   0.15691   0.37540   0.00000  Uiso   1.00
H124   H     0.90001   0.05002   0.39349   0.00000  Uiso   1.00
H125   H     0.87465   0.27722   0.47509   0.00000  Uiso   1.00
H126   H     0.94622   0.14377   0.25748   0.00000  Uiso   1.00
H127   H     0.83238   0.93115   0.41384   0.00000  Uiso   1.00
H128   H     0.77891   0.41021   0.58589   0.00000  Uiso   1.00
H129   H     0.92983   0.12881   0.12701   0.00000  Uiso   1.00
O130   O     0.56962   0.85950   0.42671   0.00000  Uiso   1.00
O131   O     0.49948   0.48801   0.65241   0.00000  Uiso   1.00
O132   O     0.69747   0.11882   0.05038   0.00000  Uiso   1.00
N133   N     0.43623   0.94383   0.41273   0.00000  Uiso   1.00
N134   N     0.38624   0.39172   0.57359   0.00000  Uiso   1.00
N135   N     0.52733   0.12865   0.14458   0.00000  Uiso   1.00
N136   N     0.71408   0.94522   0.41176   0.00000  Uiso   1.00
N137   N     0.66409   0.39311   0.57262   0.00000  Uiso   1.00
N138   N     0.80518   0.13004   0.14361   0.00000  Uiso   1.00
C139   C     0.19222   0.39641   0.21691   0.00000  Uiso   1.00
C140   C     0.11055   0.39909   0.28139   0.00000  Uiso   1.00
C141   C     0.19393   0.41259   0.33488   0.00000  Uiso   1.00
C142   C     0.09667   0.41275   0.38930   0.00000  Uiso   1.00
C143   C     0.99637   0.41890   0.48931   0.00000  Uiso   1.00
C144   C     0.08889   0.44756   0.20718   0.00000  Uiso   1.00
C145   C     0.15407   0.50181   0.19827   0.00000  Uiso   1.00
C146   C     0.03857   0.54276   0.19022   0.00000  Uiso   1.00
C147   C     0.90466   0.62413   0.17496   0.00000  Uiso   1.00
C148   C     0.15722   0.32634   0.16321   0.00000  Uiso   1.00
C149   C     0.27985   0.27866   0.11731   0.00000  Uiso   1.00
C150   C     0.22188   0.21756   0.07222   0.00000  Uiso   1.00
C151   C     0.19406   0.11071   0.98869   0.00000  Uiso   1.00
C152   C     0.87121   0.37268   0.21843   0.00000  Uiso   1.00
C153   C     0.93619   0.38620   0.28221   0.00000  Uiso   1.00
C154   C     0.83878   0.38634   0.33656   0.00000  Uiso   1.00
C155   C     0.92200   0.39983   0.39013   0.00000  Uiso   1.00
C156   C     0.91454   0.43467   0.20800   0.00000  Uiso   1.00
C157   C     0.79892   0.47555   0.19995   0.00000  Uiso   1.00
C158   C     0.86390   0.52985   0.19104   0.00000  Uiso   1.00
C159   C     0.98287   0.31345   0.16403   0.00000  Uiso   1.00
C160   C     0.92469   0.25241   0.11900   0.00000  Uiso   1.00
C161   C     0.04721   0.20465   0.07305   0.00000  Uiso   1.00
H162   H     0.32796   0.40645   0.21627   0.00000  Uiso   1.00
H163   H     0.32886   0.42257   0.33423   0.00000  Uiso   1.00
H164   H     0.28901   0.51176   0.19763   0.00000  Uiso   1.00
H165   H     0.41476   0.28865   0.11669   0.00000  Uiso   1.00
H166   H     0.25296   0.43478   0.46538   0.00000  Uiso   1.00
H167   H     0.16893   0.62284   0.17734   0.00000  Uiso   1.00
H168   H     0.43412   0.15237   0.00665   0.00000  Uiso   1.00
H169   H     0.73546   0.36265   0.21907   0.00000  Uiso   1.00
H170   H     0.70385   0.37636   0.33718   0.00000  Uiso   1.00
H171   H     0.66400   0.46556   0.20059   0.00000  Uiso   1.00
H172   H     0.78976   0.24245   0.11965   0.00000  Uiso   1.00
H173   H     0.74568   0.39728   0.46778   0.00000  Uiso   1.00
H174   H     0.66166   0.58533   0.17974   0.00000  Uiso   1.00
H175   H     0.92683   0.11487   0.00905   0.00000  Uiso   1.00
O176   O     0.98920   0.42586   0.54424   0.00000  Uiso   1.00
O177   O     0.87897   0.67258   0.16633   0.00000  Uiso   1.00
O178   O     0.22689   0.05534   0.94240   0.00000  Uiso   1.00
N179   N     0.13792   0.42406   0.44973   0.00000  Uiso   1.00
N180   N     0.05935   0.59989   0.18044   0.00000  Uiso   1.00
N181   N     0.30727   0.16005   0.02085   0.00000  Uiso   1.00
N182   N     0.86495   0.40388   0.45102   0.00000  Uiso   1.00
N183   N     0.78639   0.57971   0.18173   0.00000  Uiso   1.00
N184   N     0.03431   0.13987   0.02214   0.00000  Uiso   1.00
C185   C     0.40283   0.80200   0.17562   0.00000  Uiso   1.00
C186   C     0.38230   0.73287   0.11766   0.00000  Uiso   1.00
C187   C     0.51373   0.68564   0.07828   0.00000  Uiso   1.00
C188   C     0.46857   0.62540   0.02774   0.00000  Uiso   1.00
C189   C     0.46262   0.51995   0.93940   0.00000  Uiso   1.00
C190   C     0.28936   0.80277   0.23442   0.00000  Uiso   1.00
C191   C     0.34263   0.81432   0.29322   0.00000  Uiso   1.00
C192   C     0.21922   0.81292   0.34097   0.00000  Uiso   1.00
C193   C     0.06895   0.81605   0.43392   0.00000  Uiso   1.00
C194   C     0.32172   0.85459   0.16126   0.00000  Uiso   1.00
C195   C     0.40218   0.90972   0.15855   0.00000  Uiso   1.00
C196   C     0.30600   0.95196   0.14472   0.00000  Uiso   1.00
C197   C     0.20598   0.03554   0.12407   0.00000  Uiso   1.00
C198   C     0.08893   0.77900   0.15589   0.00000  Uiso   1.00
C199   C     0.21180   0.72038   0.10695   0.00000  Uiso   1.00
C200   C     0.16643   0.66020   0.05645   0.00000  Uiso   1.00
C201   C     0.29777   0.61289   0.01700   0.00000  Uiso   1.00
C202   C     0.11886   0.79028   0.22371   0.00000  Uiso   1.00
C203   C     0.99534   0.78888   0.27139   0.00000  Uiso   1.00
C204   C     0.04842   0.80041   0.33024   0.00000  Uiso   1.00
C205   C     0.15122   0.84210   0.15054   0.00000  Uiso   1.00
C206   C     0.05489   0.88427   0.13672   0.00000  Uiso   1.00
C207   C     0.13519   0.93945   0.13398   0.00000  Uiso   1.00
H208   H     0.53557   0.81172   0.18396   0.00000  Uiso   1.00
H209   H     0.64566   0.69532   0.08659   0.00000  Uiso   1.00
H210   H     0.47458   0.82399   0.30150   0.00000  Uiso   1.00
H211   H     0.53412   0.91937   0.16685   0.00000  Uiso   1.00
H212   H     0.69251   0.56075   0.97393   0.00000  Uiso   1.00
H213   H     0.33179   0.83207   0.42707   0.00000  Uiso   1.00
H214   H     0.45734   0.03320   0.14314   0.00000  Uiso   1.00
H215   H     0.95618   0.76928   0.14755   0.00000  Uiso   1.00
H216   H     0.03448   0.65055   0.04817   0.00000  Uiso   1.00
H217   H     0.86341   0.77921   0.26308   0.00000  Uiso   1.00
H218   H     0.92295   0.87459   0.12843   0.00000  Uiso   1.00
H219   H     0.19646   0.52441   0.94275   0.00000  Uiso   1.00
H220   H     0.83573   0.79574   0.39589   0.00000  Uiso   1.00
H221   H     0.96129   0.99686   0.11195   0.00000  Uiso   1.00
O222   O     0.50644   0.46523   0.89364   0.00000  Uiso   1.00
O223   O     0.03318   0.82121   0.48815   0.00000  Uiso   1.00
O224   O     0.19791   0.08508   0.11563   0.00000  Uiso   1.00
N225   N     0.56502   0.56850   0.98022   0.00000  Uiso   1.00
N226   N     0.22777   0.82216   0.40388   0.00000  Uiso   1.00
N227   N     0.34514   0.01021   0.13844   0.00000  Uiso   1.00
N228   N     0.29810   0.54895   0.96344   0.00000  Uiso   1.00
N229   N     0.96085   0.80260   0.38710   0.00000  Uiso   1.00
N230   N     0.07822   0.99065   0.12166   0.00000  Uiso   1.00
C231   C     0.57451   0.84543   0.62297   0.00000  Uiso   1.00
C232   C     0.50365   0.90317   0.61338   0.00000  Uiso   1.00
C233   C     0.59883   0.95250   0.60476   0.00000  Uiso   1.00
C234   C     0.51017   0.00096   0.59678   0.00000  Uiso   1.00
C235   C     0.42714   0.09073   0.58176   0.00000  Uiso   1.00
C236   C     0.51742   0.77974   0.56904   0.00000  Uiso   1.00
C237   C     0.62421   0.72527   0.52314   0.00000  Uiso   1.00
C238   C     0.54713   0.66982   0.47784   0.00000  Uiso   1.00
C239   C     0.48548   0.56794   0.39401   0.00000  Uiso   1.00
C240   C     0.47854   0.85225   0.68727   0.00000  Uiso   1.00
C241   C     0.55263   0.85874   0.74079   0.00000  Uiso   1.00
C242   C     0.44281   0.86432   0.79503   0.00000  Uiso   1.00
C243   C     0.32081   0.87502   0.89477   0.00000  Uiso   1.00
C244   C     0.24776   0.84379   0.62412   0.00000  Uiso   1.00
C245   C     0.32617   0.90228   0.61400   0.00000  Uiso   1.00
C246   C     0.23733   0.95068   0.60603   0.00000  Uiso   1.00
C247   C     0.33237   0.00007   0.59741   0.00000  Uiso   1.00
C248   C     0.33995   0.77884   0.56966   0.00000  Uiso   1.00
C249   C     0.26270   0.72346   0.52441   0.00000  Uiso   1.00
C250   C     0.36933   0.66892   0.47846   0.00000  Uiso   1.00
C251   C     0.30107   0.85136   0.68790   0.00000  Uiso   1.00
C252   C     0.19112   0.85692   0.74206   0.00000  Uiso   1.00
C253   C     0.26502   0.86342   0.79565   0.00000  Uiso   1.00
H254   H     0.71268   0.84612   0.62248   0.00000  Uiso   1.00
H255   H     0.73618   0.95316   0.60428   0.00000  Uiso   1.00
H256   H     0.76154   0.72597   0.52268   0.00000  Uiso   1.00
H257   H     0.68997   0.85942   0.74029   0.00000  Uiso   1.00
H258   H     0.68398   0.07144   0.58435   0.00000  Uiso   1.00
H259   H     0.73744   0.59238   0.41230   0.00000  Uiso   1.00
H260   H     0.58653   0.87378   0.87118   0.00000  Uiso   1.00
H261   H     0.10958   0.84309   0.62460   0.00000  Uiso   1.00
H262   H     0.09999   0.94998   0.60651   0.00000  Uiso   1.00
H263   H     0.12535   0.72278   0.52491   0.00000  Uiso   1.00
H264   H     0.05378   0.85623   0.74252   0.00000  Uiso   1.00
H265   H     0.16762   0.06885   0.58616   0.00000  Uiso   1.00
H266   H     0.22109   0.58979   0.41411   0.00000  Uiso   1.00
H267   H     0.07017   0.87119   0.87299   0.00000  Uiso   1.00
O268   O     0.43038   0.14050   0.57329   0.00000  Uiso   1.00
O269   O     0.50052   0.51199   0.34759   0.00000  Uiso   1.00
O270   O     0.30253   0.88118   0.94962   0.00000  Uiso   1.00
N271   N     0.56377   0.05617   0.58727   0.00000  Uiso   1.00
N272   N     0.61376   0.60828   0.42641   0.00000  Uiso   1.00
N273   N     0.47267   0.87135   0.85542   0.00000  Uiso   1.00
N274   N     0.28592   0.05478   0.58824   0.00000  Uiso   1.00
N275   N     0.33591   0.60689   0.42738   0.00000  Uiso   1.00
N276   N     0.19482   0.86996   0.85639   0.00000  Uiso   1.00
