data_job_06884
_audit_creation_date              2018-12-19
_audit_creation_method            'Materials Studio'
_symmetry_space_group_name_H-M    'P1'
_symmetry_Int_Tables_number       1
_symmetry_cell_setting            triclinic
loop_
_symmetry_equiv_pos_as_xyz
  x,y,z
_cell_length_a                    19.9407
_cell_length_b                    20.6606
_cell_length_c                    22.7080
_cell_angle_alpha                 71.1520
_cell_angle_beta                  86.0570
_cell_angle_gamma                 86.3081
loop_
_atom_site_label
_atom_site_type_symbol
_atom_site_fract_x
_atom_site_fract_y
_atom_site_fract_z
_atom_site_U_iso_or_equiv
_atom_site_adp_type
_atom_site_occupancy
C1     C     0.97854   0.41067   0.71474   0.00000  Uiso   1.00
C2     C     0.97967   0.33885   0.76205   0.00000  Uiso   1.00
C3     C     0.02808   0.31127   0.80547   0.00000  Uiso   1.00
C4     C     0.02014   0.24465   0.84461   0.00000  Uiso   1.00
C5     C     0.03019   0.13885   0.91869   0.00000  Uiso   1.00
C6     C     0.97657   0.40124   0.65100   0.00000  Uiso   1.00
C7     C     0.02237   0.42612   0.60105   0.00000  Uiso   1.00
C8     C     0.01182   0.41203   0.54670   0.00000  Uiso   1.00
C9     C     0.01703   0.40313   0.44836   0.00000  Uiso   1.00
C10    C     0.91072   0.44445   0.72588   0.00000  Uiso   1.00
C11    C     0.90115   0.50567   0.73887   0.00000  Uiso   1.00
C12    C     0.83516   0.52797   0.74756   0.00000  Uiso   1.00
C13    C     0.73814   0.58616   0.76548   0.00000  Uiso   1.00
C14    C     0.87835   0.34140   0.70703   0.00000  Uiso   1.00
C15    C     0.92525   0.30123   0.75786   0.00000  Uiso   1.00
C16    C     0.91723   0.23464   0.79695   0.00000  Uiso   1.00
C17    C     0.96562   0.20697   0.84042   0.00000  Uiso   1.00
C18    C     0.92215   0.36362   0.64681   0.00000  Uiso   1.00
C19    C     0.91153   0.34949   0.59252   0.00000  Uiso   1.00
C20    C     0.95730   0.37434   0.54251   0.00000  Uiso   1.00
C21    C     0.85630   0.40683   0.72169   0.00000  Uiso   1.00
C22    C     0.79031   0.42904   0.73035   0.00000  Uiso   1.00
C23    C     0.78064   0.49028   0.74336   0.00000  Uiso   1.00
H24    H     0.02090   0.43996   0.71799   0.00000  Uiso   1.00
H25    H     0.07019   0.34040   0.80869   0.00000  Uiso   1.00
H26    H     0.06447   0.45524   0.60430   0.00000  Uiso   1.00
H27    H     0.94328   0.53477   0.74211   0.00000  Uiso   1.00
H28    H     0.10084   0.21342   0.90739   0.00000  Uiso   1.00
H29    H     0.08878   0.45559   0.47642   0.00000  Uiso   1.00
H30    H     0.83322   0.62330   0.76700   0.00000  Uiso   1.00
H31    H     0.83598   0.31212   0.70377   0.00000  Uiso   1.00
H32    H     0.87512   0.20554   0.79370   0.00000  Uiso   1.00
H33    H     0.86941   0.32038   0.58930   0.00000  Uiso   1.00
H34    H     0.74821   0.39991   0.72711   0.00000  Uiso   1.00
H35    H     0.94252   0.10396   0.89522   0.00000  Uiso   1.00
H36    H     0.93046   0.34613   0.46424   0.00000  Uiso   1.00
H37    H     0.67489   0.51384   0.75483   0.00000  Uiso   1.00
O38    O     0.05077   0.09088   0.96070   0.00000  Uiso   1.00
O39    O     0.03495   0.40861   0.39527   0.00000  Uiso   1.00
O40    O     0.69965   0.62864   0.77652   0.00000  Uiso   1.00
N41    N     0.05820   0.20229   0.89219   0.00000  Uiso   1.00
N42    N     0.04694   0.42869   0.48926   0.00000  Uiso   1.00
N43    N     0.80800   0.58550   0.76092   0.00000  Uiso   1.00
N44    N     0.97301   0.14339   0.88564   0.00000  Uiso   1.00
N45    N     0.96174   0.36979   0.48271   0.00000  Uiso   1.00
N46    N     0.72281   0.52660   0.75437   0.00000  Uiso   1.00
C47    C     0.29693   0.87766   0.94011   0.00000  Uiso   1.00
C48    C     0.33359   0.88132   0.87801   0.00000  Uiso   1.00
C49    C     0.38378   0.92577   0.84825   0.00000  Uiso   1.00
C50    C     0.41101   0.92109   0.79176   0.00000  Uiso   1.00
C51    C     0.47130   0.93401   0.69923   0.00000  Uiso   1.00
C52    C     0.22220   0.88796   0.92755   0.00000  Uiso   1.00
C53    C     0.17873   0.93799   0.93947   0.00000  Uiso   1.00
C54    C     0.11218   0.93889   0.92468   0.00000  Uiso   1.00
C55    C     0.99952   0.96208   0.90912   0.00000  Uiso   1.00
C56    C     0.30697   0.80386   0.98226   0.00000  Uiso   1.00
C57    C     0.33475   0.78319   0.04018   0.00000  Uiso   1.00
C58    C     0.33956   0.71329   0.07146   0.00000  Uiso   1.00
C59    C     0.35851   0.60592   0.14084   0.00000  Uiso   1.00
C60    C     0.25605   0.79031   0.89268   0.00000  Uiso   1.00
C61    C     0.31138   0.83387   0.85225   0.00000  Uiso   1.00
C62    C     0.33855   0.82912   0.79578   0.00000  Uiso   1.00
C63    C     0.38877   0.87356   0.76595   0.00000  Uiso   1.00
C64    C     0.19999   0.84051   0.90179   0.00000  Uiso   1.00
C65    C     0.13350   0.84134   0.88699   0.00000  Uiso   1.00
C66    C     0.08994   0.89136   0.89888   0.00000  Uiso   1.00
C67    C     0.28476   0.75642   0.95650   0.00000  Uiso   1.00
C68    C     0.28953   0.68654   0.98770   0.00000  Uiso   1.00
C69    C     0.31732   0.66576   0.04566   0.00000  Uiso   1.00
H70    H     0.31421   0.91460   0.96016   0.00000  Uiso   1.00
H71    H     0.40094   0.96249   0.86820   0.00000  Uiso   1.00
H72    H     0.19592   0.97469   0.95941   0.00000  Uiso   1.00
H73    H     0.35193   0.81992   0.06010   0.00000  Uiso   1.00
H74    H     0.48729   0.99466   0.75488   0.00000  Uiso   1.00
H75    H     0.05499   0.02039   0.94720   0.00000  Uiso   1.00
H76    H     0.38396   0.69401   0.15954   0.00000  Uiso   1.00
H77    H     0.23876   0.75337   0.87262   0.00000  Uiso   1.00
H78    H     0.32135   0.79240   0.77586   0.00000  Uiso   1.00
H79    H     0.11633   0.80461   0.86706   0.00000  Uiso   1.00
H80    H     0.27234   0.64984   0.96775   0.00000  Uiso   1.00
H81    H     0.42270   0.85662   0.67992   0.00000  Uiso   1.00
H82    H     0.99039   0.88235   0.87225   0.00000  Uiso   1.00
H83    H     0.31936   0.55597   0.08458   0.00000  Uiso   1.00
O84    O     0.51068   0.95424   0.65531   0.00000  Uiso   1.00
O85    O     0.94351   0.98799   0.90765   0.00000  Uiso   1.00
O86    O     0.37511   0.55979   0.18622   0.00000  Uiso   1.00
N87    N     0.46077   0.95681   0.75052   0.00000  Uiso   1.00
N88    N     0.05659   0.98087   0.93033   0.00000  Uiso   1.00
N89    N     0.36413   0.67574   0.12885   0.00000  Uiso   1.00
N90    N     0.42601   0.88253   0.71019   0.00000  Uiso   1.00
N91    N     0.02183   0.90659   0.88999   0.00000  Uiso   1.00
N92    N     0.32937   0.60146   0.08852   0.00000  Uiso   1.00
C93    C     0.43786   0.24191   0.42419   0.00000  Uiso   1.00
C94    C     0.37353   0.28537   0.42634   0.00000  Uiso   1.00
C95    C     0.36321   0.33190   0.45890   0.00000  Uiso   1.00
C96    C     0.30084   0.36660   0.45496   0.00000  Uiso   1.00
C97    C     0.20858   0.43581   0.46369   0.00000  Uiso   1.00
C98    C     0.41713   0.16777   0.44631   0.00000  Uiso   1.00
C99    C     0.44347   0.11541   0.49566   0.00000  Uiso   1.00
C100   C     0.41781   0.05112   0.50853   0.00000  Uiso   1.00
C101   C     0.39328   0.93773   0.54824   0.00000  Uiso   1.00
C102   C     0.45960   0.25813   0.35544   0.00000  Uiso   1.00
C103   C     0.52165   0.28173   0.32837   0.00000  Uiso   1.00
C104   C     0.53175   0.29350   0.26472   0.00000  Uiso   1.00
C105   C     0.57315   0.32041   0.16333   0.00000  Uiso   1.00
C106   C     0.34547   0.22082   0.35928   0.00000  Uiso   1.00
C107   C     0.32335   0.27391   0.39109   0.00000  Uiso   1.00
C108   C     0.26099   0.30856   0.38710   0.00000  Uiso   1.00
C109   C     0.25057   0.35513   0.41964   0.00000  Uiso   1.00
C110   C     0.36695   0.15631   0.41106   0.00000  Uiso   1.00
C111   C     0.34126   0.09208   0.42385   0.00000  Uiso   1.00
C112   C     0.36754   0.03964   0.47321   0.00000  Uiso   1.00
C113   C     0.40942   0.24667   0.32018   0.00000  Uiso   1.00
C114   C     0.41943   0.25840   0.25656   0.00000  Uiso   1.00
C115   C     0.48148   0.28202   0.22941   0.00000  Uiso   1.00
H116   H     0.47693   0.25082   0.45163   0.00000  Uiso   1.00
H117   H     0.40205   0.34074   0.48618   0.00000  Uiso   1.00
H118   H     0.48231   0.12430   0.52293   0.00000  Uiso   1.00
H119   H     0.56047   0.29059   0.35567   0.00000  Uiso   1.00
H120   H     0.29690   0.43537   0.50896   0.00000  Uiso   1.00
H121   H     0.46614   0.97897   0.58643   0.00000  Uiso   1.00
H122   H     0.63096   0.32964   0.23372   0.00000  Uiso   1.00
H123   H     0.30641   0.21189   0.33184   0.00000  Uiso   1.00
H124   H     0.22217   0.29968   0.35981   0.00000  Uiso   1.00
H125   H     0.30243   0.08323   0.39656   0.00000  Uiso   1.00
H126   H     0.38059   0.24953   0.22930   0.00000  Uiso   1.00
H127   H     0.15090   0.40204   0.40640   0.00000  Uiso   1.00
H128   H     0.32014   0.94563   0.48386   0.00000  Uiso   1.00
H129   H     0.48496   0.29631   0.13115   0.00000  Uiso   1.00
O130   O     0.17155   0.47713   0.47826   0.00000  Uiso   1.00
O131   O     0.39360   0.87836   0.57989   0.00000  Uiso   1.00
O132   O     0.60984   0.33843   0.11714   0.00000  Uiso   1.00
N133   N     0.27410   0.41548   0.48097   0.00000  Uiso   1.00
N134   N     0.43233   0.98878   0.55341   0.00000  Uiso   1.00
N135   N     0.58643   0.31661   0.22366   0.00000  Uiso   1.00
N136   N     0.19554   0.39755   0.42578   0.00000  Uiso   1.00
N137   N     0.35376   0.97085   0.49822   0.00000  Uiso   1.00
N138   N     0.50787   0.29868   0.16847   0.00000  Uiso   1.00
C139   C     0.48086   0.73083   0.39093   0.00000  Uiso   1.00
C140   C     0.48337   0.77391   0.32224   0.00000  Uiso   1.00
C141   C     0.53250   0.81949   0.29208   0.00000  Uiso   1.00
C142   C     0.52580   0.85399   0.22908   0.00000  Uiso   1.00
C143   C     0.53792   0.92249   0.12723   0.00000  Uiso   1.00
C144   C     0.47848   0.65666   0.39251   0.00000  Uiso   1.00
C145   C     0.52350   0.60366   0.42143   0.00000  Uiso   1.00
C146   C     0.51269   0.53946   0.41759   0.00000  Uiso   1.00
C147   C     0.51719   0.42591   0.42487   0.00000  Uiso   1.00
C148   C     0.41270   0.74836   0.41812   0.00000  Uiso   1.00
C149   C     0.40241   0.77244   0.46859   0.00000  Uiso   1.00
C150   C     0.33621   0.78543   0.48632   0.00000  Uiso   1.00
C151   C     0.23859   0.81426   0.53338   0.00000  Uiso   1.00
C152   C     0.38159   0.71104   0.33269   0.00000  Uiso   1.00
C153   C     0.42945   0.76316   0.29061   0.00000  Uiso   1.00
C154   C     0.42267   0.79760   0.22765   0.00000  Uiso   1.00
C155   C     0.47179   0.84323   0.19739   0.00000  Uiso   1.00
C156   C     0.42456   0.64591   0.36088   0.00000  Uiso   1.00
C157   C     0.41367   0.58177   0.35700   0.00000  Uiso   1.00
C158   C     0.45867   0.52869   0.38590   0.00000  Uiso   1.00
C159   C     0.35878   0.73761   0.38649   0.00000  Uiso   1.00
C160   C     0.29259   0.75056   0.40416   0.00000  Uiso   1.00
C161   C     0.28220   0.77466   0.45464   0.00000  Uiso   1.00
H162   H     0.52284   0.73919   0.41556   0.00000  Uiso   1.00
H163   H     0.57422   0.82779   0.31657   0.00000  Uiso   1.00
H164   H     0.56522   0.61199   0.44591   0.00000  Uiso   1.00
H165   H     0.44415   0.78075   0.49306   0.00000  Uiso   1.00
H166   H     0.60743   0.92126   0.19287   0.00000  Uiso   1.00
H167   H     0.58843   0.46623   0.46561   0.00000  Uiso   1.00
H168   H     0.33314   0.82210   0.56503   0.00000  Uiso   1.00
H169   H     0.33961   0.70268   0.30807   0.00000  Uiso   1.00
H170   H     0.38094   0.78928   0.20318   0.00000  Uiso   1.00
H171   H     0.37194   0.57347   0.33252   0.00000  Uiso   1.00
H172   H     0.25087   0.74224   0.37967   0.00000  Uiso   1.00
H173   H     0.45056   0.89000   0.10084   0.00000  Uiso   1.00
H174   H     0.43156   0.43497   0.37358   0.00000  Uiso   1.00
H175   H     0.17626   0.79084   0.47300   0.00000  Uiso   1.00
O176   O     0.55950   0.96324   0.07979   0.00000  Uiso   1.00
O177   O     0.53457   0.36626   0.43763   0.00000  Uiso   1.00
O178   O     0.19963   0.83315   0.56806   0.00000  Uiso   1.00
N179   N     0.56483   0.90203   0.18561   0.00000  Uiso   1.00
N180   N     0.54708   0.47660   0.44059   0.00000  Uiso   1.00
N181   N     0.30839   0.80929   0.53356   0.00000  Uiso   1.00
N182   N     0.48042   0.88521   0.13609   0.00000  Uiso   1.00
N183   N     0.46267   0.45978   0.39107   0.00000  Uiso   1.00
N184   N     0.22398   0.79247   0.48403   0.00000  Uiso   1.00
C185   C     0.79606   0.92667   0.89740   0.00000  Uiso   1.00
C186   C     0.83353   0.85734   0.90893   0.00000  Uiso   1.00
C187   C     0.88247   0.83033   0.95193   0.00000  Uiso   1.00
C188   C     0.91074   0.76609   0.95541   0.00000  Uiso   1.00
C189   C     0.97194   0.66388   0.97914   0.00000  Uiso   1.00
C190   C     0.72140   0.91207   0.90689   0.00000  Uiso   1.00
C191   C     0.67606   0.93110   0.94816   0.00000  Uiso   1.00
C192   C     0.60994   0.91295   0.94990   0.00000  Uiso   1.00
C193   C     0.49704   0.89576   0.97042   0.00000  Uiso   1.00
C194   C     0.80802   0.96532   0.82822   0.00000  Uiso   1.00
C195   C     0.83548   0.02912   0.80334   0.00000  Uiso   1.00
C196   C     0.84227   0.05581   0.73885   0.00000  Uiso   1.00
C197   C     0.86385   0.12130   0.63722   0.00000  Uiso   1.00
C198   C     0.75925   0.86061   0.82710   0.00000  Uiso   1.00
C199   C     0.81354   0.82146   0.87075   0.00000  Uiso   1.00
C200   C     0.84174   0.75725   0.87415   0.00000  Uiso   1.00
C201   C     0.89071   0.73015   0.91715   0.00000  Uiso   1.00
C202   C     0.70141   0.87620   0.86870   0.00000  Uiso   1.00
C203   C     0.63533   0.85802   0.87038   0.00000  Uiso   1.00
C204   C     0.58990   0.87700   0.91165   0.00000  Uiso   1.00
C205   C     0.78802   0.92944   0.79003   0.00000  Uiso   1.00
C206   C     0.79476   0.95604   0.72556   0.00000  Uiso   1.00
C207   C     0.82223   0.01987   0.70059   0.00000  Uiso   1.00
H208   H     0.81162   0.95460   0.92713   0.00000  Uiso   1.00
H209   H     0.89792   0.85811   0.98148   0.00000  Uiso   1.00
H210   H     0.69155   0.95887   0.97770   0.00000  Uiso   1.00
H211   H     0.85095   0.05687   0.83291   0.00000  Uiso   1.00
H212   H     0.98477   0.73530   0.02491   0.00000  Uiso   1.00
H213   H     0.54961   0.94777   0.01693   0.00000  Uiso   1.00
H214   H     0.88573   0.15444   0.71160   0.00000  Uiso   1.00
H215   H     0.74368   0.83268   0.79737   0.00000  Uiso   1.00
H216   H     0.82626   0.72950   0.84460   0.00000  Uiso   1.00
H217   H     0.61988   0.83026   0.84082   0.00000  Uiso   1.00
H218   H     0.77928   0.92826   0.69603   0.00000  Uiso   1.00
H219   H     0.92660   0.63091   0.91381   0.00000  Uiso   1.00
H220   H     0.49144   0.84339   0.90583   0.00000  Uiso   1.00
H221   H     0.82757   0.05005   0.60050   0.00000  Uiso   1.00
O222   O     0.01122   0.61741   0.00279   0.00000  Uiso   1.00
O223   O     0.44030   0.89619   0.99230   0.00000  Uiso   1.00
O224   O     0.88129   0.16733   0.59172   0.00000  Uiso   1.00
N225   N     0.95976   0.72489   0.99227   0.00000  Uiso   1.00
N226   N     0.55291   0.92354   0.98482   0.00000  Uiso   1.00
N227   N     0.86714   0.11676   0.69936   0.00000  Uiso   1.00
N228   N     0.92846   0.66872   0.93249   0.00000  Uiso   1.00
N229   N     0.52161   0.86737   0.92504   0.00000  Uiso   1.00
N230   N     0.83584   0.06059   0.63958   0.00000  Uiso   1.00
C231   C     0.93878   0.38269   0.28973   0.00000  Uiso   1.00
C232   C     0.87391   0.38751   0.32806   0.00000  Uiso   1.00
C233   C     0.86219   0.42864   0.36574   0.00000  Uiso   1.00
C234   C     0.79955   0.42576   0.39698   0.00000  Uiso   1.00
C235   C     0.70628   0.43973   0.45743   0.00000  Uiso   1.00
C236   C     0.91865   0.39967   0.22265   0.00000  Uiso   1.00
C237   C     0.94454   0.45103   0.17170   0.00000  Uiso   1.00
C238   C     0.91956   0.45837   0.11420   0.00000  Uiso   1.00
C239   C     0.89577   0.49119   0.01098   0.00000  Uiso   1.00
C240   C     0.96184   0.30726   0.31057   0.00000  Uiso   1.00
C241   C     0.02406   0.28092   0.33354   0.00000  Uiso   1.00
C242   C     0.03544   0.21046   0.35005   0.00000  Uiso   1.00
C243   C     0.07872   0.09980   0.38335   0.00000  Uiso   1.00
C244   C     0.84838   0.30441   0.27820   0.00000  Uiso   1.00
C245   C     0.82481   0.34499   0.32180   0.00000  Uiso   1.00
C246   C     0.76217   0.34204   0.35299   0.00000  Uiso   1.00
C247   C     0.75035   0.38316   0.39072   0.00000  Uiso   1.00
C248   C     0.86955   0.35716   0.21639   0.00000  Uiso   1.00
C249   C     0.84452   0.36442   0.15895   0.00000  Uiso   1.00
C250   C     0.87037   0.41577   0.10793   0.00000  Uiso   1.00
C251   C     0.91274   0.26474   0.30431   0.00000  Uiso   1.00
C252   C     0.92403   0.19431   0.32079   0.00000  Uiso   1.00
C253   C     0.98625   0.16786   0.34378   0.00000  Uiso   1.00
H254   H     0.97701   0.41580   0.29460   0.00000  Uiso   1.00
H255   H     0.90020   0.46155   0.37057   0.00000  Uiso   1.00
H256   H     0.98254   0.48392   0.17656   0.00000  Uiso   1.00
H257   H     0.06204   0.31384   0.33837   0.00000  Uiso   1.00
H258   H     0.79338   0.49353   0.45202   0.00000  Uiso   1.00
H259   H     0.96701   0.54069   0.04293   0.00000  Uiso   1.00
H260   H     0.13466   0.18204   0.38415   0.00000  Uiso   1.00
H261   H     0.81015   0.27131   0.27333   0.00000  Uiso   1.00
H262   H     0.72418   0.30913   0.34814   0.00000  Uiso   1.00
H263   H     0.80653   0.33150   0.15412   0.00000  Uiso   1.00
H264   H     0.88602   0.16142   0.31594   0.00000  Uiso   1.00
H265   H     0.65051   0.36983   0.43382   0.00000  Uiso   1.00
H266   H     0.82416   0.41699   0.02472   0.00000  Uiso   1.00
H267   H     0.99179   0.05834   0.36594   0.00000  Uiso   1.00
O268   O     0.66839   0.45918   0.49250   0.00000  Uiso   1.00
O269   O     0.89621   0.52104   0.95578   0.00000  Uiso   1.00
O270   O     0.11615   0.05050   0.40346   0.00000  Uiso   1.00
N271   N     0.77156   0.45922   0.43748   0.00000  Uiso   1.00
N272   N     0.93389   0.50332   0.05500   0.00000  Uiso   1.00
N273   N     0.09063   0.16801   0.37400   0.00000  Uiso   1.00
N274   N     0.69468   0.39265   0.42769   0.00000  Uiso   1.00
N275   N     0.85702   0.43675   0.04521   0.00000  Uiso   1.00
N276   N     0.01376   0.10144   0.36420   0.00000  Uiso   1.00
C277   C     0.02146   0.58933   0.28526   0.00000  Uiso   1.00
C278   C     0.02033   0.66115   0.23795   0.00000  Uiso   1.00
C279   C     0.97192   0.68873   0.19453   0.00000  Uiso   1.00
C280   C     0.97986   0.75535   0.15539   0.00000  Uiso   1.00
C281   C     0.96981   0.86115   0.08131   0.00000  Uiso   1.00
C282   C     0.02343   0.59876   0.34900   0.00000  Uiso   1.00
C283   C     0.97763   0.57388   0.39895   0.00000  Uiso   1.00
C284   C     0.98818   0.58797   0.45330   0.00000  Uiso   1.00
C285   C     0.98297   0.59687   0.55164   0.00000  Uiso   1.00
C286   C     0.08928   0.55555   0.27412   0.00000  Uiso   1.00
C287   C     0.09885   0.49433   0.26113   0.00000  Uiso   1.00
C288   C     0.16484   0.47203   0.25244   0.00000  Uiso   1.00
C289   C     0.26186   0.41384   0.23452   0.00000  Uiso   1.00
C290   C     0.12165   0.65860   0.29297   0.00000  Uiso   1.00
C291   C     0.07475   0.69877   0.24214   0.00000  Uiso   1.00
C292   C     0.08277   0.76536   0.20305   0.00000  Uiso   1.00
C293   C     0.03438   0.79303   0.15958   0.00000  Uiso   1.00
C294   C     0.07785   0.63638   0.35319   0.00000  Uiso   1.00
C295   C     0.08847   0.65051   0.40748   0.00000  Uiso   1.00
C296   C     0.04270   0.62566   0.45749   0.00000  Uiso   1.00
C297   C     0.14370   0.59317   0.27831   0.00000  Uiso   1.00
C298   C     0.20969   0.57096   0.26965   0.00000  Uiso   1.00
C299   C     0.21936   0.50972   0.25664   0.00000  Uiso   1.00
H300   H     0.97910   0.56004   0.28201   0.00000  Uiso   1.00
H301   H     0.92981   0.65960   0.19131   0.00000  Uiso   1.00
H302   H     0.93553   0.54476   0.39570   0.00000  Uiso   1.00
H303   H     0.05672   0.46523   0.25789   0.00000  Uiso   1.00
H304   H     0.89916   0.78658   0.09261   0.00000  Uiso   1.00
H305   H     0.91122   0.54441   0.52358   0.00000  Uiso   1.00
H306   H     0.16678   0.37670   0.23300   0.00000  Uiso   1.00
H307   H     0.16402   0.68788   0.29623   0.00000  Uiso   1.00
H308   H     0.12488   0.79446   0.20630   0.00000  Uiso   1.00
H309   H     0.13059   0.67962   0.41070   0.00000  Uiso   1.00
H310   H     0.25179   0.60009   0.27289   0.00000  Uiso   1.00
H311   H     0.05748   0.89604   0.10478   0.00000  Uiso   1.00
H312   H     0.06954   0.65387   0.53576   0.00000  Uiso   1.00
H313   H     0.32511   0.48616   0.24517   0.00000  Uiso   1.00
O314   O     0.94923   0.90912   0.03930   0.00000  Uiso   1.00
O315   O     0.96505   0.59139   0.60473   0.00000  Uiso   1.00
O316   O     0.30035   0.37136   0.22348   0.00000  Uiso   1.00
N317   N     0.94180   0.79771   0.10781   0.00000  Uiso   1.00
N318   N     0.95306   0.57131   0.51074   0.00000  Uiso   1.00
N319   N     0.19200   0.41450   0.23908   0.00000  Uiso   1.00
N320   N     0.02699   0.85661   0.11436   0.00000  Uiso   1.00
N321   N     0.03826   0.63021   0.51729   0.00000  Uiso   1.00
N322   N     0.27719   0.47340   0.24563   0.00000  Uiso   1.00
C323   C     0.70307   0.12234   0.05989   0.00000  Uiso   1.00
C324   C     0.66641   0.11868   0.12199   0.00000  Uiso   1.00
C325   C     0.61622   0.07423   0.15175   0.00000  Uiso   1.00
C326   C     0.58899   0.07891   0.20824   0.00000  Uiso   1.00
C327   C     0.52870   0.06599   0.30077   0.00000  Uiso   1.00
C328   C     0.77780   0.11204   0.07245   0.00000  Uiso   1.00
C329   C     0.82127   0.06201   0.06053   0.00000  Uiso   1.00
C330   C     0.88782   0.06111   0.07532   0.00000  Uiso   1.00
C331   C     0.00048   0.03792   0.09088   0.00000  Uiso   1.00
C332   C     0.69303   0.19614   0.01774   0.00000  Uiso   1.00
C333   C     0.66525   0.21681   0.95982   0.00000  Uiso   1.00
C334   C     0.66044   0.28671   0.92854   0.00000  Uiso   1.00
C335   C     0.64149   0.39408   0.85916   0.00000  Uiso   1.00
C336   C     0.74395   0.20969   0.10732   0.00000  Uiso   1.00
C337   C     0.68862   0.16613   0.14775   0.00000  Uiso   1.00
C338   C     0.66145   0.17088   0.20422   0.00000  Uiso   1.00
C339   C     0.61123   0.12644   0.23405   0.00000  Uiso   1.00
C340   C     0.80001   0.15949   0.09821   0.00000  Uiso   1.00
C341   C     0.86650   0.15866   0.11301   0.00000  Uiso   1.00
C342   C     0.91006   0.10864   0.10112   0.00000  Uiso   1.00
C343   C     0.71524   0.24358   0.04350   0.00000  Uiso   1.00
C344   C     0.71047   0.31346   0.01230   0.00000  Uiso   1.00
C345   C     0.68268   0.33424   0.95434   0.00000  Uiso   1.00
H346   H     0.68579   0.08540   0.03984   0.00000  Uiso   1.00
H347   H     0.59906   0.03751   0.13180   0.00000  Uiso   1.00
H348   H     0.80408   0.02531   0.04059   0.00000  Uiso   1.00
H349   H     0.64807   0.18008   0.93990   0.00000  Uiso   1.00
H350   H     0.51271   0.00534   0.24512   0.00000  Uiso   1.00
H351   H     0.94501   0.97961   0.05280   0.00000  Uiso   1.00
H352   H     0.61604   0.30599   0.84046   0.00000  Uiso   1.00
H353   H     0.76124   0.24663   0.12738   0.00000  Uiso   1.00
H354   H     0.67865   0.20760   0.22414   0.00000  Uiso   1.00
H355   H     0.88367   0.19539   0.13294   0.00000  Uiso   1.00
H356   H     0.72766   0.35016   0.03225   0.00000  Uiso   1.00
H357   H     0.57730   0.14338   0.32008   0.00000  Uiso   1.00
H358   H     0.00961   0.11765   0.12775   0.00000  Uiso   1.00
H359   H     0.68064   0.44403   0.91542   0.00000  Uiso   1.00
O360   O     0.48932   0.04576   0.34469   0.00000  Uiso   1.00
O361   O     0.05649   0.01201   0.09235   0.00000  Uiso   1.00
O362   O     0.62489   0.44021   0.81378   0.00000  Uiso   1.00
N363   N     0.53923   0.04319   0.24948   0.00000  Uiso   1.00
N364   N     0.94341   0.01913   0.06967   0.00000  Uiso   1.00
N365   N     0.63587   0.32426   0.87115   0.00000  Uiso   1.00
N366   N     0.57399   0.11747   0.28981   0.00000  Uiso   1.00
N367   N     0.97817   0.09341   0.11001   0.00000  Uiso   1.00
N368   N     0.67063   0.39854   0.91148   0.00000  Uiso   1.00
C369   C     0.56214   0.75809   0.57581   0.00000  Uiso   1.00
C370   C     0.62647   0.71463   0.57366   0.00000  Uiso   1.00
C371   C     0.63679   0.66810   0.54110   0.00000  Uiso   1.00
C372   C     0.69916   0.63340   0.54504   0.00000  Uiso   1.00
C373   C     0.79142   0.56419   0.53631   0.00000  Uiso   1.00
C374   C     0.58287   0.83223   0.55369   0.00000  Uiso   1.00
C375   C     0.55653   0.88459   0.50434   0.00000  Uiso   1.00
C376   C     0.58219   0.94888   0.49147   0.00000  Uiso   1.00
C377   C     0.60672   0.06227   0.45176   0.00000  Uiso   1.00
C378   C     0.54040   0.74187   0.64456   0.00000  Uiso   1.00
C379   C     0.47835   0.71827   0.67163   0.00000  Uiso   1.00
C380   C     0.46825   0.70650   0.73528   0.00000  Uiso   1.00
C381   C     0.42685   0.67959   0.83667   0.00000  Uiso   1.00
C382   C     0.65453   0.77918   0.64072   0.00000  Uiso   1.00
C383   C     0.67665   0.72609   0.60891   0.00000  Uiso   1.00
C384   C     0.73901   0.69144   0.61290   0.00000  Uiso   1.00
C385   C     0.74943   0.64487   0.58036   0.00000  Uiso   1.00
C386   C     0.63305   0.84369   0.58894   0.00000  Uiso   1.00
C387   C     0.65874   0.90792   0.57615   0.00000  Uiso   1.00
C388   C     0.63246   0.96036   0.52679   0.00000  Uiso   1.00
C389   C     0.59058   0.75333   0.67982   0.00000  Uiso   1.00
C390   C     0.58057   0.74160   0.74344   0.00000  Uiso   1.00
C391   C     0.51852   0.71798   0.77059   0.00000  Uiso   1.00
H392   H     0.52307   0.74918   0.54837   0.00000  Uiso   1.00
H393   H     0.59795   0.65926   0.51382   0.00000  Uiso   1.00
H394   H     0.51769   0.87570   0.47707   0.00000  Uiso   1.00
H395   H     0.43953   0.70941   0.64433   0.00000  Uiso   1.00
H396   H     0.70310   0.56463   0.49104   0.00000  Uiso   1.00
H397   H     0.53386   0.02103   0.41357   0.00000  Uiso   1.00
H398   H     0.36904   0.67036   0.76628   0.00000  Uiso   1.00
H399   H     0.69359   0.78811   0.66816   0.00000  Uiso   1.00
H400   H     0.77783   0.70032   0.64019   0.00000  Uiso   1.00
H401   H     0.69757   0.91677   0.60344   0.00000  Uiso   1.00
H402   H     0.61941   0.75047   0.77070   0.00000  Uiso   1.00
H403   H     0.84910   0.59796   0.59360   0.00000  Uiso   1.00
H404   H     0.67986   0.05437   0.51614   0.00000  Uiso   1.00
H405   H     0.51504   0.70369   0.86885   0.00000  Uiso   1.00
O406   O     0.82845   0.52287   0.52174   0.00000  Uiso   1.00
O407   O     0.60640   0.12164   0.42011   0.00000  Uiso   1.00
O408   O     0.39016   0.66157   0.88286   0.00000  Uiso   1.00
N409   N     0.72590   0.58452   0.51903   0.00000  Uiso   1.00
N410   N     0.56767   0.01122   0.44659   0.00000  Uiso   1.00
N411   N     0.41357   0.68339   0.77634   0.00000  Uiso   1.00
N412   N     0.80446   0.60245   0.57422   0.00000  Uiso   1.00
N413   N     0.64624   0.02915   0.50178   0.00000  Uiso   1.00
N414   N     0.49213   0.70132   0.83153   0.00000  Uiso   1.00
C415   C     0.51914   0.26917   0.60907   0.00000  Uiso   1.00
C416   C     0.51663   0.22609   0.67776   0.00000  Uiso   1.00
C417   C     0.46750   0.18051   0.70792   0.00000  Uiso   1.00
C418   C     0.47420   0.14601   0.77092   0.00000  Uiso   1.00
C419   C     0.46208   0.07751   0.87277   0.00000  Uiso   1.00
C420   C     0.52152   0.34334   0.60749   0.00000  Uiso   1.00
C421   C     0.47650   0.39634   0.57857   0.00000  Uiso   1.00
C422   C     0.48731   0.46054   0.58241   0.00000  Uiso   1.00
C423   C     0.48281   0.57409   0.57513   0.00000  Uiso   1.00
C424   C     0.58730   0.25164   0.58188   0.00000  Uiso   1.00
C425   C     0.59759   0.22756   0.53141   0.00000  Uiso   1.00
C426   C     0.66379   0.21457   0.51368   0.00000  Uiso   1.00
C427   C     0.76141   0.18574   0.46662   0.00000  Uiso   1.00
C428   C     0.61841   0.28896   0.66731   0.00000  Uiso   1.00
C429   C     0.57055   0.23684   0.70939   0.00000  Uiso   1.00
C430   C     0.57733   0.20240   0.77235   0.00000  Uiso   1.00
C431   C     0.52821   0.15677   0.80261   0.00000  Uiso   1.00
C432   C     0.57544   0.35409   0.63912   0.00000  Uiso   1.00
C433   C     0.58633   0.41823   0.64300   0.00000  Uiso   1.00
C434   C     0.54133   0.47131   0.61410   0.00000  Uiso   1.00
C435   C     0.64122   0.26239   0.61351   0.00000  Uiso   1.00
C436   C     0.70741   0.24944   0.59584   0.00000  Uiso   1.00
C437   C     0.71780   0.22534   0.54536   0.00000  Uiso   1.00
H438   H     0.47716   0.26081   0.58444   0.00000  Uiso   1.00
H439   H     0.42578   0.17221   0.68343   0.00000  Uiso   1.00
H440   H     0.43478   0.38801   0.55409   0.00000  Uiso   1.00
H441   H     0.55585   0.21925   0.50694   0.00000  Uiso   1.00
H442   H     0.39257   0.07874   0.80713   0.00000  Uiso   1.00
H443   H     0.41157   0.53377   0.53439   0.00000  Uiso   1.00
H444   H     0.66686   0.17790   0.43497   0.00000  Uiso   1.00
H445   H     0.66039   0.29732   0.69193   0.00000  Uiso   1.00
H446   H     0.61906   0.21072   0.79682   0.00000  Uiso   1.00
H447   H     0.62806   0.42653   0.66748   0.00000  Uiso   1.00
H448   H     0.74913   0.25776   0.62033   0.00000  Uiso   1.00
H449   H     0.54944   0.11000   0.89916   0.00000  Uiso   1.00
H450   H     0.56844   0.56503   0.62642   0.00000  Uiso   1.00
H451   H     0.82374   0.20916   0.52700   0.00000  Uiso   1.00
O452   O     0.44050   0.03676   0.92021   0.00000  Uiso   1.00
O453   O     0.46543   0.63374   0.56237   0.00000  Uiso   1.00
O454   O     0.80037   0.16685   0.43194   0.00000  Uiso   1.00
N455   N     0.43517   0.09797   0.81439   0.00000  Uiso   1.00
N456   N     0.45292   0.52340   0.55941   0.00000  Uiso   1.00
N457   N     0.69161   0.19071   0.46644   0.00000  Uiso   1.00
N458   N     0.51958   0.11479   0.86391   0.00000  Uiso   1.00
N459   N     0.53733   0.54022   0.60893   0.00000  Uiso   1.00
N460   N     0.77602   0.20753   0.51597   0.00000  Uiso   1.00
C461   C     0.20394   0.07333   0.10260   0.00000  Uiso   1.00
C462   C     0.16647   0.14266   0.09107   0.00000  Uiso   1.00
C463   C     0.11753   0.16967   0.04807   0.00000  Uiso   1.00
C464   C     0.08926   0.23391   0.04459   0.00000  Uiso   1.00
C465   C     0.02806   0.33612   0.02086   0.00000  Uiso   1.00
C466   C     0.27860   0.08793   0.09311   0.00000  Uiso   1.00
C467   C     0.32394   0.06890   0.05184   0.00000  Uiso   1.00
C468   C     0.39006   0.08705   0.05010   0.00000  Uiso   1.00
C469   C     0.50296   0.10424   0.02958   0.00000  Uiso   1.00
C470   C     0.19198   0.03468   0.17178   0.00000  Uiso   1.00
C471   C     0.16452   0.97088   0.19666   0.00000  Uiso   1.00
C472   C     0.15773   0.94419   0.26115   0.00000  Uiso   1.00
C473   C     0.13615   0.87870   0.36278   0.00000  Uiso   1.00
C474   C     0.24075   0.13939   0.17290   0.00000  Uiso   1.00
C475   C     0.18646   0.17854   0.12925   0.00000  Uiso   1.00
C476   C     0.15826   0.24275   0.12585   0.00000  Uiso   1.00
C477   C     0.10929   0.26985   0.08285   0.00000  Uiso   1.00
C478   C     0.29859   0.12380   0.13130   0.00000  Uiso   1.00
C479   C     0.36467   0.14198   0.12962   0.00000  Uiso   1.00
C480   C     0.41010   0.12300   0.08835   0.00000  Uiso   1.00
C481   C     0.21198   0.07056   0.20997   0.00000  Uiso   1.00
C482   C     0.20524   0.04396   0.27444   0.00000  Uiso   1.00
C483   C     0.17777   0.98013   0.29941   0.00000  Uiso   1.00
H484   H     0.18838   0.04540   0.07287   0.00000  Uiso   1.00
H485   H     0.10208   0.14189   0.01852   0.00000  Uiso   1.00
H486   H     0.30845   0.04113   0.02230   0.00000  Uiso   1.00
H487   H     0.14905   0.94313   0.16709   0.00000  Uiso   1.00
H488   H     0.01523   0.26470   0.97509   0.00000  Uiso   1.00
H489   H     0.45039   0.05223   0.98307   0.00000  Uiso   1.00
H490   H     0.11427   0.84556   0.28840   0.00000  Uiso   1.00
H491   H     0.25632   0.16732   0.20263   0.00000  Uiso   1.00
H492   H     0.17374   0.27050   0.15540   0.00000  Uiso   1.00
H493   H     0.38012   0.16974   0.15918   0.00000  Uiso   1.00
H494   H     0.22072   0.07174   0.30397   0.00000  Uiso   1.00
H495   H     0.07340   0.36909   0.08619   0.00000  Uiso   1.00
H496   H     0.50856   0.15661   0.09417   0.00000  Uiso   1.00
H497   H     0.17243   0.94995   0.39950   0.00000  Uiso   1.00
O498   O     0.98878   0.38259   0.99721   0.00000  Uiso   1.00
O499   O     0.55970   0.10381   0.00770   0.00000  Uiso   1.00
O500   O     0.11871   0.83267   0.40828   0.00000  Uiso   1.00
N501   N     0.04024   0.27511   0.00773   0.00000  Uiso   1.00
N502   N     0.44709   0.07646   0.01518   0.00000  Uiso   1.00
N503   N     0.13286   0.88324   0.30064   0.00000  Uiso   1.00
N504   N     0.07154   0.33128   0.06751   0.00000  Uiso   1.00
N505   N     0.47839   0.13263   0.07496   0.00000  Uiso   1.00
N506   N     0.16416   0.93941   0.36042   0.00000  Uiso   1.00
C507   C     0.06122   0.61731   0.71027   0.00000  Uiso   1.00
C508   C     0.12609   0.61249   0.67194   0.00000  Uiso   1.00
C509   C     0.13781   0.57136   0.63426   0.00000  Uiso   1.00
C510   C     0.20045   0.57424   0.60302   0.00000  Uiso   1.00
C511   C     0.29372   0.56027   0.54257   0.00000  Uiso   1.00
C512   C     0.08135   0.60033   0.77735   0.00000  Uiso   1.00
C513   C     0.05546   0.54897   0.82830   0.00000  Uiso   1.00
C514   C     0.08044   0.54163   0.88580   0.00000  Uiso   1.00
C515   C     0.10423   0.50881   0.98902   0.00000  Uiso   1.00
C516   C     0.03816   0.69274   0.68943   0.00000  Uiso   1.00
C517   C     0.97594   0.71908   0.66646   0.00000  Uiso   1.00
C518   C     0.96456   0.78954   0.64995   0.00000  Uiso   1.00
C519   C     0.92128   0.90020   0.61665   0.00000  Uiso   1.00
C520   C     0.15162   0.69559   0.72180   0.00000  Uiso   1.00
C521   C     0.17519   0.65501   0.67820   0.00000  Uiso   1.00
C522   C     0.23783   0.65796   0.64701   0.00000  Uiso   1.00
C523   C     0.24965   0.61684   0.60928   0.00000  Uiso   1.00
C524   C     0.13045   0.64284   0.78361   0.00000  Uiso   1.00
C525   C     0.15548   0.63558   0.84105   0.00000  Uiso   1.00
C526   C     0.12963   0.58423   0.89207   0.00000  Uiso   1.00
C527   C     0.08726   0.73526   0.69569   0.00000  Uiso   1.00
C528   C     0.07597   0.80569   0.67921   0.00000  Uiso   1.00
C529   C     0.01375   0.83214   0.65622   0.00000  Uiso   1.00
H530   H     0.02299   0.58420   0.70540   0.00000  Uiso   1.00
H531   H     0.09980   0.53845   0.62943   0.00000  Uiso   1.00
H532   H     0.01746   0.51608   0.82344   0.00000  Uiso   1.00
H533   H     0.93796   0.68616   0.66163   0.00000  Uiso   1.00
H534   H     0.20662   0.50647   0.54798   0.00000  Uiso   1.00
H535   H     0.03299   0.45931   0.95707   0.00000  Uiso   1.00
H536   H     0.86534   0.81796   0.61585   0.00000  Uiso   1.00
H537   H     0.18985   0.72869   0.72667   0.00000  Uiso   1.00
H538   H     0.27582   0.69087   0.65186   0.00000  Uiso   1.00
H539   H     0.19347   0.66850   0.84588   0.00000  Uiso   1.00
H540   H     0.11398   0.83858   0.68406   0.00000  Uiso   1.00
H541   H     0.34949   0.63017   0.56618   0.00000  Uiso   1.00
H542   H     0.17584   0.58301   0.97528   0.00000  Uiso   1.00
H543   H     0.00821   0.94166   0.63406   0.00000  Uiso   1.00
O544   O     0.33161   0.54082   0.50750   0.00000  Uiso   1.00
O545   O     0.10379   0.47896   0.04422   0.00000  Uiso   1.00
O546   O     0.88385   0.94950   0.59654   0.00000  Uiso   1.00
N547   N     0.22844   0.54078   0.56252   0.00000  Uiso   1.00
N548   N     0.06611   0.49668   0.94500   0.00000  Uiso   1.00
N549   N     0.90937   0.83199   0.62600   0.00000  Uiso   1.00
N550   N     0.30532   0.60735   0.57231   0.00000  Uiso   1.00
N551   N     0.14298   0.56325   0.95479   0.00000  Uiso   1.00
N552   N     0.98624   0.89856   0.63580   0.00000  Uiso   1.00
