data_job_02720
_audit_creation_date              2018-12-19
_audit_creation_method            'Materials Studio'
_symmetry_space_group_name_H-M    'P1'
_symmetry_Int_Tables_number       1
_symmetry_cell_setting            triclinic
loop_
_symmetry_equiv_pos_as_xyz
  x,y,z
_cell_length_a                    12.3767
_cell_length_b                    15.1827
_cell_length_c                    16.5879
_cell_angle_alpha                 90.0000
_cell_angle_beta                  88.7441
_cell_angle_gamma                 90.0000
loop_
_atom_site_label
_atom_site_type_symbol
_atom_site_fract_x
_atom_site_fract_y
_atom_site_fract_z
_atom_site_U_iso_or_equiv
_atom_site_adp_type
_atom_site_occupancy
C1     C     0.09202   0.57306   0.74159   0.00000  Uiso   1.00
C2     C     0.00633   0.64092   0.76552   0.00000  Uiso   1.00
C3     C     0.90595   0.62255   0.80048   0.00000  Uiso   1.00
C4     C     0.83913   0.69382   0.81786   0.00000  Uiso   1.00
C5     C     0.70116   0.78603   0.85765   0.00000  Uiso   1.00
C6     C     0.19395   0.59938   0.78563   0.00000  Uiso   1.00
C7     C     0.25133   0.54606   0.83748   0.00000  Uiso   1.00
C8     C     0.34246   0.58236   0.87178   0.00000  Uiso   1.00
C9     C     0.49582   0.61005   0.94274   0.00000  Uiso   1.00
C10    C     0.11677   0.58803   0.65218   0.00000  Uiso   1.00
C11    C     0.10929   0.52516   0.59182   0.00000  Uiso   1.00
C12    C     0.13547   0.55190   0.51377   0.00000  Uiso   1.00
C13    C     0.16900   0.56197   0.37752   0.00000  Uiso   1.00
C14    C     0.15185   0.73232   0.71030   0.00000  Uiso   1.00
C15    C     0.03883   0.72743   0.74853   0.00000  Uiso   1.00
C16    C     0.97215   0.79875   0.76586   0.00000  Uiso   1.00
C17    C     0.87168   0.78048   0.80084   0.00000  Uiso   1.00
C18    C     0.22645   0.68588   0.76864   0.00000  Uiso   1.00
C19    C     0.31753   0.72226   0.80287   0.00000  Uiso   1.00
C20    C     0.37502   0.66902   0.85476   0.00000  Uiso   1.00
C21    C     0.14927   0.67453   0.63518   0.00000  Uiso   1.00
C22    C     0.17548   0.70137   0.55721   0.00000  Uiso   1.00
C23    C     0.16803   0.63856   0.49674   0.00000  Uiso   1.00
H24    H     0.06672   0.50572   0.75482   0.00000  Uiso   1.00
H25    H     0.88084   0.55559   0.81363   0.00000  Uiso   1.00
H26    H     0.22617   0.47912   0.85062   0.00000  Uiso   1.00
H27    H     0.08414   0.45823   0.60500   0.00000  Uiso   1.00
H28    H     0.68909   0.64904   0.87136   0.00000  Uiso   1.00
H29    H     0.41726   0.48778   0.94933   0.00000  Uiso   1.00
H30    H     0.11778   0.44373   0.43139   0.00000  Uiso   1.00
H31    H     0.17715   0.79967   0.69707   0.00000  Uiso   1.00
H32    H     0.99732   0.86568   0.75271   0.00000  Uiso   1.00
H33    H     0.34265   0.78921   0.78970   0.00000  Uiso   1.00
H34    H     0.20062   0.76832   0.54408   0.00000  Uiso   1.00
H35    H     0.78364   0.90072   0.82192   0.00000  Uiso   1.00
H36    H     0.51181   0.73946   0.89988   0.00000  Uiso   1.00
H37    H     0.21232   0.69541   0.38195   0.00000  Uiso   1.00
O38    O     0.61609   0.81300   0.88430   0.00000  Uiso   1.00
O39    O     0.57143   0.60142   0.98658   0.00000  Uiso   1.00
O40    O     0.17850   0.54363   0.30706   0.00000  Uiso   1.00
N41    N     0.73601   0.69921   0.85207   0.00000  Uiso   1.00
N42    N     0.41680   0.54845   0.92498   0.00000  Uiso   1.00
N43    N     0.13683   0.50726   0.44075   0.00000  Uiso   1.00
N44    N     0.78689   0.83464   0.82547   0.00000  Uiso   1.00
N45    N     0.46767   0.68387   0.89837   0.00000  Uiso   1.00
N46    N     0.18771   0.64268   0.41415   0.00000  Uiso   1.00
C47    C     0.90798   0.07306   0.75841   0.00000  Uiso   1.00
C48    C     0.99367   0.14092   0.73448   0.00000  Uiso   1.00
C49    C     0.09405   0.12255   0.69952   0.00000  Uiso   1.00
C50    C     0.16087   0.19382   0.68214   0.00000  Uiso   1.00
C51    C     0.29884   0.28603   0.64235   0.00000  Uiso   1.00
C52    C     0.80605   0.09938   0.71437   0.00000  Uiso   1.00
C53    C     0.74867   0.04606   0.66252   0.00000  Uiso   1.00
C54    C     0.65754   0.08236   0.62822   0.00000  Uiso   1.00
C55    C     0.50418   0.11005   0.55726   0.00000  Uiso   1.00
C56    C     0.88323   0.08803   0.84782   0.00000  Uiso   1.00
C57    C     0.89071   0.02516   0.90818   0.00000  Uiso   1.00
C58    C     0.86453   0.05190   0.98623   0.00000  Uiso   1.00
C59    C     0.83100   0.06197   0.12248   0.00000  Uiso   1.00
C60    C     0.84815   0.23232   0.78970   0.00000  Uiso   1.00
C61    C     0.96117   0.22743   0.75147   0.00000  Uiso   1.00
C62    C     0.02785   0.29875   0.73414   0.00000  Uiso   1.00
C63    C     0.12832   0.28048   0.69916   0.00000  Uiso   1.00
C64    C     0.77355   0.18588   0.73136   0.00000  Uiso   1.00
C65    C     0.68247   0.22226   0.69713   0.00000  Uiso   1.00
C66    C     0.62498   0.16902   0.64524   0.00000  Uiso   1.00
C67    C     0.85073   0.17453   0.86482   0.00000  Uiso   1.00
C68    C     0.82452   0.20137   0.94279   0.00000  Uiso   1.00
C69    C     0.83197   0.13856   0.00326   0.00000  Uiso   1.00
H70    H     0.93328   0.00572   0.74518   0.00000  Uiso   1.00
H71    H     0.11916   0.05559   0.68637   0.00000  Uiso   1.00
H72    H     0.77383   0.97912   0.64938   0.00000  Uiso   1.00
H73    H     0.91586   0.95823   0.89500   0.00000  Uiso   1.00
H74    H     0.31091   0.14904   0.62864   0.00000  Uiso   1.00
H75    H     0.58274   0.98778   0.55067   0.00000  Uiso   1.00
H76    H     0.88222   0.94373   0.06861   0.00000  Uiso   1.00
H77    H     0.82285   0.29967   0.80293   0.00000  Uiso   1.00
H78    H     0.00268   0.36568   0.74729   0.00000  Uiso   1.00
H79    H     0.65735   0.28921   0.71030   0.00000  Uiso   1.00
H80    H     0.79938   0.26832   0.95592   0.00000  Uiso   1.00
H81    H     0.21636   0.40072   0.67808   0.00000  Uiso   1.00
H82    H     0.48819   0.23946   0.60012   0.00000  Uiso   1.00
H83    H     0.78768   0.19541   0.11805   0.00000  Uiso   1.00
O84    O     0.38391   0.31300   0.61570   0.00000  Uiso   1.00
O85    O     0.42857   0.10142   0.51342   0.00000  Uiso   1.00
O86    O     0.82150   0.04363   0.19294   0.00000  Uiso   1.00
N87    N     0.26399   0.19921   0.64793   0.00000  Uiso   1.00
N88    N     0.58320   0.04845   0.57502   0.00000  Uiso   1.00
N89    N     0.86317   0.00726   0.05925   0.00000  Uiso   1.00
N90    N     0.21311   0.33464   0.67453   0.00000  Uiso   1.00
N91    N     0.53233   0.18387   0.60163   0.00000  Uiso   1.00
N92    N     0.81229   0.14268   0.08585   0.00000  Uiso   1.00
C93    C     0.90798   0.42694   0.25841   0.00000  Uiso   1.00
C94    C     0.99367   0.35908   0.23448   0.00000  Uiso   1.00
C95    C     0.09405   0.37745   0.19952   0.00000  Uiso   1.00
C96    C     0.16087   0.30618   0.18214   0.00000  Uiso   1.00
C97    C     0.29884   0.21397   0.14235   0.00000  Uiso   1.00
C98    C     0.80605   0.40062   0.21437   0.00000  Uiso   1.00
C99    C     0.74867   0.45394   0.16252   0.00000  Uiso   1.00
C100   C     0.65754   0.41764   0.12822   0.00000  Uiso   1.00
C101   C     0.50418   0.38995   0.05726   0.00000  Uiso   1.00
C102   C     0.88323   0.41197   0.34782   0.00000  Uiso   1.00
C103   C     0.89071   0.47484   0.40818   0.00000  Uiso   1.00
C104   C     0.86453   0.44810   0.48623   0.00000  Uiso   1.00
C105   C     0.83100   0.43803   0.62248   0.00000  Uiso   1.00
C106   C     0.84815   0.26768   0.28970   0.00000  Uiso   1.00
C107   C     0.96117   0.27257   0.25147   0.00000  Uiso   1.00
C108   C     0.02785   0.20125   0.23414   0.00000  Uiso   1.00
C109   C     0.12832   0.21952   0.19916   0.00000  Uiso   1.00
C110   C     0.77355   0.31412   0.23136   0.00000  Uiso   1.00
C111   C     0.68247   0.27774   0.19713   0.00000  Uiso   1.00
C112   C     0.62498   0.33098   0.14524   0.00000  Uiso   1.00
C113   C     0.85073   0.32547   0.36482   0.00000  Uiso   1.00
C114   C     0.82452   0.29863   0.44279   0.00000  Uiso   1.00
C115   C     0.83197   0.36144   0.50326   0.00000  Uiso   1.00
H116   H     0.93328   0.49428   0.24518   0.00000  Uiso   1.00
H117   H     0.11916   0.44441   0.18637   0.00000  Uiso   1.00
H118   H     0.77383   0.52088   0.14938   0.00000  Uiso   1.00
H119   H     0.91586   0.54177   0.39500   0.00000  Uiso   1.00
H120   H     0.31091   0.35096   0.12864   0.00000  Uiso   1.00
H121   H     0.58274   0.51222   0.05067   0.00000  Uiso   1.00
H122   H     0.88222   0.55627   0.56861   0.00000  Uiso   1.00
H123   H     0.82285   0.20033   0.30293   0.00000  Uiso   1.00
H124   H     0.00268   0.13432   0.24729   0.00000  Uiso   1.00
H125   H     0.65735   0.21079   0.21030   0.00000  Uiso   1.00
H126   H     0.79938   0.23168   0.45592   0.00000  Uiso   1.00
H127   H     0.21636   0.09928   0.17808   0.00000  Uiso   1.00
H128   H     0.48819   0.26054   0.10012   0.00000  Uiso   1.00
H129   H     0.78768   0.30459   0.61805   0.00000  Uiso   1.00
O130   O     0.38391   0.18700   0.11570   0.00000  Uiso   1.00
O131   O     0.42857   0.39858   0.01342   0.00000  Uiso   1.00
O132   O     0.82150   0.45637   0.69294   0.00000  Uiso   1.00
N133   N     0.26399   0.30079   0.14793   0.00000  Uiso   1.00
N134   N     0.58320   0.45155   0.07502   0.00000  Uiso   1.00
N135   N     0.86317   0.49274   0.55925   0.00000  Uiso   1.00
N136   N     0.21311   0.16536   0.17453   0.00000  Uiso   1.00
N137   N     0.53233   0.31613   0.10163   0.00000  Uiso   1.00
N138   N     0.81229   0.35732   0.58585   0.00000  Uiso   1.00
C139   C     0.09202   0.92694   0.24159   0.00000  Uiso   1.00
C140   C     0.00633   0.85908   0.26552   0.00000  Uiso   1.00
C141   C     0.90595   0.87745   0.30048   0.00000  Uiso   1.00
C142   C     0.83913   0.80618   0.31786   0.00000  Uiso   1.00
C143   C     0.70116   0.71397   0.35765   0.00000  Uiso   1.00
C144   C     0.19395   0.90062   0.28563   0.00000  Uiso   1.00
C145   C     0.25133   0.95394   0.33748   0.00000  Uiso   1.00
C146   C     0.34246   0.91764   0.37178   0.00000  Uiso   1.00
C147   C     0.49582   0.88995   0.44274   0.00000  Uiso   1.00
C148   C     0.11677   0.91197   0.15218   0.00000  Uiso   1.00
C149   C     0.10929   0.97484   0.09182   0.00000  Uiso   1.00
C150   C     0.13547   0.94810   0.01377   0.00000  Uiso   1.00
C151   C     0.16900   0.93803   0.87752   0.00000  Uiso   1.00
C152   C     0.15185   0.76768   0.21030   0.00000  Uiso   1.00
C153   C     0.03883   0.77257   0.24853   0.00000  Uiso   1.00
C154   C     0.97215   0.70125   0.26586   0.00000  Uiso   1.00
C155   C     0.87168   0.71952   0.30084   0.00000  Uiso   1.00
C156   C     0.22645   0.81412   0.26864   0.00000  Uiso   1.00
C157   C     0.31753   0.77774   0.30287   0.00000  Uiso   1.00
C158   C     0.37502   0.83098   0.35476   0.00000  Uiso   1.00
C159   C     0.14927   0.82547   0.13518   0.00000  Uiso   1.00
C160   C     0.17548   0.79863   0.05721   0.00000  Uiso   1.00
C161   C     0.16803   0.86144   0.99674   0.00000  Uiso   1.00
H162   H     0.06672   0.99428   0.25482   0.00000  Uiso   1.00
H163   H     0.88084   0.94441   0.31363   0.00000  Uiso   1.00
H164   H     0.22617   0.02088   0.35062   0.00000  Uiso   1.00
H165   H     0.08414   0.04177   0.10500   0.00000  Uiso   1.00
H166   H     0.68909   0.85096   0.37136   0.00000  Uiso   1.00
H167   H     0.41726   0.01222   0.44933   0.00000  Uiso   1.00
H168   H     0.11778   0.05627   0.93139   0.00000  Uiso   1.00
H169   H     0.17715   0.70033   0.19707   0.00000  Uiso   1.00
H170   H     0.99732   0.63432   0.25271   0.00000  Uiso   1.00
H171   H     0.34265   0.71079   0.28970   0.00000  Uiso   1.00
H172   H     0.20062   0.73168   0.04408   0.00000  Uiso   1.00
H173   H     0.78364   0.59928   0.32192   0.00000  Uiso   1.00
H174   H     0.51181   0.76054   0.39988   0.00000  Uiso   1.00
H175   H     0.21232   0.80459   0.88195   0.00000  Uiso   1.00
O176   O     0.61609   0.68700   0.38430   0.00000  Uiso   1.00
O177   O     0.57143   0.89858   0.48658   0.00000  Uiso   1.00
O178   O     0.17850   0.95637   0.80706   0.00000  Uiso   1.00
N179   N     0.73601   0.80079   0.35207   0.00000  Uiso   1.00
N180   N     0.41680   0.95155   0.42498   0.00000  Uiso   1.00
N181   N     0.13683   0.99274   0.94075   0.00000  Uiso   1.00
N182   N     0.78689   0.66536   0.32547   0.00000  Uiso   1.00
N183   N     0.46767   0.81613   0.39837   0.00000  Uiso   1.00
N184   N     0.18771   0.85732   0.91415   0.00000  Uiso   1.00
