data_job_03631
_audit_creation_date              2018-12-19
_audit_creation_method            'Materials Studio'
_symmetry_space_group_name_H-M    'P1'
_symmetry_Int_Tables_number       1
_symmetry_cell_setting            triclinic
loop_
_symmetry_equiv_pos_as_xyz
  x,y,z
_cell_length_a                    12.6818
_cell_length_b                    42.4003
_cell_length_c                    12.0053
_cell_angle_alpha                 90.0000
_cell_angle_beta                  90.0000
_cell_angle_gamma                 90.0000
loop_
_atom_site_label
_atom_site_type_symbol
_atom_site_fract_x
_atom_site_fract_y
_atom_site_fract_z
_atom_site_U_iso_or_equiv
_atom_site_adp_type
_atom_site_occupancy
C1     C     0.50646   0.60941   0.63124   0.00000  Uiso   1.00
C2     C     0.46838   0.58630   0.71986   0.00000  Uiso   1.00
C3     C     0.51162   0.58257   0.82523   0.00000  Uiso   1.00
C4     C     0.46546   0.56017   0.89404   0.00000  Uiso   1.00
C5     C     0.41949   0.52701   0.03701   0.00000  Uiso   1.00
C6     C     0.53099   0.58963   0.52837   0.00000  Uiso   1.00
C7     C     0.62686   0.58871   0.47272   0.00000  Uiso   1.00
C8     C     0.63340   0.56911   0.38033   0.00000  Uiso   1.00
C9     C     0.68460   0.54114   0.22595   0.00000  Uiso   1.00
C10    C     0.41116   0.62958   0.60083   0.00000  Uiso   1.00
C11    C     0.40629   0.66225   0.60609   0.00000  Uiso   1.00
C12    C     0.31194   0.67628   0.57469   0.00000  Uiso   1.00
C13    C     0.17710   0.71034   0.53283   0.00000  Uiso   1.00
C14    C     0.34759   0.57626   0.56608   0.00000  Uiso   1.00
C15    C     0.38209   0.56829   0.68446   0.00000  Uiso   1.00
C16    C     0.33585   0.54589   0.75313   0.00000  Uiso   1.00
C17    C     0.37901   0.54213   0.85859   0.00000  Uiso   1.00
C18    C     0.44470   0.57162   0.49297   0.00000  Uiso   1.00
C19    C     0.45109   0.55203   0.40063   0.00000  Uiso   1.00
C20    C     0.54695   0.55107   0.34487   0.00000  Uiso   1.00
C21    C     0.32486   0.61157   0.56544   0.00000  Uiso   1.00
C22    C     0.23051   0.62556   0.53401   0.00000  Uiso   1.00
C23    C     0.22550   0.65824   0.53923   0.00000  Uiso   1.00
H24    H     0.57365   0.62343   0.65879   0.00000  Uiso   1.00
H25    H     0.57841   0.59651   0.85258   0.00000  Uiso   1.00
H26    H     0.69362   0.60265   0.50013   0.00000  Uiso   1.00
H27    H     0.47308   0.67617   0.63349   0.00000  Uiso   1.00
H28    H     0.54565   0.55871   0.05182   0.00000  Uiso   1.00
H29    H     0.78858   0.57167   0.30862   0.00000  Uiso   1.00
H30    H     0.32353   0.72671   0.58983   0.00000  Uiso   1.00
H31    H     0.28041   0.56224   0.53852   0.00000  Uiso   1.00
H32    H     0.26907   0.53195   0.72572   0.00000  Uiso   1.00
H33    H     0.38430   0.53809   0.37326   0.00000  Uiso   1.00
H34    H     0.16375   0.61162   0.50662   0.00000  Uiso   1.00
H35    H     0.29459   0.50631   0.94885   0.00000  Uiso   1.00
H36    H     0.53752   0.51927   0.20565   0.00000  Uiso   1.00
H37    H     0.07247   0.67431   0.48687   0.00000  Uiso   1.00
O38    O     0.41798   0.51369   0.12563   0.00000  Uiso   1.00
O39    O     0.73669   0.53069   0.15058   0.00000  Uiso   1.00
O40    O     0.12655   0.73410   0.51953   0.00000  Uiso   1.00
N41    N     0.48811   0.55054   0.00190   0.00000  Uiso   1.00
N42    N     0.71524   0.56265   0.30707   0.00000  Uiso   1.00
N43    N     0.28046   0.70760   0.56995   0.00000  Uiso   1.00
N44    N     0.35301   0.52235   0.94649   0.00000  Uiso   1.00
N45    N     0.58014   0.53445   0.25166   0.00000  Uiso   1.00
N46    N     0.14537   0.67940   0.51454   0.00000  Uiso   1.00
C47    C     0.99354   0.89059   0.63124   0.00000  Uiso   1.00
C48    C     0.03162   0.91370   0.71986   0.00000  Uiso   1.00
C49    C     0.98838   0.91743   0.82523   0.00000  Uiso   1.00
C50    C     0.03454   0.93983   0.89404   0.00000  Uiso   1.00
C51    C     0.08051   0.97299   0.03701   0.00000  Uiso   1.00
C52    C     0.96901   0.91037   0.52837   0.00000  Uiso   1.00
C53    C     0.87314   0.91129   0.47272   0.00000  Uiso   1.00
C54    C     0.86660   0.93089   0.38033   0.00000  Uiso   1.00
C55    C     0.81540   0.95886   0.22595   0.00000  Uiso   1.00
C56    C     0.08884   0.87042   0.60083   0.00000  Uiso   1.00
C57    C     0.09371   0.83775   0.60609   0.00000  Uiso   1.00
C58    C     0.18806   0.82372   0.57469   0.00000  Uiso   1.00
C59    C     0.32290   0.78966   0.53283   0.00000  Uiso   1.00
C60    C     0.15241   0.92374   0.56608   0.00000  Uiso   1.00
C61    C     0.11791   0.93171   0.68446   0.00000  Uiso   1.00
C62    C     0.16415   0.95411   0.75313   0.00000  Uiso   1.00
C63    C     0.12099   0.95787   0.85859   0.00000  Uiso   1.00
C64    C     0.05530   0.92838   0.49297   0.00000  Uiso   1.00
C65    C     0.04891   0.94797   0.40063   0.00000  Uiso   1.00
C66    C     0.95305   0.94893   0.34487   0.00000  Uiso   1.00
C67    C     0.17514   0.88843   0.56544   0.00000  Uiso   1.00
C68    C     0.26949   0.87444   0.53401   0.00000  Uiso   1.00
C69    C     0.27450   0.84176   0.53923   0.00000  Uiso   1.00
H70    H     0.92635   0.87657   0.65879   0.00000  Uiso   1.00
H71    H     0.92159   0.90349   0.85258   0.00000  Uiso   1.00
H72    H     0.80638   0.89735   0.50013   0.00000  Uiso   1.00
H73    H     0.02692   0.82383   0.63349   0.00000  Uiso   1.00
H74    H     0.95435   0.94129   0.05182   0.00000  Uiso   1.00
H75    H     0.71142   0.92833   0.30862   0.00000  Uiso   1.00
H76    H     0.17647   0.77329   0.58983   0.00000  Uiso   1.00
H77    H     0.21959   0.93776   0.53852   0.00000  Uiso   1.00
H78    H     0.23093   0.96805   0.72572   0.00000  Uiso   1.00
H79    H     0.11570   0.96191   0.37326   0.00000  Uiso   1.00
H80    H     0.33625   0.88838   0.50662   0.00000  Uiso   1.00
H81    H     0.20541   0.99369   0.94885   0.00000  Uiso   1.00
H82    H     0.96248   0.98073   0.20565   0.00000  Uiso   1.00
H83    H     0.42753   0.82569   0.48687   0.00000  Uiso   1.00
O84    O     0.08202   0.98631   0.12563   0.00000  Uiso   1.00
O85    O     0.76331   0.96931   0.15058   0.00000  Uiso   1.00
O86    O     0.37345   0.76590   0.51953   0.00000  Uiso   1.00
N87    N     0.01189   0.94946   0.00190   0.00000  Uiso   1.00
N88    N     0.78476   0.93735   0.30707   0.00000  Uiso   1.00
N89    N     0.21954   0.79240   0.56995   0.00000  Uiso   1.00
N90    N     0.14699   0.97765   0.94649   0.00000  Uiso   1.00
N91    N     0.91986   0.96555   0.25166   0.00000  Uiso   1.00
N92    N     0.35463   0.82060   0.51454   0.00000  Uiso   1.00
C93    C     0.49354   0.10941   0.86876   0.00000  Uiso   1.00
C94    C     0.53162   0.08630   0.78014   0.00000  Uiso   1.00
C95    C     0.48838   0.08257   0.67477   0.00000  Uiso   1.00
C96    C     0.53454   0.06017   0.60596   0.00000  Uiso   1.00
C97    C     0.58051   0.02701   0.46299   0.00000  Uiso   1.00
C98    C     0.46901   0.08963   0.97163   0.00000  Uiso   1.00
C99    C     0.37314   0.08871   0.02728   0.00000  Uiso   1.00
C100   C     0.36660   0.06911   0.11967   0.00000  Uiso   1.00
C101   C     0.31540   0.04114   0.27405   0.00000  Uiso   1.00
C102   C     0.58884   0.12958   0.89917   0.00000  Uiso   1.00
C103   C     0.59371   0.16225   0.89391   0.00000  Uiso   1.00
C104   C     0.68806   0.17628   0.92531   0.00000  Uiso   1.00
C105   C     0.82290   0.21034   0.96717   0.00000  Uiso   1.00
C106   C     0.65241   0.07626   0.93392   0.00000  Uiso   1.00
C107   C     0.61791   0.06829   0.81554   0.00000  Uiso   1.00
C108   C     0.66415   0.04589   0.74687   0.00000  Uiso   1.00
C109   C     0.62099   0.04213   0.64141   0.00000  Uiso   1.00
C110   C     0.55530   0.07162   0.00703   0.00000  Uiso   1.00
C111   C     0.54891   0.05203   0.09937   0.00000  Uiso   1.00
C112   C     0.45305   0.05107   0.15513   0.00000  Uiso   1.00
C113   C     0.67514   0.11157   0.93456   0.00000  Uiso   1.00
C114   C     0.76949   0.12556   0.96599   0.00000  Uiso   1.00
C115   C     0.77450   0.15824   0.96077   0.00000  Uiso   1.00
H116   H     0.42635   0.12343   0.84121   0.00000  Uiso   1.00
H117   H     0.42159   0.09651   0.64742   0.00000  Uiso   1.00
H118   H     0.30638   0.10265   0.99987   0.00000  Uiso   1.00
H119   H     0.52692   0.17617   0.86651   0.00000  Uiso   1.00
H120   H     0.45435   0.05871   0.44818   0.00000  Uiso   1.00
H121   H     0.21142   0.07167   0.19138   0.00000  Uiso   1.00
H122   H     0.67647   0.22671   0.91017   0.00000  Uiso   1.00
H123   H     0.71959   0.06224   0.96148   0.00000  Uiso   1.00
H124   H     0.73093   0.03195   0.77428   0.00000  Uiso   1.00
H125   H     0.61570   0.03809   0.12674   0.00000  Uiso   1.00
H126   H     0.83625   0.11162   0.99338   0.00000  Uiso   1.00
H127   H     0.70541   0.00631   0.55115   0.00000  Uiso   1.00
H128   H     0.46248   0.01927   0.29435   0.00000  Uiso   1.00
H129   H     0.92753   0.17431   0.01313   0.00000  Uiso   1.00
O130   O     0.58202   0.01369   0.37437   0.00000  Uiso   1.00
O131   O     0.26331   0.03069   0.34942   0.00000  Uiso   1.00
O132   O     0.87345   0.23410   0.98047   0.00000  Uiso   1.00
N133   N     0.51189   0.05054   0.49810   0.00000  Uiso   1.00
N134   N     0.28476   0.06265   0.19293   0.00000  Uiso   1.00
N135   N     0.71954   0.20760   0.93005   0.00000  Uiso   1.00
N136   N     0.64699   0.02235   0.55351   0.00000  Uiso   1.00
N137   N     0.41986   0.03445   0.24834   0.00000  Uiso   1.00
N138   N     0.85463   0.17940   0.98546   0.00000  Uiso   1.00
C139   C     0.00646   0.39059   0.86876   0.00000  Uiso   1.00
C140   C     0.96838   0.41370   0.78014   0.00000  Uiso   1.00
C141   C     0.01162   0.41743   0.67477   0.00000  Uiso   1.00
C142   C     0.96546   0.43983   0.60596   0.00000  Uiso   1.00
C143   C     0.91949   0.47299   0.46299   0.00000  Uiso   1.00
C144   C     0.03099   0.41037   0.97163   0.00000  Uiso   1.00
C145   C     0.12686   0.41129   0.02728   0.00000  Uiso   1.00
C146   C     0.13340   0.43089   0.11967   0.00000  Uiso   1.00
C147   C     0.18460   0.45886   0.27405   0.00000  Uiso   1.00
C148   C     0.91116   0.37042   0.89917   0.00000  Uiso   1.00
C149   C     0.90629   0.33775   0.89391   0.00000  Uiso   1.00
C150   C     0.81194   0.32372   0.92531   0.00000  Uiso   1.00
C151   C     0.67710   0.28966   0.96717   0.00000  Uiso   1.00
C152   C     0.84759   0.42374   0.93392   0.00000  Uiso   1.00
C153   C     0.88209   0.43171   0.81554   0.00000  Uiso   1.00
C154   C     0.83585   0.45411   0.74687   0.00000  Uiso   1.00
C155   C     0.87901   0.45787   0.64141   0.00000  Uiso   1.00
C156   C     0.94470   0.42838   0.00703   0.00000  Uiso   1.00
C157   C     0.95109   0.44797   0.09937   0.00000  Uiso   1.00
C158   C     0.04695   0.44893   0.15513   0.00000  Uiso   1.00
C159   C     0.82486   0.38843   0.93456   0.00000  Uiso   1.00
C160   C     0.73051   0.37444   0.96599   0.00000  Uiso   1.00
C161   C     0.72550   0.34176   0.96077   0.00000  Uiso   1.00
H162   H     0.07365   0.37657   0.84121   0.00000  Uiso   1.00
H163   H     0.07841   0.40349   0.64742   0.00000  Uiso   1.00
H164   H     0.19362   0.39735   0.99987   0.00000  Uiso   1.00
H165   H     0.97308   0.32383   0.86651   0.00000  Uiso   1.00
H166   H     0.04565   0.44129   0.44818   0.00000  Uiso   1.00
H167   H     0.28858   0.42833   0.19138   0.00000  Uiso   1.00
H168   H     0.82353   0.27329   0.91017   0.00000  Uiso   1.00
H169   H     0.78041   0.43776   0.96148   0.00000  Uiso   1.00
H170   H     0.76907   0.46805   0.77428   0.00000  Uiso   1.00
H171   H     0.88430   0.46191   0.12674   0.00000  Uiso   1.00
H172   H     0.66375   0.38838   0.99338   0.00000  Uiso   1.00
H173   H     0.79459   0.49369   0.55115   0.00000  Uiso   1.00
H174   H     0.03752   0.48073   0.29435   0.00000  Uiso   1.00
H175   H     0.57247   0.32569   0.01313   0.00000  Uiso   1.00
O176   O     0.91798   0.48631   0.37437   0.00000  Uiso   1.00
O177   O     0.23669   0.46931   0.34942   0.00000  Uiso   1.00
O178   O     0.62655   0.26590   0.98047   0.00000  Uiso   1.00
N179   N     0.98811   0.44946   0.49810   0.00000  Uiso   1.00
N180   N     0.21524   0.43735   0.19293   0.00000  Uiso   1.00
N181   N     0.78046   0.29240   0.93005   0.00000  Uiso   1.00
N182   N     0.85301   0.47765   0.55351   0.00000  Uiso   1.00
N183   N     0.08014   0.46555   0.24834   0.00000  Uiso   1.00
N184   N     0.64537   0.32060   0.98546   0.00000  Uiso   1.00
C185   C     0.49354   0.39059   0.36876   0.00000  Uiso   1.00
C186   C     0.53162   0.41370   0.28014   0.00000  Uiso   1.00
C187   C     0.48838   0.41743   0.17477   0.00000  Uiso   1.00
C188   C     0.53454   0.43983   0.10596   0.00000  Uiso   1.00
C189   C     0.58051   0.47299   0.96299   0.00000  Uiso   1.00
C190   C     0.46901   0.41037   0.47163   0.00000  Uiso   1.00
C191   C     0.37314   0.41129   0.52728   0.00000  Uiso   1.00
C192   C     0.36660   0.43089   0.61967   0.00000  Uiso   1.00
C193   C     0.31540   0.45886   0.77405   0.00000  Uiso   1.00
C194   C     0.58884   0.37042   0.39917   0.00000  Uiso   1.00
C195   C     0.59371   0.33775   0.39391   0.00000  Uiso   1.00
C196   C     0.68806   0.32372   0.42531   0.00000  Uiso   1.00
C197   C     0.82290   0.28966   0.46717   0.00000  Uiso   1.00
C198   C     0.65241   0.42374   0.43392   0.00000  Uiso   1.00
C199   C     0.61791   0.43171   0.31554   0.00000  Uiso   1.00
C200   C     0.66415   0.45411   0.24687   0.00000  Uiso   1.00
C201   C     0.62099   0.45787   0.14141   0.00000  Uiso   1.00
C202   C     0.55530   0.42838   0.50703   0.00000  Uiso   1.00
C203   C     0.54891   0.44797   0.59937   0.00000  Uiso   1.00
C204   C     0.45305   0.44893   0.65513   0.00000  Uiso   1.00
C205   C     0.67514   0.38843   0.43456   0.00000  Uiso   1.00
C206   C     0.76949   0.37444   0.46599   0.00000  Uiso   1.00
C207   C     0.77450   0.34176   0.46077   0.00000  Uiso   1.00
H208   H     0.42635   0.37657   0.34121   0.00000  Uiso   1.00
H209   H     0.42159   0.40349   0.14742   0.00000  Uiso   1.00
H210   H     0.30638   0.39735   0.49987   0.00000  Uiso   1.00
H211   H     0.52692   0.32383   0.36651   0.00000  Uiso   1.00
H212   H     0.45435   0.44129   0.94818   0.00000  Uiso   1.00
H213   H     0.21142   0.42833   0.69138   0.00000  Uiso   1.00
H214   H     0.67647   0.27329   0.41017   0.00000  Uiso   1.00
H215   H     0.71959   0.43776   0.46148   0.00000  Uiso   1.00
H216   H     0.73093   0.46805   0.27428   0.00000  Uiso   1.00
H217   H     0.61570   0.46191   0.62674   0.00000  Uiso   1.00
H218   H     0.83625   0.38838   0.49338   0.00000  Uiso   1.00
H219   H     0.70541   0.49369   0.05115   0.00000  Uiso   1.00
H220   H     0.46248   0.48073   0.79435   0.00000  Uiso   1.00
H221   H     0.92753   0.32569   0.51313   0.00000  Uiso   1.00
O222   O     0.58202   0.48631   0.87437   0.00000  Uiso   1.00
O223   O     0.26331   0.46931   0.84942   0.00000  Uiso   1.00
O224   O     0.87345   0.26590   0.48047   0.00000  Uiso   1.00
N225   N     0.51189   0.44946   0.99810   0.00000  Uiso   1.00
N226   N     0.28476   0.43735   0.69293   0.00000  Uiso   1.00
N227   N     0.71954   0.29240   0.43005   0.00000  Uiso   1.00
N228   N     0.64699   0.47765   0.05351   0.00000  Uiso   1.00
N229   N     0.41986   0.46555   0.74834   0.00000  Uiso   1.00
N230   N     0.85463   0.32060   0.48546   0.00000  Uiso   1.00
C231   C     0.00646   0.10941   0.36876   0.00000  Uiso   1.00
C232   C     0.96838   0.08630   0.28014   0.00000  Uiso   1.00
C233   C     0.01162   0.08257   0.17477   0.00000  Uiso   1.00
C234   C     0.96546   0.06017   0.10596   0.00000  Uiso   1.00
C235   C     0.91949   0.02701   0.96299   0.00000  Uiso   1.00
C236   C     0.03099   0.08963   0.47163   0.00000  Uiso   1.00
C237   C     0.12686   0.08871   0.52728   0.00000  Uiso   1.00
C238   C     0.13340   0.06911   0.61967   0.00000  Uiso   1.00
C239   C     0.18460   0.04114   0.77405   0.00000  Uiso   1.00
C240   C     0.91116   0.12958   0.39917   0.00000  Uiso   1.00
C241   C     0.90629   0.16225   0.39391   0.00000  Uiso   1.00
C242   C     0.81194   0.17628   0.42531   0.00000  Uiso   1.00
C243   C     0.67710   0.21034   0.46717   0.00000  Uiso   1.00
C244   C     0.84759   0.07626   0.43392   0.00000  Uiso   1.00
C245   C     0.88209   0.06829   0.31554   0.00000  Uiso   1.00
C246   C     0.83585   0.04589   0.24687   0.00000  Uiso   1.00
C247   C     0.87901   0.04213   0.14141   0.00000  Uiso   1.00
C248   C     0.94470   0.07162   0.50703   0.00000  Uiso   1.00
C249   C     0.95109   0.05203   0.59937   0.00000  Uiso   1.00
C250   C     0.04695   0.05107   0.65513   0.00000  Uiso   1.00
C251   C     0.82486   0.11157   0.43456   0.00000  Uiso   1.00
C252   C     0.73051   0.12556   0.46599   0.00000  Uiso   1.00
C253   C     0.72550   0.15824   0.46077   0.00000  Uiso   1.00
H254   H     0.07365   0.12343   0.34121   0.00000  Uiso   1.00
H255   H     0.07841   0.09651   0.14742   0.00000  Uiso   1.00
H256   H     0.19362   0.10265   0.49987   0.00000  Uiso   1.00
H257   H     0.97308   0.17617   0.36651   0.00000  Uiso   1.00
H258   H     0.04565   0.05871   0.94818   0.00000  Uiso   1.00
H259   H     0.28858   0.07167   0.69138   0.00000  Uiso   1.00
H260   H     0.82353   0.22671   0.41017   0.00000  Uiso   1.00
H261   H     0.78041   0.06224   0.46148   0.00000  Uiso   1.00
H262   H     0.76907   0.03195   0.27428   0.00000  Uiso   1.00
H263   H     0.88430   0.03809   0.62674   0.00000  Uiso   1.00
H264   H     0.66375   0.11162   0.49338   0.00000  Uiso   1.00
H265   H     0.79459   0.00631   0.05115   0.00000  Uiso   1.00
H266   H     0.03752   0.01927   0.79435   0.00000  Uiso   1.00
H267   H     0.57247   0.17431   0.51313   0.00000  Uiso   1.00
O268   O     0.91798   0.01369   0.87437   0.00000  Uiso   1.00
O269   O     0.23669   0.03069   0.84942   0.00000  Uiso   1.00
O270   O     0.62655   0.23410   0.48047   0.00000  Uiso   1.00
N271   N     0.98811   0.05054   0.99810   0.00000  Uiso   1.00
N272   N     0.21524   0.06265   0.69293   0.00000  Uiso   1.00
N273   N     0.78046   0.20760   0.43005   0.00000  Uiso   1.00
N274   N     0.85301   0.02235   0.05351   0.00000  Uiso   1.00
N275   N     0.08014   0.03445   0.74834   0.00000  Uiso   1.00
N276   N     0.64537   0.17940   0.48546   0.00000  Uiso   1.00
C277   C     0.50646   0.89059   0.13124   0.00000  Uiso   1.00
C278   C     0.46838   0.91370   0.21986   0.00000  Uiso   1.00
C279   C     0.51162   0.91743   0.32523   0.00000  Uiso   1.00
C280   C     0.46546   0.93983   0.39404   0.00000  Uiso   1.00
C281   C     0.41949   0.97299   0.53701   0.00000  Uiso   1.00
C282   C     0.53099   0.91037   0.02837   0.00000  Uiso   1.00
C283   C     0.62686   0.91129   0.97272   0.00000  Uiso   1.00
C284   C     0.63340   0.93089   0.88033   0.00000  Uiso   1.00
C285   C     0.68460   0.95886   0.72595   0.00000  Uiso   1.00
C286   C     0.41116   0.87042   0.10083   0.00000  Uiso   1.00
C287   C     0.40629   0.83775   0.10609   0.00000  Uiso   1.00
C288   C     0.31194   0.82372   0.07469   0.00000  Uiso   1.00
C289   C     0.17710   0.78966   0.03283   0.00000  Uiso   1.00
C290   C     0.34759   0.92374   0.06608   0.00000  Uiso   1.00
C291   C     0.38209   0.93171   0.18446   0.00000  Uiso   1.00
C292   C     0.33585   0.95411   0.25313   0.00000  Uiso   1.00
C293   C     0.37901   0.95787   0.35859   0.00000  Uiso   1.00
C294   C     0.44470   0.92838   0.99297   0.00000  Uiso   1.00
C295   C     0.45109   0.94797   0.90063   0.00000  Uiso   1.00
C296   C     0.54695   0.94893   0.84487   0.00000  Uiso   1.00
C297   C     0.32486   0.88843   0.06544   0.00000  Uiso   1.00
C298   C     0.23051   0.87444   0.03401   0.00000  Uiso   1.00
C299   C     0.22550   0.84176   0.03923   0.00000  Uiso   1.00
H300   H     0.57365   0.87657   0.15879   0.00000  Uiso   1.00
H301   H     0.57841   0.90349   0.35258   0.00000  Uiso   1.00
H302   H     0.69362   0.89735   0.00013   0.00000  Uiso   1.00
H303   H     0.47308   0.82383   0.13349   0.00000  Uiso   1.00
H304   H     0.54565   0.94129   0.55182   0.00000  Uiso   1.00
H305   H     0.78858   0.92833   0.80862   0.00000  Uiso   1.00
H306   H     0.32353   0.77329   0.08983   0.00000  Uiso   1.00
H307   H     0.28041   0.93776   0.03852   0.00000  Uiso   1.00
H308   H     0.26907   0.96805   0.22572   0.00000  Uiso   1.00
H309   H     0.38430   0.96191   0.87326   0.00000  Uiso   1.00
H310   H     0.16375   0.88838   0.00662   0.00000  Uiso   1.00
H311   H     0.29459   0.99369   0.44885   0.00000  Uiso   1.00
H312   H     0.53752   0.98073   0.70565   0.00000  Uiso   1.00
H313   H     0.07247   0.82569   0.98687   0.00000  Uiso   1.00
O314   O     0.41798   0.98631   0.62563   0.00000  Uiso   1.00
O315   O     0.73669   0.96931   0.65058   0.00000  Uiso   1.00
O316   O     0.12655   0.76590   0.01953   0.00000  Uiso   1.00
N317   N     0.48811   0.94946   0.50190   0.00000  Uiso   1.00
N318   N     0.71524   0.93735   0.80707   0.00000  Uiso   1.00
N319   N     0.28046   0.79240   0.06995   0.00000  Uiso   1.00
N320   N     0.35301   0.97765   0.44649   0.00000  Uiso   1.00
N321   N     0.58014   0.96555   0.75166   0.00000  Uiso   1.00
N322   N     0.14537   0.82060   0.01454   0.00000  Uiso   1.00
C323   C     0.99354   0.60941   0.13124   0.00000  Uiso   1.00
C324   C     0.03162   0.58630   0.21986   0.00000  Uiso   1.00
C325   C     0.98838   0.58257   0.32523   0.00000  Uiso   1.00
C326   C     0.03454   0.56017   0.39404   0.00000  Uiso   1.00
C327   C     0.08051   0.52701   0.53701   0.00000  Uiso   1.00
C328   C     0.96901   0.58963   0.02837   0.00000  Uiso   1.00
C329   C     0.87314   0.58871   0.97272   0.00000  Uiso   1.00
C330   C     0.86660   0.56911   0.88033   0.00000  Uiso   1.00
C331   C     0.81540   0.54114   0.72595   0.00000  Uiso   1.00
C332   C     0.08884   0.62958   0.10083   0.00000  Uiso   1.00
C333   C     0.09371   0.66225   0.10609   0.00000  Uiso   1.00
C334   C     0.18806   0.67628   0.07469   0.00000  Uiso   1.00
C335   C     0.32290   0.71034   0.03283   0.00000  Uiso   1.00
C336   C     0.15241   0.57626   0.06608   0.00000  Uiso   1.00
C337   C     0.11791   0.56829   0.18446   0.00000  Uiso   1.00
C338   C     0.16415   0.54589   0.25313   0.00000  Uiso   1.00
C339   C     0.12099   0.54213   0.35859   0.00000  Uiso   1.00
C340   C     0.05530   0.57162   0.99297   0.00000  Uiso   1.00
C341   C     0.04891   0.55203   0.90063   0.00000  Uiso   1.00
C342   C     0.95305   0.55107   0.84487   0.00000  Uiso   1.00
C343   C     0.17514   0.61157   0.06544   0.00000  Uiso   1.00
C344   C     0.26949   0.62556   0.03401   0.00000  Uiso   1.00
C345   C     0.27450   0.65824   0.03923   0.00000  Uiso   1.00
H346   H     0.92635   0.62343   0.15879   0.00000  Uiso   1.00
H347   H     0.92159   0.59651   0.35258   0.00000  Uiso   1.00
H348   H     0.80638   0.60265   0.00013   0.00000  Uiso   1.00
H349   H     0.02692   0.67617   0.13349   0.00000  Uiso   1.00
H350   H     0.95435   0.55871   0.55182   0.00000  Uiso   1.00
H351   H     0.71142   0.57167   0.80862   0.00000  Uiso   1.00
H352   H     0.17647   0.72671   0.08983   0.00000  Uiso   1.00
H353   H     0.21959   0.56224   0.03852   0.00000  Uiso   1.00
H354   H     0.23093   0.53195   0.22572   0.00000  Uiso   1.00
H355   H     0.11570   0.53809   0.87326   0.00000  Uiso   1.00
H356   H     0.33625   0.61162   0.00662   0.00000  Uiso   1.00
H357   H     0.20541   0.50631   0.44885   0.00000  Uiso   1.00
H358   H     0.96248   0.51927   0.70565   0.00000  Uiso   1.00
H359   H     0.42753   0.67431   0.98687   0.00000  Uiso   1.00
O360   O     0.08202   0.51369   0.62563   0.00000  Uiso   1.00
O361   O     0.76331   0.53069   0.65058   0.00000  Uiso   1.00
O362   O     0.37345   0.73410   0.01953   0.00000  Uiso   1.00
N363   N     0.01189   0.55054   0.50190   0.00000  Uiso   1.00
N364   N     0.78476   0.56265   0.80707   0.00000  Uiso   1.00
N365   N     0.21954   0.70760   0.06995   0.00000  Uiso   1.00
N366   N     0.14699   0.52235   0.44649   0.00000  Uiso   1.00
N367   N     0.91986   0.53445   0.75166   0.00000  Uiso   1.00
N368   N     0.35463   0.67940   0.01454   0.00000  Uiso   1.00
