data_job_03384
_audit_creation_date              2018-12-19
_audit_creation_method            'Materials Studio'
_symmetry_space_group_name_H-M    'P1'
_symmetry_Int_Tables_number       1
_symmetry_cell_setting            triclinic
loop_
_symmetry_equiv_pos_as_xyz
  x,y,z
_cell_length_a                    19.3007
_cell_length_b                    19.3007
_cell_length_c                    14.6681
_cell_angle_alpha                 90.0000
_cell_angle_beta                  90.0000
_cell_angle_gamma                 120.0000
loop_
_atom_site_label
_atom_site_type_symbol
_atom_site_fract_x
_atom_site_fract_y
_atom_site_fract_z
_atom_site_U_iso_or_equiv
_atom_site_adp_type
_atom_site_occupancy
C1     C     0.89117   0.57843   0.13597   0.00000  Uiso   1.00
C2     C     0.86612   0.61330   0.21410   0.00000  Uiso   1.00
C3     C     0.79090   0.57783   0.25406   0.00000  Uiso   1.00
C4     C     0.77996   0.61934   0.32464   0.00000  Uiso   1.00
C5     C     0.73160   0.66221   0.44143   0.00000  Uiso   1.00
C6     C     0.92211   0.64140   0.06075   0.00000  Uiso   1.00
C7     C     0.89398   0.62955   0.97178   0.00000  Uiso   1.00
C8     C     0.93017   0.69471   0.91327   0.00000  Uiso   1.00
C9     C     0.96878   0.78118   0.79196   0.00000  Uiso   1.00
C10    C     0.96362   0.57434   0.17027   0.00000  Uiso   1.00
C11    C     0.97041   0.50610   0.17336   0.00000  Uiso   1.00
C12    C     0.04157   0.51481   0.20704   0.00000  Uiso   1.00
C13    C     0.14463   0.49715   0.25578   0.00000  Uiso   1.00
C14    C     0.00549   0.71522   0.19026   0.00000  Uiso   1.00
C15    C     0.92821   0.68760   0.24358   0.00000  Uiso   1.00
C16    C     0.91738   0.72918   0.31412   0.00000  Uiso   1.00
C17    C     0.84216   0.69378   0.35419   0.00000  Uiso   1.00
C18    C     0.98420   0.71570   0.09023   0.00000  Uiso   1.00
C19    C     0.02045   0.78089   0.03184   0.00000  Uiso   1.00
C20    C     0.99238   0.76915   0.94281   0.00000  Uiso   1.00
C21    C     0.02572   0.64864   0.19976   0.00000  Uiso   1.00
C22    C     0.09688   0.65745   0.23343   0.00000  Uiso   1.00
C23    C     0.10377   0.58924   0.23657   0.00000  Uiso   1.00
H24    H     0.84283   0.52059   0.11301   0.00000  Uiso   1.00
H25    H     0.74286   0.52033   0.23122   0.00000  Uiso   1.00
H26    H     0.84593   0.57204   0.94898   0.00000  Uiso   1.00
H27    H     0.92234   0.44862   0.15053   0.00000  Uiso   1.00
H28    H     0.65941   0.55284   0.37525   0.00000  Uiso   1.00
H29    H     0.87674   0.66185   0.78012   0.00000  Uiso   1.00
H30    H     0.03788   0.40158   0.20514   0.00000  Uiso   1.00
H31    H     0.05383   0.77307   0.21321   0.00000  Uiso   1.00
H32    H     0.96544   0.78668   0.33693   0.00000  Uiso   1.00
H33    H     0.06851   0.83838   0.05468   0.00000  Uiso   1.00
H34    H     0.14492   0.71496   0.25624   0.00000  Uiso   1.00
H35    H     0.84006   0.76901   0.46105   0.00000  Uiso   1.00
H36    H     0.05740   0.87803   0.86591   0.00000  Uiso   1.00
H37    H     0.21853   0.61776   0.29094   0.00000  Uiso   1.00
O38    O     0.68777   0.66533   0.49770   0.00000  Uiso   1.00
O39    O     0.97292   0.80835   0.71691   0.00000  Uiso   1.00
O40    O     0.18432   0.46688   0.27453   0.00000  Uiso   1.00
N41    N     0.71406   0.60184   0.37848   0.00000  Uiso   1.00
N42    N     0.91724   0.70377   0.82207   0.00000  Uiso   1.00
N43    N     0.06790   0.46044   0.21940   0.00000  Uiso   1.00
N44    N     0.81127   0.71816   0.42464   0.00000  Uiso   1.00
N45    N     0.01445   0.82009   0.86824   0.00000  Uiso   1.00
N46    N     0.16511   0.57676   0.26557   0.00000  Uiso   1.00
C47    C     0.42157   0.31274   0.46931   0.00000  Uiso   1.00
C48    C     0.38670   0.25282   0.54743   0.00000  Uiso   1.00
C49    C     0.42217   0.21307   0.58739   0.00000  Uiso   1.00
C50    C     0.38066   0.16062   0.65798   0.00000  Uiso   1.00
C51    C     0.33779   0.06939   0.77477   0.00000  Uiso   1.00
C52    C     0.35860   0.28071   0.39408   0.00000  Uiso   1.00
C53    C     0.37045   0.26443   0.30511   0.00000  Uiso   1.00
C54    C     0.30529   0.23546   0.24660   0.00000  Uiso   1.00
C55    C     0.21882   0.18760   0.12530   0.00000  Uiso   1.00
C56    C     0.42566   0.38929   0.50360   0.00000  Uiso   1.00
C57    C     0.49390   0.46431   0.50669   0.00000  Uiso   1.00
C58    C     0.48519   0.52676   0.54037   0.00000  Uiso   1.00
C59    C     0.50285   0.64748   0.58911   0.00000  Uiso   1.00
C60    C     0.28478   0.29026   0.52359   0.00000  Uiso   1.00
C61    C     0.31240   0.24061   0.57691   0.00000  Uiso   1.00
C62    C     0.27082   0.18820   0.64746   0.00000  Uiso   1.00
C63    C     0.30622   0.14839   0.68752   0.00000  Uiso   1.00
C64    C     0.28430   0.26850   0.42357   0.00000  Uiso   1.00
C65    C     0.21911   0.23956   0.36517   0.00000  Uiso   1.00
C66    C     0.23085   0.22323   0.27614   0.00000  Uiso   1.00
C67    C     0.35136   0.37708   0.53309   0.00000  Uiso   1.00
C68    C     0.34255   0.43943   0.56676   0.00000  Uiso   1.00
C69    C     0.41076   0.51453   0.56991   0.00000  Uiso   1.00
H70    H     0.47941   0.32224   0.44634   0.00000  Uiso   1.00
H71    H     0.47967   0.22253   0.56455   0.00000  Uiso   1.00
H72    H     0.42796   0.27389   0.28231   0.00000  Uiso   1.00
H73    H     0.55138   0.47373   0.48387   0.00000  Uiso   1.00
H74    H     0.44716   0.10657   0.70858   0.00000  Uiso   1.00
H75    H     0.33815   0.21489   0.11346   0.00000  Uiso   1.00
H76    H     0.59842   0.63630   0.53847   0.00000  Uiso   1.00
H77    H     0.22693   0.28076   0.54655   0.00000  Uiso   1.00
H78    H     0.21332   0.17877   0.67026   0.00000  Uiso   1.00
H79    H     0.16162   0.23012   0.38801   0.00000  Uiso   1.00
H80    H     0.28504   0.42996   0.58957   0.00000  Uiso   1.00
H81    H     0.23099   0.07105   0.79438   0.00000  Uiso   1.00
H82    H     0.12197   0.17937   0.19925   0.00000  Uiso   1.00
H83    H     0.38224   0.60077   0.62427   0.00000  Uiso   1.00
O84    O     0.33467   0.02244   0.83103   0.00000  Uiso   1.00
O85    O     0.19165   0.16457   0.05024   0.00000  Uiso   1.00
O86    O     0.53312   0.71744   0.60786   0.00000  Uiso   1.00
N87    N     0.39816   0.11222   0.71181   0.00000  Uiso   1.00
N88    N     0.29623   0.21348   0.15540   0.00000  Uiso   1.00
N89    N     0.53956   0.60746   0.55274   0.00000  Uiso   1.00
N90    N     0.28184   0.09311   0.75798   0.00000  Uiso   1.00
N91    N     0.17991   0.19436   0.20157   0.00000  Uiso   1.00
N92    N     0.42324   0.58835   0.59890   0.00000  Uiso   1.00
C93    C     0.68726   0.10883   0.80264   0.00000  Uiso   1.00
C94    C     0.74718   0.13388   0.88076   0.00000  Uiso   1.00
C95    C     0.78693   0.20910   0.92073   0.00000  Uiso   1.00
C96    C     0.83938   0.22004   0.99131   0.00000  Uiso   1.00
C97    C     0.93061   0.26840   0.10810   0.00000  Uiso   1.00
C98    C     0.71929   0.07789   0.72742   0.00000  Uiso   1.00
C99    C     0.73557   0.10602   0.63844   0.00000  Uiso   1.00
C100   C     0.76454   0.06983   0.57993   0.00000  Uiso   1.00
C101   C     0.81240   0.03122   0.45863   0.00000  Uiso   1.00
C102   C     0.61071   0.03638   0.83693   0.00000  Uiso   1.00
C103   C     0.53569   0.02959   0.84002   0.00000  Uiso   1.00
C104   C     0.47324   0.95843   0.87370   0.00000  Uiso   1.00
C105   C     0.35252   0.85537   0.92244   0.00000  Uiso   1.00
C106   C     0.70974   0.99451   0.85693   0.00000  Uiso   1.00
C107   C     0.75939   0.07179   0.91025   0.00000  Uiso   1.00
C108   C     0.81180   0.08262   0.98079   0.00000  Uiso   1.00
C109   C     0.85161   0.15784   0.02085   0.00000  Uiso   1.00
C110   C     0.73150   0.01580   0.75690   0.00000  Uiso   1.00
C111   C     0.76044   0.97955   0.69851   0.00000  Uiso   1.00
C112   C     0.77677   0.00762   0.60947   0.00000  Uiso   1.00
C113   C     0.62292   0.97428   0.86642   0.00000  Uiso   1.00
C114   C     0.56057   0.90312   0.90009   0.00000  Uiso   1.00
C115   C     0.48547   0.89623   0.90324   0.00000  Uiso   1.00
H116   H     0.67776   0.15717   0.77968   0.00000  Uiso   1.00
H117   H     0.77747   0.25714   0.89788   0.00000  Uiso   1.00
H118   H     0.72611   0.15407   0.61564   0.00000  Uiso   1.00
H119   H     0.52627   0.07766   0.81720   0.00000  Uiso   1.00
H120   H     0.89343   0.34059   0.04192   0.00000  Uiso   1.00
H121   H     0.78511   0.12326   0.44679   0.00000  Uiso   1.00
H122   H     0.36370   0.96212   0.87181   0.00000  Uiso   1.00
H123   H     0.71924   0.94617   0.87988   0.00000  Uiso   1.00
H124   H     0.82123   0.03456   0.00359   0.00000  Uiso   1.00
H125   H     0.76988   0.93149   0.72135   0.00000  Uiso   1.00
H126   H     0.57004   0.85508   0.92291   0.00000  Uiso   1.00
H127   H     0.92895   0.15994   0.12771   0.00000  Uiso   1.00
H128   H     0.82063   0.94260   0.53258   0.00000  Uiso   1.00
H129   H     0.39923   0.78147   0.95760   0.00000  Uiso   1.00
O130   O     0.97756   0.31223   0.16437   0.00000  Uiso   1.00
O131   O     0.83543   0.02708   0.38358   0.00000  Uiso   1.00
O132   O     0.28256   0.81568   0.94120   0.00000  Uiso   1.00
N133   N     0.88778   0.28594   0.04514   0.00000  Uiso   1.00
N134   N     0.78652   0.08276   0.48874   0.00000  Uiso   1.00
N135   N     0.39254   0.93210   0.88607   0.00000  Uiso   1.00
N136   N     0.90689   0.18873   0.09131   0.00000  Uiso   1.00
N137   N     0.80564   0.98555   0.53490   0.00000  Uiso   1.00
N138   N     0.41165   0.83489   0.93224   0.00000  Uiso   1.00
C139   C     0.10883   0.42157   0.63597   0.00000  Uiso   1.00
C140   C     0.13388   0.38670   0.71410   0.00000  Uiso   1.00
C141   C     0.20910   0.42217   0.75406   0.00000  Uiso   1.00
C142   C     0.22004   0.38066   0.82464   0.00000  Uiso   1.00
C143   C     0.26840   0.33779   0.94143   0.00000  Uiso   1.00
C144   C     0.07789   0.35860   0.56075   0.00000  Uiso   1.00
C145   C     0.10602   0.37045   0.47178   0.00000  Uiso   1.00
C146   C     0.06983   0.30529   0.41327   0.00000  Uiso   1.00
C147   C     0.03122   0.21882   0.29196   0.00000  Uiso   1.00
C148   C     0.03638   0.42566   0.67027   0.00000  Uiso   1.00
C149   C     0.02959   0.49390   0.67336   0.00000  Uiso   1.00
C150   C     0.95843   0.48519   0.70704   0.00000  Uiso   1.00
C151   C     0.85537   0.50285   0.75578   0.00000  Uiso   1.00
C152   C     0.99451   0.28478   0.69026   0.00000  Uiso   1.00
C153   C     0.07179   0.31240   0.74358   0.00000  Uiso   1.00
C154   C     0.08262   0.27082   0.81412   0.00000  Uiso   1.00
C155   C     0.15784   0.30622   0.85419   0.00000  Uiso   1.00
C156   C     0.01580   0.28430   0.59023   0.00000  Uiso   1.00
C157   C     0.97955   0.21911   0.53184   0.00000  Uiso   1.00
C158   C     0.00762   0.23085   0.44281   0.00000  Uiso   1.00
C159   C     0.97428   0.35136   0.69976   0.00000  Uiso   1.00
C160   C     0.90312   0.34255   0.73343   0.00000  Uiso   1.00
C161   C     0.89623   0.41076   0.73657   0.00000  Uiso   1.00
H162   H     0.15717   0.47941   0.61301   0.00000  Uiso   1.00
H163   H     0.25714   0.47967   0.73122   0.00000  Uiso   1.00
H164   H     0.15407   0.42796   0.44898   0.00000  Uiso   1.00
H165   H     0.07766   0.55138   0.65053   0.00000  Uiso   1.00
H166   H     0.34059   0.44716   0.87525   0.00000  Uiso   1.00
H167   H     0.12326   0.33815   0.28012   0.00000  Uiso   1.00
H168   H     0.96212   0.59842   0.70514   0.00000  Uiso   1.00
H169   H     0.94617   0.22693   0.71321   0.00000  Uiso   1.00
H170   H     0.03456   0.21332   0.83693   0.00000  Uiso   1.00
H171   H     0.93149   0.16162   0.55468   0.00000  Uiso   1.00
H172   H     0.85508   0.28504   0.75624   0.00000  Uiso   1.00
H173   H     0.15994   0.23099   0.96105   0.00000  Uiso   1.00
H174   H     0.94260   0.12197   0.36591   0.00000  Uiso   1.00
H175   H     0.78147   0.38224   0.79094   0.00000  Uiso   1.00
O176   O     0.31223   0.33467   0.99770   0.00000  Uiso   1.00
O177   O     0.02708   0.19165   0.21691   0.00000  Uiso   1.00
O178   O     0.81568   0.53312   0.77453   0.00000  Uiso   1.00
N179   N     0.28594   0.39816   0.87848   0.00000  Uiso   1.00
N180   N     0.08276   0.29623   0.32207   0.00000  Uiso   1.00
N181   N     0.93210   0.53956   0.71940   0.00000  Uiso   1.00
N182   N     0.18873   0.28184   0.92464   0.00000  Uiso   1.00
N183   N     0.98555   0.17991   0.36824   0.00000  Uiso   1.00
N184   N     0.83489   0.42324   0.76557   0.00000  Uiso   1.00
C185   C     0.57843   0.68726   0.96931   0.00000  Uiso   1.00
C186   C     0.61330   0.74718   0.04743   0.00000  Uiso   1.00
C187   C     0.57783   0.78693   0.08739   0.00000  Uiso   1.00
C188   C     0.61934   0.83938   0.15798   0.00000  Uiso   1.00
C189   C     0.66221   0.93061   0.27477   0.00000  Uiso   1.00
C190   C     0.64140   0.71929   0.89408   0.00000  Uiso   1.00
C191   C     0.62955   0.73557   0.80511   0.00000  Uiso   1.00
C192   C     0.69471   0.76454   0.74660   0.00000  Uiso   1.00
C193   C     0.78118   0.81240   0.62530   0.00000  Uiso   1.00
C194   C     0.57434   0.61071   0.00360   0.00000  Uiso   1.00
C195   C     0.50610   0.53569   0.00669   0.00000  Uiso   1.00
C196   C     0.51481   0.47324   0.04037   0.00000  Uiso   1.00
C197   C     0.49715   0.35252   0.08911   0.00000  Uiso   1.00
C198   C     0.71522   0.70974   0.02359   0.00000  Uiso   1.00
C199   C     0.68760   0.75939   0.07691   0.00000  Uiso   1.00
C200   C     0.72918   0.81180   0.14746   0.00000  Uiso   1.00
C201   C     0.69378   0.85161   0.18752   0.00000  Uiso   1.00
C202   C     0.71570   0.73150   0.92357   0.00000  Uiso   1.00
C203   C     0.78089   0.76044   0.86517   0.00000  Uiso   1.00
C204   C     0.76915   0.77677   0.77614   0.00000  Uiso   1.00
C205   C     0.64864   0.62292   0.03309   0.00000  Uiso   1.00
C206   C     0.65745   0.56057   0.06676   0.00000  Uiso   1.00
C207   C     0.58924   0.48547   0.06991   0.00000  Uiso   1.00
H208   H     0.52059   0.67776   0.94634   0.00000  Uiso   1.00
H209   H     0.52033   0.77747   0.06455   0.00000  Uiso   1.00
H210   H     0.57204   0.72611   0.78231   0.00000  Uiso   1.00
H211   H     0.44862   0.52627   0.98387   0.00000  Uiso   1.00
H212   H     0.55284   0.89343   0.20858   0.00000  Uiso   1.00
H213   H     0.66185   0.78511   0.61346   0.00000  Uiso   1.00
H214   H     0.40158   0.36370   0.03847   0.00000  Uiso   1.00
H215   H     0.77307   0.71924   0.04655   0.00000  Uiso   1.00
H216   H     0.78668   0.82123   0.17026   0.00000  Uiso   1.00
H217   H     0.83838   0.76988   0.88801   0.00000  Uiso   1.00
H218   H     0.71496   0.57004   0.08957   0.00000  Uiso   1.00
H219   H     0.76901   0.92895   0.29438   0.00000  Uiso   1.00
H220   H     0.87803   0.82063   0.69925   0.00000  Uiso   1.00
H221   H     0.61776   0.39923   0.12427   0.00000  Uiso   1.00
O222   O     0.66533   0.97756   0.33103   0.00000  Uiso   1.00
O223   O     0.80835   0.83543   0.55024   0.00000  Uiso   1.00
O224   O     0.46688   0.28256   0.10786   0.00000  Uiso   1.00
N225   N     0.60184   0.88778   0.21181   0.00000  Uiso   1.00
N226   N     0.70377   0.78652   0.65540   0.00000  Uiso   1.00
N227   N     0.46044   0.39254   0.05274   0.00000  Uiso   1.00
N228   N     0.71816   0.90689   0.25798   0.00000  Uiso   1.00
N229   N     0.82009   0.80564   0.70157   0.00000  Uiso   1.00
N230   N     0.57676   0.41165   0.09890   0.00000  Uiso   1.00
C231   C     0.31274   0.89117   0.30264   0.00000  Uiso   1.00
C232   C     0.25282   0.86612   0.38076   0.00000  Uiso   1.00
C233   C     0.21307   0.79090   0.42073   0.00000  Uiso   1.00
C234   C     0.16062   0.77996   0.49131   0.00000  Uiso   1.00
C235   C     0.06939   0.73160   0.60810   0.00000  Uiso   1.00
C236   C     0.28071   0.92211   0.22742   0.00000  Uiso   1.00
C237   C     0.26443   0.89398   0.13844   0.00000  Uiso   1.00
C238   C     0.23546   0.93017   0.07993   0.00000  Uiso   1.00
C239   C     0.18760   0.96878   0.95863   0.00000  Uiso   1.00
C240   C     0.38929   0.96362   0.33693   0.00000  Uiso   1.00
C241   C     0.46431   0.97041   0.34002   0.00000  Uiso   1.00
C242   C     0.52676   0.04157   0.37370   0.00000  Uiso   1.00
C243   C     0.64748   0.14463   0.42244   0.00000  Uiso   1.00
C244   C     0.29026   0.00549   0.35693   0.00000  Uiso   1.00
C245   C     0.24061   0.92821   0.41025   0.00000  Uiso   1.00
C246   C     0.18820   0.91738   0.48079   0.00000  Uiso   1.00
C247   C     0.14839   0.84216   0.52085   0.00000  Uiso   1.00
C248   C     0.26850   0.98420   0.25690   0.00000  Uiso   1.00
C249   C     0.23956   0.02045   0.19851   0.00000  Uiso   1.00
C250   C     0.22323   0.99238   0.10947   0.00000  Uiso   1.00
C251   C     0.37708   0.02572   0.36642   0.00000  Uiso   1.00
C252   C     0.43943   0.09688   0.40009   0.00000  Uiso   1.00
C253   C     0.51453   0.10377   0.40324   0.00000  Uiso   1.00
H254   H     0.32224   0.84283   0.27968   0.00000  Uiso   1.00
H255   H     0.22253   0.74286   0.39788   0.00000  Uiso   1.00
H256   H     0.27389   0.84593   0.11564   0.00000  Uiso   1.00
H257   H     0.47373   0.92234   0.31720   0.00000  Uiso   1.00
H258   H     0.10657   0.65941   0.54192   0.00000  Uiso   1.00
H259   H     0.21489   0.87674   0.94679   0.00000  Uiso   1.00
H260   H     0.63630   0.03788   0.37181   0.00000  Uiso   1.00
H261   H     0.28076   0.05383   0.37988   0.00000  Uiso   1.00
H262   H     0.17877   0.96544   0.50359   0.00000  Uiso   1.00
H263   H     0.23012   0.06851   0.22135   0.00000  Uiso   1.00
H264   H     0.42996   0.14492   0.42291   0.00000  Uiso   1.00
H265   H     0.07105   0.84006   0.62771   0.00000  Uiso   1.00
H266   H     0.17937   0.05740   0.03258   0.00000  Uiso   1.00
H267   H     0.60077   0.21853   0.45760   0.00000  Uiso   1.00
O268   O     0.02244   0.68777   0.66437   0.00000  Uiso   1.00
O269   O     0.16457   0.97292   0.88358   0.00000  Uiso   1.00
O270   O     0.71744   0.18432   0.44120   0.00000  Uiso   1.00
N271   N     0.11222   0.71406   0.54514   0.00000  Uiso   1.00
N272   N     0.21348   0.91724   0.98874   0.00000  Uiso   1.00
N273   N     0.60746   0.06790   0.38607   0.00000  Uiso   1.00
N274   N     0.09311   0.81127   0.59131   0.00000  Uiso   1.00
N275   N     0.19436   0.01445   0.03490   0.00000  Uiso   1.00
N276   N     0.58835   0.16511   0.43224   0.00000  Uiso   1.00
