data_job_06763
_audit_creation_date              2018-12-19
_audit_creation_method            'Materials Studio'
_symmetry_space_group_name_H-M    'P1'
_symmetry_Int_Tables_number       1
_symmetry_cell_setting            triclinic
loop_
_symmetry_equiv_pos_as_xyz
  x,y,z
_cell_length_a                    21.1447
_cell_length_b                    22.7640
_cell_length_c                    19.6550
_cell_angle_alpha                 78.1242
_cell_angle_beta                  88.9505
_cell_angle_gamma                 68.8992
loop_
_atom_site_label
_atom_site_type_symbol
_atom_site_fract_x
_atom_site_fract_y
_atom_site_fract_z
_atom_site_U_iso_or_equiv
_atom_site_adp_type
_atom_site_occupancy
C1     C     0.61488   0.19027   0.28950   0.00000  Uiso   1.00
C2     C     0.60805   0.23026   0.21566   0.00000  Uiso   1.00
C3     C     0.65419   0.21592   0.16482   0.00000  Uiso   1.00
C4     C     0.63872   0.25859   0.10055   0.00000  Uiso   1.00
C5     C     0.63717   0.31233   0.98786   0.00000  Uiso   1.00
C6     C     0.61079   0.23572   0.33801   0.00000  Uiso   1.00
C7     C     0.65924   0.22597   0.39005   0.00000  Uiso   1.00
C8     C     0.64607   0.27323   0.42878   0.00000  Uiso   1.00
C9     C     0.64877   0.33542   0.50608   0.00000  Uiso   1.00
C10    C     0.55074   0.17423   0.29857   0.00000  Uiso   1.00
C11    C     0.54870   0.11277   0.31747   0.00000  Uiso   1.00
C12    C     0.48497   0.10826   0.32301   0.00000  Uiso   1.00
C13    C     0.39443   0.07498   0.33907   0.00000  Uiso   1.00
C14    C     0.50535   0.29153   0.26575   0.00000  Uiso   1.00
C15    C     0.54856   0.28526   0.20276   0.00000  Uiso   1.00
C16    C     0.53301   0.32795   0.13854   0.00000  Uiso   1.00
C17    C     0.57912   0.31368   0.08762   0.00000  Uiso   1.00
C18    C     0.55130   0.29072   0.32511   0.00000  Uiso   1.00
C19    C     0.53806   0.33800   0.36377   0.00000  Uiso   1.00
C20    C     0.58647   0.32832   0.41586   0.00000  Uiso   1.00
C21    C     0.49125   0.22922   0.28567   0.00000  Uiso   1.00
C22    C     0.42752   0.22480   0.29118   0.00000  Uiso   1.00
C23    C     0.42537   0.16336   0.31008   0.00000  Uiso   1.00
H24    H     0.66120   0.14745   0.29955   0.00000  Uiso   1.00
H25    H     0.70023   0.17336   0.17483   0.00000  Uiso   1.00
H26    H     0.70527   0.18340   0.40003   0.00000  Uiso   1.00
H27    H     0.59474   0.07022   0.32745   0.00000  Uiso   1.00
H28    H     0.71727   0.22635   0.03087   0.00000  Uiso   1.00
H29    H     0.72790   0.24751   0.50573   0.00000  Uiso   1.00
H30    H     0.49483   0.00885   0.35269   0.00000  Uiso   1.00
H31    H     0.45903   0.33435   0.25571   0.00000  Uiso   1.00
H32    H     0.48697   0.37051   0.12857   0.00000  Uiso   1.00
H33    H     0.49201   0.38055   0.35378   0.00000  Uiso   1.00
H34    H     0.38149   0.26737   0.28120   0.00000  Uiso   1.00
H35    H     0.54419   0.38637   0.99333   0.00000  Uiso   1.00
H36    H     0.55481   0.40752   0.46819   0.00000  Uiso   1.00
H37    H     0.32175   0.16887   0.31515   0.00000  Uiso   1.00
O38    O     0.65276   0.32678   0.92927   0.00000  Uiso   1.00
O39    O     0.66670   0.35454   0.55227   0.00000  Uiso   1.00
O40    O     0.36092   0.04143   0.35148   0.00000  Uiso   1.00
N41    N     0.67270   0.25904   0.03948   0.00000  Uiso   1.00
N42    N     0.68263   0.27883   0.48344   0.00000  Uiso   1.00
N43    N     0.46474   0.05570   0.34037   0.00000  Uiso   1.00
N44    N     0.57956   0.34514   0.01928   0.00000  Uiso   1.00
N45    N     0.58950   0.36493   0.46324   0.00000  Uiso   1.00
N46    N     0.37160   0.14181   0.32017   0.00000  Uiso   1.00
C47    C     0.31639   0.59128   0.11360   0.00000  Uiso   1.00
C48    C     0.27250   0.58256   0.17446   0.00000  Uiso   1.00
C49    C     0.21425   0.62974   0.18964   0.00000  Uiso   1.00
C50    C     0.18131   0.61218   0.24763   0.00000  Uiso   1.00
C51    C     0.10947   0.60815   0.33586   0.00000  Uiso   1.00
C52    C     0.38801   0.57229   0.14552   0.00000  Uiso   1.00
C53    C     0.42686   0.61084   0.13636   0.00000  Uiso   1.00
C54    C     0.49116   0.58462   0.16998   0.00000  Uiso   1.00
C55    C     0.59865   0.56463   0.21325   0.00000  Uiso   1.00
C56    C     0.31957   0.54013   0.07291   0.00000  Uiso   1.00
C57    C     0.30090   0.55164   0.00269   0.00000  Uiso   1.00
C58    C     0.30760   0.49834   0.97517   0.00000  Uiso   1.00
C59    C     0.30883   0.42842   0.90569   0.00000  Uiso   1.00
C60    C     0.36150   0.47618   0.18959   0.00000  Uiso   1.00
C61    C     0.29701   0.52004   0.21573   0.00000  Uiso   1.00
C62    C     0.26415   0.50240   0.27371   0.00000  Uiso   1.00
C63    C     0.20586   0.54955   0.28897   0.00000  Uiso   1.00
C64    C     0.41251   0.50977   0.18679   0.00000  Uiso   1.00
C65    C     0.47677   0.48349   0.22043   0.00000  Uiso   1.00
C66    C     0.51571   0.52199   0.21133   0.00000  Uiso   1.00
C67    C     0.34407   0.47761   0.11418   0.00000  Uiso   1.00
C68    C     0.35080   0.42429   0.08676   0.00000  Uiso   1.00
C69    C     0.33215   0.43571   0.01652   0.00000  Uiso   1.00
H70    H     0.29732   0.63996   0.08147   0.00000  Uiso   1.00
H71    H     0.19531   0.67812   0.15769   0.00000  Uiso   1.00
H72    H     0.40789   0.65921   0.10441   0.00000  Uiso   1.00
H73    H     0.28195   0.60002   0.97077   0.00000  Uiso   1.00
H74    H     0.09303   0.69287   0.26041   0.00000  Uiso   1.00
H75    H     0.54128   0.65299   0.14805   0.00000  Uiso   1.00
H76    H     0.27570   0.52818   0.86623   0.00000  Uiso   1.00
H77    H     0.38057   0.42751   0.22173   0.00000  Uiso   1.00
H78    H     0.28312   0.45402   0.30564   0.00000  Uiso   1.00
H79    H     0.49571   0.43511   0.25237   0.00000  Uiso   1.00
H80    H     0.36977   0.37592   0.11872   0.00000  Uiso   1.00
H81    H     0.16431   0.51098   0.38049   0.00000  Uiso   1.00
H82    H     0.61256   0.47110   0.26813   0.00000  Uiso   1.00
H83    H     0.34698   0.34629   0.98631   0.00000  Uiso   1.00
O84    O     0.06307   0.62320   0.37313   0.00000  Uiso   1.00
O85    O     0.65117   0.57088   0.22572   0.00000  Uiso   1.00
O86    O     0.30274   0.40713   0.85597   0.00000  Uiso   1.00
N87    N     0.12317   0.64642   0.27714   0.00000  Uiso   1.00
N88    N     0.54225   0.60914   0.17211   0.00000  Uiso   1.00
N89    N     0.29398   0.49245   0.90862   0.00000  Uiso   1.00
N90    N     0.16152   0.54855   0.34176   0.00000  Uiso   1.00
N91    N     0.58061   0.51127   0.23673   0.00000  Uiso   1.00
N92    N     0.33233   0.39457   0.97324   0.00000  Uiso   1.00
C93    C     0.33585   0.26197   0.60374   0.00000  Uiso   1.00
C94    C     0.39756   0.19991   0.60920   0.00000  Uiso   1.00
C95    C     0.40437   0.14029   0.65023   0.00000  Uiso   1.00
C96    C     0.46477   0.08944   0.64800   0.00000  Uiso   1.00
C97    C     0.55274   0.99178   0.66286   0.00000  Uiso   1.00
C98    C     0.36226   0.31103   0.62270   0.00000  Uiso   1.00
C99    C     0.33937   0.34485   0.67507   0.00000  Uiso   1.00
C100   C     0.37005   0.38754   0.68420   0.00000  Uiso   1.00
C101   C     0.40317   0.46243   0.71998   0.00000  Uiso   1.00
C102   C     0.31297   0.28573   0.52662   0.00000  Uiso   1.00
C103   C     0.24864   0.29830   0.49821   0.00000  Uiso   1.00
C104   C     0.23782   0.31972   0.42645   0.00000  Uiso   1.00
C105   C     0.19441   0.35534   0.31306   0.00000  Uiso   1.00
C106   C     0.43103   0.27767   0.52682   0.00000  Uiso   1.00
C107   C     0.44926   0.20844   0.56742   0.00000  Uiso   1.00
C108   C     0.50967   0.15766   0.56513   0.00000  Uiso   1.00
C109   C     0.51657   0.09798   0.60615   0.00000  Uiso   1.00
C110   C     0.41395   0.31955   0.58092   0.00000  Uiso   1.00
C111   C     0.44468   0.36221   0.58997   0.00000  Uiso   1.00
C112   C     0.42184   0.39608   0.64234   0.00000  Uiso   1.00
C113   C     0.36467   0.29426   0.48484   0.00000  Uiso   1.00
C114   C     0.35395   0.31567   0.41311   0.00000  Uiso   1.00
C115   C     0.28961   0.32826   0.38460   0.00000  Uiso   1.00
H116   H     0.29561   0.25534   0.63627   0.00000  Uiso   1.00
H117   H     0.36435   0.13372   0.68256   0.00000  Uiso   1.00
H118   H     0.29936   0.33824   0.70738   0.00000  Uiso   1.00
H119   H     0.20864   0.29170   0.53056   0.00000  Uiso   1.00
H120   H     0.46337   0.00264   0.71547   0.00000  Uiso   1.00
H121   H     0.32632   0.43391   0.76781   0.00000  Uiso   1.00
H122   H     0.13502   0.33578   0.39493   0.00000  Uiso   1.00
H123   H     0.47129   0.28431   0.49430   0.00000  Uiso   1.00
H124   H     0.54967   0.16427   0.53280   0.00000  Uiso   1.00
H125   H     0.48468   0.36880   0.55763   0.00000  Uiso   1.00
H126   H     0.39396   0.32226   0.38080   0.00000  Uiso   1.00
H127   H     0.61379   0.02745   0.59393   0.00000  Uiso   1.00
H128   H     0.47673   0.45872   0.64626   0.00000  Uiso   1.00
H129   H     0.28544   0.36058   0.27338   0.00000  Uiso   1.00
O130   O     0.58698   0.93557   0.68260   0.00000  Uiso   1.00
O131   O     0.40716   0.50138   0.75126   0.00000  Uiso   1.00
O132   O     0.15619   0.37262   0.26205   0.00000  Uiso   1.00
N133   N     0.48801   0.02495   0.68157   0.00000  Uiso   1.00
N134   N     0.35988   0.42815   0.73051   0.00000  Uiso   1.00
N135   N     0.18103   0.33642   0.38190   0.00000  Uiso   1.00
N136   N     0.56895   0.03830   0.61617   0.00000  Uiso   1.00
N137   N     0.44082   0.44150   0.66511   0.00000  Uiso   1.00
N138   N     0.26197   0.34977   0.31650   0.00000  Uiso   1.00
C139   C     0.11102   0.91787   0.63706   0.00000  Uiso   1.00
C140   C     0.09713   0.86153   0.68278   0.00000  Uiso   1.00
C141   C     0.10065   0.80543   0.66288   0.00000  Uiso   1.00
C142   C     0.08612   0.75963   0.71230   0.00000  Uiso   1.00
C143   C     0.06724   0.67062   0.77312   0.00000  Uiso   1.00
C144   C     0.16670   0.92742   0.67663   0.00000  Uiso   1.00
C145   C     0.22870   0.92672   0.65155   0.00000  Uiso   1.00
C146   C     0.27273   0.93640   0.69580   0.00000  Uiso   1.00
C147   C     0.36183   0.94972   0.74705   0.00000  Uiso   1.00
C148   C     0.04728   0.97729   0.63619   0.00000  Uiso   1.00
C149   C     0.00887   0.01854   0.57711   0.00000  Uiso   1.00
C150   C     0.95236   0.07021   0.58731   0.00000  Uiso   1.00
C151   C     0.85604   0.16097   0.57577   0.00000  Uiso   1.00
C152   C     0.07898   0.93631   0.76022   0.00000  Uiso   1.00
C153   C     0.07973   0.87155   0.74967   0.00000  Uiso   1.00
C154   C     0.06519   0.82583   0.79913   0.00000  Uiso   1.00
C155   C     0.06868   0.76966   0.77931   0.00000  Uiso   1.00
C156   C     0.14930   0.93744   0.74352   0.00000  Uiso   1.00
C157   C     0.19325   0.94712   0.78781   0.00000  Uiso   1.00
C158   C     0.25530   0.94643   0.76281   0.00000  Uiso   1.00
C159   C     0.02987   0.98731   0.70308   0.00000  Uiso   1.00
C160   C     0.97342   0.03894   0.71337   0.00000  Uiso   1.00
C161   C     0.93493   0.08025   0.65432   0.00000  Uiso   1.00
H162   H     0.12458   0.91007   0.58499   0.00000  Uiso   1.00
H163   H     0.11412   0.79769   0.61111   0.00000  Uiso   1.00
H164   H     0.24215   0.91897   0.59979   0.00000  Uiso   1.00
H165   H     0.02236   0.01077   0.52536   0.00000  Uiso   1.00
H166   H     0.09488   0.67750   0.66958   0.00000  Uiso   1.00
H167   H     0.36483   0.93325   0.64569   0.00000  Uiso   1.00
H168   H     0.90135   0.12683   0.48874   0.00000  Uiso   1.00
H169   H     0.06543   0.94411   0.81229   0.00000  Uiso   1.00
H170   H     0.05172   0.83359   0.85089   0.00000  Uiso   1.00
H171   H     0.17976   0.95487   0.83957   0.00000  Uiso   1.00
H172   H     0.95996   0.04667   0.76514   0.00000  Uiso   1.00
H173   H     0.04424   0.70664   0.86420   0.00000  Uiso   1.00
H174   H     0.31419   0.96239   0.84031   0.00000  Uiso   1.00
H175   H     0.85071   0.15597   0.68336   0.00000  Uiso   1.00
O176   O     0.06164   0.61875   0.78818   0.00000  Uiso   1.00
O177   O     0.41579   0.95429   0.75684   0.00000  Uiso   1.00
O178   O     0.80771   0.20826   0.55093   0.00000  Uiso   1.00
N179   N     0.08483   0.69953   0.71008   0.00000  Uiso   1.00
N180   N     0.33722   0.93863   0.68775   0.00000  Uiso   1.00
N181   N     0.90391   0.11962   0.54102   0.00000  Uiso   1.00
N182   N     0.05758   0.71521   0.81480   0.00000  Uiso   1.00
N183   N     0.30997   0.95431   0.79247   0.00000  Uiso   1.00
N184   N     0.87666   0.13530   0.64574   0.00000  Uiso   1.00
C185   C     0.91706   0.62680   0.14462   0.00000  Uiso   1.00
C186   C     0.84272   0.65509   0.11780   0.00000  Uiso   1.00
C187   C     0.79117   0.63622   0.14762   0.00000  Uiso   1.00
C188   C     0.72653   0.66805   0.11523   0.00000  Uiso   1.00
C189   C     0.61300   0.70456   0.08273   0.00000  Uiso   1.00
C190   C     0.93483   0.68341   0.15616   0.00000  Uiso   1.00
C191   C     0.96074   0.68835   0.21822   0.00000  Uiso   1.00
C192   C     0.97365   0.74401   0.21811   0.00000  Uiso   1.00
C193   C     0.00318   0.82446   0.24516   0.00000  Uiso   1.00
C194   C     0.95777   0.60362   0.08416   0.00000  Uiso   1.00
C195   C     0.00298   0.54148   0.08569   0.00000  Uiso   1.00
C196   C     0.03521   0.52997   0.02497   0.00000  Uiso   1.00
C197   C     0.10035   0.48654   0.94022   0.00000  Uiso   1.00
C198   C     0.89391   0.71687   0.03407   0.00000  Uiso   1.00
C199   C     0.83015   0.70402   0.05776   0.00000  Uiso   1.00
C200   C     0.76556   0.73588   0.02531   0.00000  Uiso   1.00
C201   C     0.71393   0.71706   0.05507   0.00000  Uiso   1.00
C202   C     0.92226   0.73233   0.09611   0.00000  Uiso   1.00
C203   C     0.93514   0.78800   0.09591   0.00000  Uiso   1.00
C204   C     0.96106   0.79302   0.15796   0.00000  Uiso   1.00
C205   C     0.94520   0.65255   0.02411   0.00000  Uiso   1.00
C206   C     0.97737   0.64113   0.96338   0.00000  Uiso   1.00
C207   C     0.02262   0.57898   0.96481   0.00000  Uiso   1.00
H208   H     0.92685   0.58871   0.19137   0.00000  Uiso   1.00
H209   H     0.80092   0.59837   0.19409   0.00000  Uiso   1.00
H210   H     0.97047   0.65048   0.26468   0.00000  Uiso   1.00
H211   H     0.01270   0.50363   0.13216   0.00000  Uiso   1.00
H212   H     0.65576   0.63066   0.17064   0.00000  Uiso   1.00
H213   H     0.01329   0.74052   0.31947   0.00000  Uiso   1.00
H214   H     0.10233   0.43087   0.04004   0.00000  Uiso   1.00
H215   H     0.88413   0.75496   0.98732   0.00000  Uiso   1.00
H216   H     0.75585   0.77374   0.97884   0.00000  Uiso   1.00
H217   H     0.92540   0.82585   0.04943   0.00000  Uiso   1.00
H218   H     0.96763   0.67900   0.91692   0.00000  Uiso   1.00
H219   H     0.61917   0.77300   0.99594   0.00000  Uiso   1.00
H220   H     0.97671   0.88286   0.14477   0.00000  Uiso   1.00
H221   H     0.06575   0.57321   0.86534   0.00000  Uiso   1.00
O222   O     0.55385   0.71119   0.08140   0.00000  Uiso   1.00
O223   O     0.02293   0.85533   0.27666   0.00000  Uiso   1.00
O224   O     0.13975   0.44907   0.91006   0.00000  Uiso   1.00
N225   N     0.66475   0.66157   0.13068   0.00000  Uiso   1.00
N226   N     0.99901   0.76430   0.26983   0.00000  Uiso   1.00
N227   N     0.08228   0.47480   0.00859   0.00000  Uiso   1.00
N228   N     0.64507   0.73816   0.03667   0.00000  Uiso   1.00
N229   N     0.97933   0.84089   0.17583   0.00000  Uiso   1.00
N230   N     0.06259   0.55139   0.91459   0.00000  Uiso   1.00
C231   C     0.89678   0.24171   0.85727   0.00000  Uiso   1.00
C232   C     0.90996   0.24828   0.78004   0.00000  Uiso   1.00
C233   C     0.86562   0.29140   0.72570   0.00000  Uiso   1.00
C234   C     0.88711   0.28989   0.65869   0.00000  Uiso   1.00
C235   C     0.89792   0.30667   0.54062   0.00000  Uiso   1.00
C236   C     0.95545   0.25104   0.89184   0.00000  Uiso   1.00
C237   C     0.94934   0.29647   0.93151   0.00000  Uiso   1.00
C238   C     0.00913   0.29727   0.95863   0.00000  Uiso   1.00
C239   C     0.09055   0.31830   0.01417   0.00000  Uiso   1.00
C240   C     0.90513   0.17143   0.88461   0.00000  Uiso   1.00
C241   C     0.85673   0.14993   0.91821   0.00000  Uiso   1.00
C242   C     0.87416   0.08372   0.93926   0.00000  Uiso   1.00
C243   C     0.87747   0.98115   0.98357   0.00000  Uiso   1.00
C244   C     0.01380   0.16235   0.83491   0.00000  Uiso   1.00
C245   C     0.97352   0.20518   0.76789   0.00000  Uiso   1.00
C246   C     0.99509   0.20360   0.70095   0.00000  Uiso   1.00
C247   C     0.95078   0.24671   0.64652   0.00000  Uiso   1.00
C248   C     0.01901   0.20794   0.87969   0.00000  Uiso   1.00
C249   C     0.07881   0.20867   0.90676   0.00000  Uiso   1.00
C250   C     0.07280   0.25409   0.94646   0.00000  Uiso   1.00
C251   C     0.96869   0.12833   0.87246   0.00000  Uiso   1.00
C252   C     0.98620   0.06214   0.89346   0.00000  Uiso   1.00
C253   C     0.93784   0.04054   0.92709   0.00000  Uiso   1.00
H254   H     0.84730   0.27526   0.86673   0.00000  Uiso   1.00
H255   H     0.81643   0.32475   0.73512   0.00000  Uiso   1.00
H256   H     0.90015   0.32981   0.94091   0.00000  Uiso   1.00
H257   H     0.80755   0.18330   0.92761   0.00000  Uiso   1.00
H258   H     0.81025   0.36062   0.58385   0.00000  Uiso   1.00
H259   H     0.98677   0.37128   0.01778   0.00000  Uiso   1.00
H260   H     0.79151   0.06233   0.98974   0.00000  Uiso   1.00
H261   H     0.06329   0.12880   0.82545   0.00000  Uiso   1.00
H262   H     0.04428   0.17024   0.69157   0.00000  Uiso   1.00
H263   H     0.12799   0.17531   0.89735   0.00000  Uiso   1.00
H264   H     0.03540   0.02880   0.88405   0.00000  Uiso   1.00
H265   H     0.99518   0.23522   0.54850   0.00000  Uiso   1.00
H266   H     0.17170   0.24588   0.98243   0.00000  Uiso   1.00
H267   H     0.97644   0.93693   0.95438   0.00000  Uiso   1.00
O268   O     0.88632   0.32784   0.47885   0.00000  Uiso   1.00
O269   O     0.11790   0.34182   0.04816   0.00000  Uiso   1.00
O270   O     0.86173   0.93649   0.01136   0.00000  Uiso   1.00
N271   N     0.85638   0.32541   0.59391   0.00000  Uiso   1.00
N272   N     0.02141   0.33538   0.99959   0.00000  Uiso   1.00
N273   N     0.83887   0.04654   0.97339   0.00000  Uiso   1.00
N274   N     0.95589   0.25793   0.57488   0.00000  Uiso   1.00
N275   N     0.12092   0.26790   0.98057   0.00000  Uiso   1.00
N276   N     0.93838   0.97907   0.95437   0.00000  Uiso   1.00
C277   C     0.36913   0.76887   0.59215   0.00000  Uiso   1.00
C278   C     0.36155   0.75589   0.67055   0.00000  Uiso   1.00
C279   C     0.30067   0.77250   0.70302   0.00000  Uiso   1.00
C280   C     0.30451   0.75641   0.77529   0.00000  Uiso   1.00
C281   C     0.28323   0.74104   0.89120   0.00000  Uiso   1.00
C282   C     0.40893   0.70354   0.57510   0.00000  Uiso   1.00
C283   C     0.38789   0.67614   0.52730   0.00000  Uiso   1.00
C284   C     0.43162   0.61598   0.51922   0.00000  Uiso   1.00
C285   C     0.48392   0.51936   0.48690   0.00000  Uiso   1.00
C286   C     0.41576   0.80734   0.57919   0.00000  Uiso   1.00
C287   C     0.40048   0.86720   0.53482   0.00000  Uiso   1.00
C288   C     0.44997   0.89444   0.53018   0.00000  Uiso   1.00
C289   C     0.51288   0.95897   0.50421   0.00000  Uiso   1.00
C290   C     0.48420   0.71077   0.66278   0.00000  Uiso   1.00
C291   C     0.42405   0.72434   0.70891   0.00000  Uiso   1.00
C292   C     0.42798   0.70822   0.78116   0.00000  Uiso   1.00
C293   C     0.36712   0.72480   0.81373   0.00000  Uiso   1.00
C294   C     0.47143   0.67199   0.61346   0.00000  Uiso   1.00
C295   C     0.51520   0.61186   0.60545   0.00000  Uiso   1.00
C296   C     0.49423   0.58437   0.55765   0.00000  Uiso   1.00
C297   C     0.47827   0.77579   0.61756   0.00000  Uiso   1.00
C298   C     0.52779   0.80293   0.61297   0.00000  Uiso   1.00
C299   C     0.51258   0.86282   0.56861   0.00000  Uiso   1.00
H300   H     0.32047   0.79343   0.56228   0.00000  Uiso   1.00
H301   H     0.25231   0.79691   0.67331   0.00000  Uiso   1.00
H302   H     0.33952   0.70057   0.49761   0.00000  Uiso   1.00
H303   H     0.35211   0.89161   0.50514   0.00000  Uiso   1.00
H304   H     0.20431   0.78683   0.81332   0.00000  Uiso   1.00
H305   H     0.38820   0.58370   0.44285   0.00000  Uiso   1.00
H306   H     0.41474   0.98655   0.45872   0.00000  Uiso   1.00
H307   H     0.53286   0.68620   0.69265   0.00000  Uiso   1.00
H308   H     0.47636   0.68380   0.81084   0.00000  Uiso   1.00
H309   H     0.56357   0.58746   0.63514   0.00000  Uiso   1.00
H310   H     0.57615   0.77850   0.64267   0.00000  Uiso   1.00
H311   H     0.38615   0.69503   0.92495   0.00000  Uiso   1.00
H312   H     0.57005   0.49190   0.55447   0.00000  Uiso   1.00
H313   H     0.59659   0.89474   0.57034   0.00000  Uiso   1.00
O314   O     0.25423   0.74127   0.94453   0.00000  Uiso   1.00
O315   O     0.49550   0.47477   0.45847   0.00000  Uiso   1.00
O316   O     0.53031   0.00329   0.47930   0.00000  Uiso   1.00
N317   N     0.25486   0.76557   0.82338   0.00000  Uiso   1.00
N318   N     0.42679   0.57565   0.47701   0.00000  Uiso   1.00
N319   N     0.45161   0.95226   0.49183   0.00000  Uiso   1.00
N320   N     0.35271   0.71617   0.88344   0.00000  Uiso   1.00
N321   N     0.52464   0.52625   0.53708   0.00000  Uiso   1.00
N322   N     0.54946   0.90287   0.55190   0.00000  Uiso   1.00
C323   C     0.81742   0.50188   0.73010   0.00000  Uiso   1.00
C324   C     0.88031   0.46643   0.69479   0.00000  Uiso   1.00
C325   C     0.94550   0.43540   0.72596   0.00000  Uiso   1.00
C326   C     0.99614   0.40577   0.68484   0.00000  Uiso   1.00
C327   C     0.09595   0.35048   0.64064   0.00000  Uiso   1.00
C328   C     0.76596   0.47076   0.72151   0.00000  Uiso   1.00
C329   C     0.73499   0.44339   0.77513   0.00000  Uiso   1.00
C330   C     0.68936   0.41741   0.75649   0.00000  Uiso   1.00
C331   C     0.61158   0.36890   0.75376   0.00000  Uiso   1.00
C332   C     0.78818   0.57019   0.68597   0.00000  Uiso   1.00
C333   C     0.77587   0.62643   0.70971   0.00000  Uiso   1.00
C334   C     0.74893   0.68418   0.66115   0.00000  Uiso   1.00
C335   C     0.70565   0.79005   0.60324   0.00000  Uiso   1.00
C336   C     0.79143   0.50443   0.60164   0.00000  Uiso   1.00
C337   C     0.86620   0.46781   0.62502   0.00000  Uiso   1.00
C338   C     0.91676   0.43822   0.58384   0.00000  Uiso   1.00
C339   C     0.98201   0.40716   0.61494   0.00000  Uiso   1.00
C340   C     0.75184   0.47214   0.65174   0.00000  Uiso   1.00
C341   C     0.70624   0.44621   0.63301   0.00000  Uiso   1.00
C342   C     0.67522   0.41880   0.68659   0.00000  Uiso   1.00
C343   C     0.77406   0.57158   0.61619   0.00000  Uiso   1.00
C344   C     0.74713   0.62925   0.56758   0.00000  Uiso   1.00
C345   C     0.73479   0.68556   0.59125   0.00000  Uiso   1.00
H346   H     0.82840   0.50080   0.78442   0.00000  Uiso   1.00
H347   H     0.95640   0.43434   0.77996   0.00000  Uiso   1.00
H348   H     0.74591   0.44233   0.82912   0.00000  Uiso   1.00
H349   H     0.78680   0.62534   0.76371   0.00000  Uiso   1.00
H350   H     0.09209   0.36124   0.74425   0.00000  Uiso   1.00
H351   H     0.64825   0.37811   0.84791   0.00000  Uiso   1.00
H352   H     0.73445   0.76403   0.70997   0.00000  Uiso   1.00
H353   H     0.78044   0.50551   0.54732   0.00000  Uiso   1.00
H354   H     0.90582   0.43930   0.52984   0.00000  Uiso   1.00
H355   H     0.69533   0.44729   0.57901   0.00000  Uiso   1.00
H356   H     0.73621   0.63030   0.51359   0.00000  Uiso   1.00
H357   H     0.05103   0.36526   0.54125   0.00000  Uiso   1.00
H358   H     0.60719   0.38214   0.64491   0.00000  Uiso   1.00
H359   H     0.69339   0.76806   0.50697   0.00000  Uiso   1.00
O360   O     0.15489   0.31959   0.63554   0.00000  Uiso   1.00
O361   O     0.57258   0.34175   0.77154   0.00000  Uiso   1.00
O362   O     0.68568   0.84806   0.59057   0.00000  Uiso   1.00
N363   N     0.06522   0.37128   0.69887   0.00000  Uiso   1.00
N364   N     0.65026   0.38705   0.79578   0.00000  Uiso   1.00
N365   N     0.73084   0.74785   0.66683   0.00000  Uiso   1.00
N366   N     0.04313   0.37345   0.58964   0.00000  Uiso   1.00
N367   N     0.62817   0.38922   0.68655   0.00000  Uiso   1.00
N368   N     0.70875   0.75002   0.55760   0.00000  Uiso   1.00
C369   C     0.79596   0.75798   0.30259   0.00000  Uiso   1.00
C370   C     0.77226   0.82818   0.26362   0.00000  Uiso   1.00
C371   C     0.78451   0.84979   0.19517   0.00000  Uiso   1.00
C372   C     0.75852   0.91590   0.16904   0.00000  Uiso   1.00
C373   C     0.72731   0.01838   0.10229   0.00000  Uiso   1.00
C374   C     0.73211   0.74622   0.32809   0.00000  Uiso   1.00
C375   C     0.71061   0.69891   0.31385   0.00000  Uiso   1.00
C376   C     0.65083   0.69603   0.34201   0.00000  Uiso   1.00
C377   C     0.55731   0.67123   0.37539   0.00000  Uiso   1.00
C378   C     0.83694   0.75366   0.36769   0.00000  Uiso   1.00
C379   C     0.90357   0.71260   0.38676   0.00000  Uiso   1.00
C380   C     0.93203   0.71597   0.44827   0.00000  Uiso   1.00
C381   C     0.00127   0.70274   0.54314   0.00000  Uiso   1.00
C382   C     0.72802   0.83697   0.37793   0.00000  Uiso   1.00
C383   C     0.73536   0.87108   0.30454   0.00000  Uiso   1.00
C384   C     0.70935   0.93718   0.27852   0.00000  Uiso   1.00
C385   C     0.72155   0.95889   0.21004   0.00000  Uiso   1.00
C386   C     0.69521   0.78912   0.36901   0.00000  Uiso   1.00
C387   C     0.63545   0.78630   0.39720   0.00000  Uiso   1.00
C388   C     0.61386   0.73901   0.38300   0.00000  Uiso   1.00
C389   C     0.80004   0.79657   0.40861   0.00000  Uiso   1.00
C390   C     0.82840   0.80000   0.47011   0.00000  Uiso   1.00
C391   C     0.89506   0.75896   0.48926   0.00000  Uiso   1.00
H392   H     0.82468   0.72457   0.27074   0.00000  Uiso   1.00
H393   H     0.81306   0.81657   0.16351   0.00000  Uiso   1.00
H394   H     0.73918   0.66571   0.28219   0.00000  Uiso   1.00
H395   H     0.93210   0.67940   0.35508   0.00000  Uiso   1.00
H396   H     0.78388   0.93748   0.06268   0.00000  Uiso   1.00
H397   H     0.62811   0.61938   0.31292   0.00000  Uiso   1.00
H398   H     0.03493   0.64825   0.46664   0.00000  Uiso   1.00
H399   H     0.69929   0.87037   0.40979   0.00000  Uiso   1.00
H400   H     0.68079   0.97038   0.31020   0.00000  Uiso   1.00
H401   H     0.60691   0.81951   0.42887   0.00000  Uiso   1.00
H402   H     0.79983   0.83321   0.50176   0.00000  Uiso   1.00
H403   H     0.67652   0.06232   0.18173   0.00000  Uiso   1.00
H404   H     0.52076   0.74421   0.43198   0.00000  Uiso   1.00
H405   H     0.92757   0.77309   0.58569   0.00000  Uiso   1.00
O406   O     0.72028   0.06305   0.05417   0.00000  Uiso   1.00
O407   O     0.51592   0.64570   0.38250   0.00000  Uiso   1.00
O408   O     0.04966   0.68359   0.58416   0.00000  Uiso   1.00
N409   N     0.76117   0.95314   0.10437   0.00000  Uiso   1.00
N410   N     0.61553   0.65573   0.33832   0.00000  Uiso   1.00
N411   N     0.99586   0.68272   0.48204   0.00000  Uiso   1.00
N412   N     0.70340   0.02032   0.16843   0.00000  Uiso   1.00
N413   N     0.55776   0.72291   0.40239   0.00000  Uiso   1.00
N414   N     0.93809   0.74989   0.54610   0.00000  Uiso   1.00
C415   C     0.82311   0.27197   0.21650   0.00000  Uiso   1.00
C416   C     0.78114   0.32678   0.15774   0.00000  Uiso   1.00
C417   C     0.71140   0.35929   0.15510   0.00000  Uiso   1.00
C418   C     0.68252   0.40797   0.09686   0.00000  Uiso   1.00
C419   C     0.61134   0.49069   0.01376   0.00000  Uiso   1.00
C420   C     0.86046   0.21544   0.18261   0.00000  Uiso   1.00
C421   C     0.85742   0.15433   0.20088   0.00000  Uiso   1.00
C422   C     0.89532   0.10928   0.16357   0.00000  Uiso   1.00
C423   C     0.94732   0.01913   0.11911   0.00000  Uiso   1.00
C424   C     0.87757   0.29332   0.24149   0.00000  Uiso   1.00
C425   C     0.88893   0.29768   0.30928   0.00000  Uiso   1.00
C426   C     0.94125   0.31819   0.32155   0.00000  Uiso   1.00
C427   C     0.01981   0.34895   0.36852   0.00000  Uiso   1.00
C428   C     0.89583   0.30062   0.11777   0.00000  Uiso   1.00
C429   C     0.82064   0.34234   0.10411   0.00000  Uiso   1.00
C430   C     0.79186   0.39099   0.04586   0.00000  Uiso   1.00
C431   C     0.72209   0.42357   0.04314   0.00000  Uiso   1.00
C432   C     0.89996   0.23100   0.12898   0.00000  Uiso   1.00
C433   C     0.93788   0.18603   0.09164   0.00000  Uiso   1.00
C434   C     0.93489   0.12487   0.10985   0.00000  Uiso   1.00
C435   C     0.91707   0.30889   0.18786   0.00000  Uiso   1.00
C436   C     0.96938   0.32938   0.20004   0.00000  Uiso   1.00
C437   C     0.98082   0.33377   0.26783   0.00000  Uiso   1.00
H438   H     0.79236   0.25985   0.25825   0.00000  Uiso   1.00
H439   H     0.68085   0.34723   0.19661   0.00000  Uiso   1.00
H440   H     0.82686   0.14230   0.24239   0.00000  Uiso   1.00
H441   H     0.85835   0.28563   0.35077   0.00000  Uiso   1.00
H442   H     0.57464   0.45095   0.10461   0.00000  Uiso   1.00
H443   H     0.88251   0.01884   0.20114   0.00000  Uiso   1.00
H444   H     0.94894   0.32108   0.42969   0.00000  Uiso   1.00
H445   H     0.92659   0.31274   0.07601   0.00000  Uiso   1.00
H446   H     0.82244   0.40302   0.00437   0.00000  Uiso   1.00
H447   H     0.96844   0.19809   0.05014   0.00000  Uiso   1.00
H448   H     0.99994   0.34142   0.15853   0.00000  Uiso   1.00
H449   H     0.68955   0.49623   0.94858   0.00000  Uiso   1.00
H450   H     0.99743   0.06412   0.04511   0.00000  Uiso   1.00
H451   H     0.06385   0.36636   0.27365   0.00000  Uiso   1.00
O452   O     0.56116   0.53201   0.98274   0.00000  Uiso   1.00
O453   O     0.96509   0.96510   0.10940   0.00000  Uiso   1.00
O454   O     0.05223   0.36163   0.40924   0.00000  Uiso   1.00
N455   N     0.61598   0.44922   0.07772   0.00000  Uiso   1.00
N456   N     0.90381   0.04523   0.16797   0.00000  Uiso   1.00
N457   N     0.96592   0.32778   0.38164   0.00000  Uiso   1.00
N458   N     0.67781   0.47359   0.99376   0.00000  Uiso   1.00
N459   N     0.96565   0.06960   0.08401   0.00000  Uiso   1.00
N460   N     0.02776   0.35215   0.29769   0.00000  Uiso   1.00
C461   C     0.33716   0.24189   0.91004   0.00000  Uiso   1.00
C462   C     0.41441   0.21456   0.90958   0.00000  Uiso   1.00
C463   C     0.45531   0.24992   0.88775   0.00000  Uiso   1.00
C464   C     0.52486   0.21597   0.89137   0.00000  Uiso   1.00
C465   C     0.64061   0.18371   0.88688   0.00000  Uiso   1.00
C466   C     0.31155   0.20564   0.86676   0.00000  Uiso   1.00
C467   C     0.26596   0.23351   0.80895   0.00000  Uiso   1.00
C468   C     0.24890   0.19204   0.77653   0.00000  Uiso   1.00
C469   C     0.20492   0.14593   0.70560   0.00000  Uiso   1.00
C470   C     0.32031   0.22105   0.98477   0.00000  Uiso   1.00
C471   C     0.28207   0.26188   0.02618   0.00000  Uiso   1.00
C472   C     0.27238   0.23340   0.09311   0.00000  Uiso   1.00
C473   C     0.24200   0.21123   0.20541   0.00000  Uiso   1.00
C474   C     0.38792   0.11870   0.95528   0.00000  Uiso   1.00
C475   C     0.44198   0.14765   0.93415   0.00000  Uiso   1.00
C476   C     0.51148   0.11363   0.93780   0.00000  Uiso   1.00
C477   C     0.55248   0.14894   0.91598   0.00000  Uiso   1.00
C478   C     0.33912   0.13873   0.89133   0.00000  Uiso   1.00
C479   C     0.32213   0.09722   0.85899   0.00000  Uiso   1.00
C480   C     0.27653   0.12502   0.80114   0.00000  Uiso   1.00
C481   C     0.34788   0.15414   0.00935   0.00000  Uiso   1.00
C482   C     0.33824   0.12559   0.07623   0.00000  Uiso   1.00
C483   C     0.30000   0.16637   0.11773   0.00000  Uiso   1.00
H484   H     0.31569   0.29398   0.89091   0.00000  Uiso   1.00
H485   H     0.43395   0.30170   0.86874   0.00000  Uiso   1.00
H486   H     0.24462   0.28529   0.78995   0.00000  Uiso   1.00
H487   H     0.26074   0.31366   0.00715   0.00000  Uiso   1.00
H488   H     0.57723   0.28076   0.85496   0.00000  Uiso   1.00
H489   H     0.17800   0.24614   0.68885   0.00000  Uiso   1.00
H490   H     0.21198   0.30597   0.14686   0.00000  Uiso   1.00
H491   H     0.40939   0.06661   0.97440   0.00000  Uiso   1.00
H492   H     0.53281   0.06185   0.95681   0.00000  Uiso   1.00
H493   H     0.34347   0.04544   0.87802   0.00000  Uiso   1.00
H494   H     0.35959   0.07381   0.09522   0.00000  Uiso   1.00
H495   H     0.65747   0.08609   0.92644   0.00000  Uiso   1.00
H496   H     0.25823   0.05148   0.76034   0.00000  Uiso   1.00
H497   H     0.29221   0.11130   0.21834   0.00000  Uiso   1.00
O498   O     0.69684   0.18439   0.87760   0.00000  Uiso   1.00
O499   O     0.17305   0.13899   0.65968   0.00000  Uiso   1.00
O500   O     0.21764   0.21748   0.26057   0.00000  Uiso   1.00
N501   N     0.57918   0.23559   0.87421   0.00000  Uiso   1.00
N502   N     0.20593   0.20323   0.71890   0.00000  Uiso   1.00
N503   N     0.23768   0.25917   0.14709   0.00000  Uiso   1.00
N504   N     0.62235   0.13084   0.91268   0.00000  Uiso   1.00
N505   N     0.24910   0.09848   0.75737   0.00000  Uiso   1.00
N506   N     0.28085   0.15442   0.18556   0.00000  Uiso   1.00
C507   C     0.31503   0.73858   0.23959   0.00000  Uiso   1.00
C508   C     0.28758   0.70770   0.30379   0.00000  Uiso   1.00
C509   C     0.30830   0.64214   0.33219   0.00000  Uiso   1.00
C510   C     0.27697   0.62356   0.39104   0.00000  Uiso   1.00
C511   C     0.24197   0.56871   0.48625   0.00000  Uiso   1.00
C512   C     0.25361   0.77883   0.18915   0.00000  Uiso   1.00
C513   C     0.24578   0.77308   0.12116   0.00000  Uiso   1.00
C514   C     0.18586   0.81439   0.08349   0.00000  Uiso   1.00
C515   C     0.09814   0.86999   0.00070   0.00000  Uiso   1.00
C516   C     0.34050   0.78649   0.26282   0.00000  Uiso   1.00
C517   C     0.40573   0.78720   0.25675   0.00000  Uiso   1.00
C518   C     0.41897   0.83497   0.28109   0.00000  Uiso   1.00
C519   C     0.46617   0.90247   0.31269   0.00000  Uiso   1.00
C520   C     0.22253   0.82216   0.29359   0.00000  Uiso   1.00
C521   C     0.23733   0.75310   0.33312   0.00000  Uiso   1.00
C522   C     0.20597   0.73462   0.39194   0.00000  Uiso   1.00
C523   C     0.22664   0.66904   0.42042   0.00000  Uiso   1.00
C524   C     0.20337   0.82423   0.21848   0.00000  Uiso   1.00
C525   C     0.14345   0.86556   0.18090   0.00000  Uiso   1.00
C526   C     0.13553   0.85987   0.11287   0.00000  Uiso   1.00
C527   C     0.29026   0.83189   0.29215   0.00000  Uiso   1.00
C528   C     0.30340   0.87967   0.31650   0.00000  Uiso   1.00
C529   C     0.36863   0.88045   0.31048   0.00000  Uiso   1.00
H530   H     0.35414   0.70323   0.21675   0.00000  Uiso   1.00
H531   H     0.34718   0.60702   0.30948   0.00000  Uiso   1.00
H532   H     0.28467   0.73795   0.09847   0.00000  Uiso   1.00
H533   H     0.44460   0.75206   0.23405   0.00000  Uiso   1.00
H534   H     0.31729   0.52037   0.42520   0.00000  Uiso   1.00
H535   H     0.18550   0.79645   0.98028   0.00000  Uiso   1.00
H536   H     0.52274   0.82620   0.26617   0.00000  Uiso   1.00
H537   H     0.18341   0.85751   0.31642   0.00000  Uiso   1.00
H538   H     0.16709   0.76976   0.41462   0.00000  Uiso   1.00
H539   H     0.10458   0.90069   0.20361   0.00000  Uiso   1.00
H540   H     0.26451   0.91480   0.33919   0.00000  Uiso   1.00
H541   H     0.17112   0.65246   0.51054   0.00000  Uiso   1.00
H542   H     0.03933   0.92854   0.06561   0.00000  Uiso   1.00
H543   H     0.37657   0.95829   0.35151   0.00000  Uiso   1.00
O544   O     0.23653   0.52590   0.53066   0.00000  Uiso   1.00
O545   O     0.06363   0.88812   0.94693   0.00000  Uiso   1.00
O546   O     0.50608   0.92715   0.32202   0.00000  Uiso   1.00
N547   N     0.28514   0.56350   0.43182   0.00000  Uiso   1.00
N548   N     0.16192   0.82161   0.01584   0.00000  Uiso   1.00
N549   N     0.47720   0.84944   0.28311   0.00000  Uiso   1.00
N550   N     0.20649   0.63457   0.47774   0.00000  Uiso   1.00
N551   N     0.08326   0.89268   0.06176   0.00000  Uiso   1.00
N552   N     0.39855   0.92051   0.32903   0.00000  Uiso   1.00
