data_job_03674
_audit_creation_date              2018-12-19
_audit_creation_method            'Materials Studio'
_symmetry_space_group_name_H-M    'P1'
_symmetry_Int_Tables_number       1
_symmetry_cell_setting            triclinic
loop_
_symmetry_equiv_pos_as_xyz
  x,y,z
_cell_length_a                    12.4612
_cell_length_b                    31.7525
_cell_length_c                    21.1469
_cell_angle_alpha                 90.0000
_cell_angle_beta                  124.5349
_cell_angle_gamma                 90.0000
loop_
_atom_site_label
_atom_site_type_symbol
_atom_site_fract_x
_atom_site_fract_y
_atom_site_fract_z
_atom_site_U_iso_or_equiv
_atom_site_adp_type
_atom_site_occupancy
C1     C     0.18983   0.60418   0.54879   0.00000  Uiso   1.00
C2     C     0.20010   0.64871   0.57876   0.00000  Uiso   1.00
C3     C     0.28433   0.66165   0.65441   0.00000  Uiso   1.00
C4     C     0.27879   0.70373   0.67019   0.00000  Uiso   1.00
C5     C     0.30788   0.76860   0.72554   0.00000  Uiso   1.00
C6     C     0.04780   0.59117   0.50941   0.00000  Uiso   1.00
C7     C     0.00399   0.55572   0.52674   0.00000  Uiso   1.00
C8     C     0.87024   0.54936   0.48412   0.00000  Uiso   1.00
C9     C     0.66289   0.52487   0.43175   0.00000  Uiso   1.00
C10    C     0.21218   0.60811   0.48521   0.00000  Uiso   1.00
C11    C     0.30656   0.58690   0.48219   0.00000  Uiso   1.00
C12    C     0.31119   0.59480   0.41920   0.00000  Uiso   1.00
C13    C     0.35907   0.59662   0.32927   0.00000  Uiso   1.00
C14    C     0.03020   0.65591   0.44228   0.00000  Uiso   1.00
C15    C     0.11339   0.67681   0.52091   0.00000  Uiso   1.00
C16    C     0.10772   0.71888   0.53658   0.00000  Uiso   1.00
C17    C     0.19193   0.73188   0.61224   0.00000  Uiso   1.00
C18    C     0.96110   0.61926   0.45156   0.00000  Uiso   1.00
C19    C     0.82738   0.61295   0.40890   0.00000  Uiso   1.00
C20    C     0.78338   0.57750   0.42617   0.00000  Uiso   1.00
C21    C     0.12548   0.63621   0.42736   0.00000  Uiso   1.00
C22    C     0.12995   0.64414   0.36436   0.00000  Uiso   1.00
C23    C     0.22432   0.62295   0.36124   0.00000  Uiso   1.00
H24    H     0.25732   0.58231   0.59383   0.00000  Uiso   1.00
H25    H     0.35141   0.63989   0.69917   0.00000  Uiso   1.00
H26    H     0.07111   0.53398   0.57150   0.00000  Uiso   1.00
H27    H     0.37364   0.56516   0.52697   0.00000  Uiso   1.00
H28    H     0.41745   0.71613   0.79045   0.00000  Uiso   1.00
H29    H     0.82643   0.49280   0.52125   0.00000  Uiso   1.00
H30    H     0.46437   0.55855   0.42733   0.00000  Uiso   1.00
H31    H     0.96269   0.67778   0.39724   0.00000  Uiso   1.00
H32    H     0.04061   0.74062   0.49180   0.00000  Uiso   1.00
H33    H     0.76031   0.63470   0.36414   0.00000  Uiso   1.00
H34    H     0.06284   0.66588   0.31960   0.00000  Uiso   1.00
H35    H     0.16519   0.79788   0.62215   0.00000  Uiso   1.00
H36    H     0.57417   0.57454   0.35294   0.00000  Uiso   1.00
H37    H     0.21211   0.64030   0.25903   0.00000  Uiso   1.00
O38    O     0.34787   0.79661   0.77205   0.00000  Uiso   1.00
O39    O     0.57248   0.50360   0.41886   0.00000  Uiso   1.00
O40    O     0.40944   0.58987   0.29565   0.00000  Uiso   1.00
N41    N     0.34741   0.72675   0.73786   0.00000  Uiso   1.00
N42    N     0.79484   0.51795   0.48618   0.00000  Uiso   1.00
N43    N     0.39123   0.57941   0.39837   0.00000  Uiso   1.00
N44    N     0.21167   0.77074   0.64730   0.00000  Uiso   1.00
N45    N     0.65910   0.56194   0.39562   0.00000  Uiso   1.00
N46    N     0.25550   0.62340   0.30780   0.00000  Uiso   1.00
C47    C     0.68983   0.10418   0.54879   0.00000  Uiso   1.00
C48    C     0.70010   0.14871   0.57876   0.00000  Uiso   1.00
C49    C     0.78433   0.16165   0.65441   0.00000  Uiso   1.00
C50    C     0.77879   0.20373   0.67019   0.00000  Uiso   1.00
C51    C     0.80788   0.26860   0.72554   0.00000  Uiso   1.00
C52    C     0.54780   0.09117   0.50941   0.00000  Uiso   1.00
C53    C     0.50399   0.05572   0.52674   0.00000  Uiso   1.00
C54    C     0.37024   0.04936   0.48412   0.00000  Uiso   1.00
C55    C     0.16289   0.02487   0.43175   0.00000  Uiso   1.00
C56    C     0.71218   0.10811   0.48521   0.00000  Uiso   1.00
C57    C     0.80656   0.08690   0.48219   0.00000  Uiso   1.00
C58    C     0.81119   0.09480   0.41920   0.00000  Uiso   1.00
C59    C     0.85907   0.09662   0.32927   0.00000  Uiso   1.00
C60    C     0.53020   0.15591   0.44228   0.00000  Uiso   1.00
C61    C     0.61339   0.17681   0.52091   0.00000  Uiso   1.00
C62    C     0.60772   0.21888   0.53658   0.00000  Uiso   1.00
C63    C     0.69193   0.23188   0.61224   0.00000  Uiso   1.00
C64    C     0.46110   0.11926   0.45156   0.00000  Uiso   1.00
C65    C     0.32738   0.11295   0.40890   0.00000  Uiso   1.00
C66    C     0.28338   0.07750   0.42617   0.00000  Uiso   1.00
C67    C     0.62548   0.13621   0.42736   0.00000  Uiso   1.00
C68    C     0.62995   0.14414   0.36436   0.00000  Uiso   1.00
C69    C     0.72432   0.12295   0.36124   0.00000  Uiso   1.00
H70    H     0.75732   0.08231   0.59383   0.00000  Uiso   1.00
H71    H     0.85141   0.13989   0.69917   0.00000  Uiso   1.00
H72    H     0.57111   0.03398   0.57150   0.00000  Uiso   1.00
H73    H     0.87364   0.06516   0.52697   0.00000  Uiso   1.00
H74    H     0.91745   0.21613   0.79045   0.00000  Uiso   1.00
H75    H     0.32643   0.99280   0.52125   0.00000  Uiso   1.00
H76    H     0.96437   0.05855   0.42733   0.00000  Uiso   1.00
H77    H     0.46269   0.17778   0.39724   0.00000  Uiso   1.00
H78    H     0.54061   0.24062   0.49180   0.00000  Uiso   1.00
H79    H     0.26031   0.13470   0.36414   0.00000  Uiso   1.00
H80    H     0.56284   0.16588   0.31960   0.00000  Uiso   1.00
H81    H     0.66519   0.29788   0.62215   0.00000  Uiso   1.00
H82    H     0.07417   0.07454   0.35294   0.00000  Uiso   1.00
H83    H     0.71211   0.14030   0.25903   0.00000  Uiso   1.00
O84    O     0.84787   0.29661   0.77205   0.00000  Uiso   1.00
O85    O     0.07248   0.00360   0.41886   0.00000  Uiso   1.00
O86    O     0.90944   0.08987   0.29565   0.00000  Uiso   1.00
N87    N     0.84741   0.22675   0.73786   0.00000  Uiso   1.00
N88    N     0.29484   0.01795   0.48618   0.00000  Uiso   1.00
N89    N     0.89123   0.07941   0.39837   0.00000  Uiso   1.00
N90    N     0.71167   0.27074   0.64730   0.00000  Uiso   1.00
N91    N     0.15910   0.06194   0.39562   0.00000  Uiso   1.00
N92    N     0.75550   0.12340   0.30780   0.00000  Uiso   1.00
C93    C     0.81017   0.60418   0.95121   0.00000  Uiso   1.00
C94    C     0.79990   0.64871   0.92124   0.00000  Uiso   1.00
C95    C     0.71567   0.66165   0.84559   0.00000  Uiso   1.00
C96    C     0.72121   0.70373   0.82981   0.00000  Uiso   1.00
C97    C     0.69212   0.76860   0.77446   0.00000  Uiso   1.00
C98    C     0.95220   0.59117   0.99059   0.00000  Uiso   1.00
C99    C     0.99601   0.55572   0.97326   0.00000  Uiso   1.00
C100   C     0.12976   0.54936   0.01588   0.00000  Uiso   1.00
C101   C     0.33711   0.52487   0.06825   0.00000  Uiso   1.00
C102   C     0.78782   0.60811   0.01479   0.00000  Uiso   1.00
C103   C     0.69344   0.58690   0.01781   0.00000  Uiso   1.00
C104   C     0.68881   0.59480   0.08080   0.00000  Uiso   1.00
C105   C     0.64093   0.59662   0.17073   0.00000  Uiso   1.00
C106   C     0.96980   0.65591   0.05772   0.00000  Uiso   1.00
C107   C     0.88661   0.67681   0.97909   0.00000  Uiso   1.00
C108   C     0.89228   0.71888   0.96342   0.00000  Uiso   1.00
C109   C     0.80807   0.73188   0.88776   0.00000  Uiso   1.00
C110   C     0.03890   0.61926   0.04844   0.00000  Uiso   1.00
C111   C     0.17262   0.61295   0.09110   0.00000  Uiso   1.00
C112   C     0.21662   0.57750   0.07383   0.00000  Uiso   1.00
C113   C     0.87452   0.63621   0.07264   0.00000  Uiso   1.00
C114   C     0.87005   0.64414   0.13564   0.00000  Uiso   1.00
C115   C     0.77568   0.62295   0.13876   0.00000  Uiso   1.00
H116   H     0.74268   0.58231   0.90617   0.00000  Uiso   1.00
H117   H     0.64859   0.63989   0.80083   0.00000  Uiso   1.00
H118   H     0.92889   0.53398   0.92850   0.00000  Uiso   1.00
H119   H     0.62636   0.56516   0.97303   0.00000  Uiso   1.00
H120   H     0.58255   0.71613   0.70955   0.00000  Uiso   1.00
H121   H     0.17357   0.49280   0.97875   0.00000  Uiso   1.00
H122   H     0.53563   0.55855   0.07267   0.00000  Uiso   1.00
H123   H     0.03731   0.67778   0.10276   0.00000  Uiso   1.00
H124   H     0.95939   0.74062   0.00820   0.00000  Uiso   1.00
H125   H     0.23969   0.63470   0.13586   0.00000  Uiso   1.00
H126   H     0.93716   0.66588   0.18040   0.00000  Uiso   1.00
H127   H     0.83481   0.79788   0.87785   0.00000  Uiso   1.00
H128   H     0.42583   0.57454   0.14706   0.00000  Uiso   1.00
H129   H     0.78789   0.64030   0.24097   0.00000  Uiso   1.00
O130   O     0.65213   0.79661   0.72795   0.00000  Uiso   1.00
O131   O     0.42752   0.50360   0.08114   0.00000  Uiso   1.00
O132   O     0.59056   0.58987   0.20435   0.00000  Uiso   1.00
N133   N     0.65259   0.72675   0.76214   0.00000  Uiso   1.00
N134   N     0.20516   0.51795   0.01382   0.00000  Uiso   1.00
N135   N     0.60877   0.57941   0.10163   0.00000  Uiso   1.00
N136   N     0.78833   0.77074   0.85270   0.00000  Uiso   1.00
N137   N     0.34090   0.56194   0.10438   0.00000  Uiso   1.00
N138   N     0.74450   0.62340   0.19220   0.00000  Uiso   1.00
C139   C     0.31017   0.10418   0.95121   0.00000  Uiso   1.00
C140   C     0.29990   0.14871   0.92124   0.00000  Uiso   1.00
C141   C     0.21567   0.16165   0.84559   0.00000  Uiso   1.00
C142   C     0.22121   0.20373   0.82981   0.00000  Uiso   1.00
C143   C     0.19212   0.26860   0.77446   0.00000  Uiso   1.00
C144   C     0.45220   0.09117   0.99059   0.00000  Uiso   1.00
C145   C     0.49601   0.05572   0.97326   0.00000  Uiso   1.00
C146   C     0.62976   0.04936   0.01588   0.00000  Uiso   1.00
C147   C     0.83711   0.02487   0.06825   0.00000  Uiso   1.00
C148   C     0.28782   0.10811   0.01479   0.00000  Uiso   1.00
C149   C     0.19344   0.08690   0.01781   0.00000  Uiso   1.00
C150   C     0.18881   0.09480   0.08080   0.00000  Uiso   1.00
C151   C     0.14093   0.09662   0.17073   0.00000  Uiso   1.00
C152   C     0.46980   0.15591   0.05772   0.00000  Uiso   1.00
C153   C     0.38661   0.17681   0.97909   0.00000  Uiso   1.00
C154   C     0.39228   0.21888   0.96342   0.00000  Uiso   1.00
C155   C     0.30807   0.23188   0.88776   0.00000  Uiso   1.00
C156   C     0.53890   0.11926   0.04844   0.00000  Uiso   1.00
C157   C     0.67262   0.11295   0.09110   0.00000  Uiso   1.00
C158   C     0.71662   0.07750   0.07383   0.00000  Uiso   1.00
C159   C     0.37452   0.13621   0.07264   0.00000  Uiso   1.00
C160   C     0.37005   0.14414   0.13564   0.00000  Uiso   1.00
C161   C     0.27568   0.12295   0.13876   0.00000  Uiso   1.00
H162   H     0.24268   0.08231   0.90617   0.00000  Uiso   1.00
H163   H     0.14859   0.13989   0.80083   0.00000  Uiso   1.00
H164   H     0.42889   0.03398   0.92850   0.00000  Uiso   1.00
H165   H     0.12636   0.06516   0.97303   0.00000  Uiso   1.00
H166   H     0.08255   0.21613   0.70955   0.00000  Uiso   1.00
H167   H     0.67357   0.99280   0.97875   0.00000  Uiso   1.00
H168   H     0.03563   0.05855   0.07267   0.00000  Uiso   1.00
H169   H     0.53731   0.17778   0.10276   0.00000  Uiso   1.00
H170   H     0.45939   0.24062   0.00820   0.00000  Uiso   1.00
H171   H     0.73969   0.13470   0.13586   0.00000  Uiso   1.00
H172   H     0.43716   0.16588   0.18040   0.00000  Uiso   1.00
H173   H     0.33481   0.29788   0.87785   0.00000  Uiso   1.00
H174   H     0.92583   0.07454   0.14706   0.00000  Uiso   1.00
H175   H     0.28789   0.14030   0.24097   0.00000  Uiso   1.00
O176   O     0.15213   0.29661   0.72795   0.00000  Uiso   1.00
O177   O     0.92752   0.00360   0.08114   0.00000  Uiso   1.00
O178   O     0.09056   0.08987   0.20435   0.00000  Uiso   1.00
N179   N     0.15259   0.22675   0.76214   0.00000  Uiso   1.00
N180   N     0.70516   0.01795   0.01382   0.00000  Uiso   1.00
N181   N     0.10877   0.07941   0.10163   0.00000  Uiso   1.00
N182   N     0.28833   0.27074   0.85270   0.00000  Uiso   1.00
N183   N     0.84090   0.06194   0.10438   0.00000  Uiso   1.00
N184   N     0.24450   0.12340   0.19220   0.00000  Uiso   1.00
C185   C     0.81017   0.39582   0.45121   0.00000  Uiso   1.00
C186   C     0.79990   0.35129   0.42124   0.00000  Uiso   1.00
C187   C     0.71567   0.33835   0.34559   0.00000  Uiso   1.00
C188   C     0.72121   0.29627   0.32981   0.00000  Uiso   1.00
C189   C     0.69212   0.23140   0.27446   0.00000  Uiso   1.00
C190   C     0.95220   0.40883   0.49059   0.00000  Uiso   1.00
C191   C     0.99601   0.44428   0.47326   0.00000  Uiso   1.00
C192   C     0.12976   0.45064   0.51588   0.00000  Uiso   1.00
C193   C     0.33711   0.47513   0.56825   0.00000  Uiso   1.00
C194   C     0.78782   0.39189   0.51479   0.00000  Uiso   1.00
C195   C     0.69344   0.41310   0.51781   0.00000  Uiso   1.00
C196   C     0.68881   0.40520   0.58080   0.00000  Uiso   1.00
C197   C     0.64093   0.40338   0.67073   0.00000  Uiso   1.00
C198   C     0.96980   0.34409   0.55772   0.00000  Uiso   1.00
C199   C     0.88661   0.32319   0.47909   0.00000  Uiso   1.00
C200   C     0.89228   0.28112   0.46342   0.00000  Uiso   1.00
C201   C     0.80807   0.26812   0.38776   0.00000  Uiso   1.00
C202   C     0.03890   0.38074   0.54844   0.00000  Uiso   1.00
C203   C     0.17262   0.38705   0.59110   0.00000  Uiso   1.00
C204   C     0.21662   0.42250   0.57383   0.00000  Uiso   1.00
C205   C     0.87452   0.36379   0.57264   0.00000  Uiso   1.00
C206   C     0.87005   0.35586   0.63564   0.00000  Uiso   1.00
C207   C     0.77568   0.37705   0.63876   0.00000  Uiso   1.00
H208   H     0.74268   0.41769   0.40617   0.00000  Uiso   1.00
H209   H     0.64859   0.36011   0.30083   0.00000  Uiso   1.00
H210   H     0.92889   0.46602   0.42850   0.00000  Uiso   1.00
H211   H     0.62636   0.43484   0.47303   0.00000  Uiso   1.00
H212   H     0.58255   0.28387   0.20955   0.00000  Uiso   1.00
H213   H     0.17357   0.50720   0.47875   0.00000  Uiso   1.00
H214   H     0.53563   0.44145   0.57267   0.00000  Uiso   1.00
H215   H     0.03731   0.32222   0.60276   0.00000  Uiso   1.00
H216   H     0.95939   0.25938   0.50820   0.00000  Uiso   1.00
H217   H     0.23969   0.36530   0.63586   0.00000  Uiso   1.00
H218   H     0.93716   0.33412   0.68040   0.00000  Uiso   1.00
H219   H     0.83481   0.20212   0.37785   0.00000  Uiso   1.00
H220   H     0.42583   0.42546   0.64706   0.00000  Uiso   1.00
H221   H     0.78789   0.35970   0.74097   0.00000  Uiso   1.00
O222   O     0.65213   0.20339   0.22795   0.00000  Uiso   1.00
O223   O     0.42752   0.49640   0.58114   0.00000  Uiso   1.00
O224   O     0.59056   0.41013   0.70435   0.00000  Uiso   1.00
N225   N     0.65259   0.27325   0.26214   0.00000  Uiso   1.00
N226   N     0.20516   0.48205   0.51382   0.00000  Uiso   1.00
N227   N     0.60877   0.42059   0.60163   0.00000  Uiso   1.00
N228   N     0.78833   0.22926   0.35270   0.00000  Uiso   1.00
N229   N     0.34090   0.43806   0.60438   0.00000  Uiso   1.00
N230   N     0.74450   0.37660   0.69220   0.00000  Uiso   1.00
C231   C     0.31017   0.89582   0.45121   0.00000  Uiso   1.00
C232   C     0.29990   0.85129   0.42124   0.00000  Uiso   1.00
C233   C     0.21567   0.83835   0.34559   0.00000  Uiso   1.00
C234   C     0.22121   0.79627   0.32981   0.00000  Uiso   1.00
C235   C     0.19212   0.73140   0.27446   0.00000  Uiso   1.00
C236   C     0.45220   0.90883   0.49059   0.00000  Uiso   1.00
C237   C     0.49601   0.94428   0.47326   0.00000  Uiso   1.00
C238   C     0.62976   0.95064   0.51588   0.00000  Uiso   1.00
C239   C     0.83711   0.97513   0.56825   0.00000  Uiso   1.00
C240   C     0.28782   0.89189   0.51479   0.00000  Uiso   1.00
C241   C     0.19344   0.91310   0.51781   0.00000  Uiso   1.00
C242   C     0.18881   0.90520   0.58080   0.00000  Uiso   1.00
C243   C     0.14093   0.90338   0.67073   0.00000  Uiso   1.00
C244   C     0.46980   0.84409   0.55772   0.00000  Uiso   1.00
C245   C     0.38661   0.82319   0.47909   0.00000  Uiso   1.00
C246   C     0.39228   0.78112   0.46342   0.00000  Uiso   1.00
C247   C     0.30807   0.76812   0.38776   0.00000  Uiso   1.00
C248   C     0.53890   0.88074   0.54844   0.00000  Uiso   1.00
C249   C     0.67262   0.88705   0.59110   0.00000  Uiso   1.00
C250   C     0.71662   0.92250   0.57383   0.00000  Uiso   1.00
C251   C     0.37452   0.86379   0.57264   0.00000  Uiso   1.00
C252   C     0.37005   0.85586   0.63564   0.00000  Uiso   1.00
C253   C     0.27568   0.87705   0.63876   0.00000  Uiso   1.00
H254   H     0.24268   0.91769   0.40617   0.00000  Uiso   1.00
H255   H     0.14859   0.86011   0.30083   0.00000  Uiso   1.00
H256   H     0.42889   0.96602   0.42850   0.00000  Uiso   1.00
H257   H     0.12636   0.93484   0.47303   0.00000  Uiso   1.00
H258   H     0.08255   0.78387   0.20955   0.00000  Uiso   1.00
H259   H     0.67357   0.00720   0.47875   0.00000  Uiso   1.00
H260   H     0.03563   0.94145   0.57267   0.00000  Uiso   1.00
H261   H     0.53731   0.82222   0.60276   0.00000  Uiso   1.00
H262   H     0.45939   0.75938   0.50820   0.00000  Uiso   1.00
H263   H     0.73969   0.86530   0.63586   0.00000  Uiso   1.00
H264   H     0.43716   0.83412   0.68040   0.00000  Uiso   1.00
H265   H     0.33481   0.70212   0.37785   0.00000  Uiso   1.00
H266   H     0.92583   0.92546   0.64706   0.00000  Uiso   1.00
H267   H     0.28789   0.85970   0.74097   0.00000  Uiso   1.00
O268   O     0.15213   0.70339   0.22795   0.00000  Uiso   1.00
O269   O     0.92752   0.99640   0.58114   0.00000  Uiso   1.00
O270   O     0.09056   0.91013   0.70435   0.00000  Uiso   1.00
N271   N     0.15259   0.77325   0.26214   0.00000  Uiso   1.00
N272   N     0.70516   0.98205   0.51382   0.00000  Uiso   1.00
N273   N     0.10877   0.92059   0.60163   0.00000  Uiso   1.00
N274   N     0.28833   0.72926   0.35270   0.00000  Uiso   1.00
N275   N     0.84090   0.93806   0.60438   0.00000  Uiso   1.00
N276   N     0.24450   0.87660   0.69220   0.00000  Uiso   1.00
C277   C     0.18983   0.39582   0.04879   0.00000  Uiso   1.00
C278   C     0.20010   0.35129   0.07876   0.00000  Uiso   1.00
C279   C     0.28433   0.33835   0.15441   0.00000  Uiso   1.00
C280   C     0.27879   0.29627   0.17019   0.00000  Uiso   1.00
C281   C     0.30788   0.23140   0.22554   0.00000  Uiso   1.00
C282   C     0.04780   0.40883   0.00941   0.00000  Uiso   1.00
C283   C     0.00399   0.44428   0.02674   0.00000  Uiso   1.00
C284   C     0.87024   0.45064   0.98412   0.00000  Uiso   1.00
C285   C     0.66289   0.47513   0.93175   0.00000  Uiso   1.00
C286   C     0.21218   0.39189   0.98521   0.00000  Uiso   1.00
C287   C     0.30656   0.41310   0.98219   0.00000  Uiso   1.00
C288   C     0.31119   0.40520   0.91920   0.00000  Uiso   1.00
C289   C     0.35907   0.40338   0.82927   0.00000  Uiso   1.00
C290   C     0.03020   0.34409   0.94228   0.00000  Uiso   1.00
C291   C     0.11339   0.32319   0.02091   0.00000  Uiso   1.00
C292   C     0.10772   0.28112   0.03658   0.00000  Uiso   1.00
C293   C     0.19193   0.26812   0.11224   0.00000  Uiso   1.00
C294   C     0.96110   0.38074   0.95156   0.00000  Uiso   1.00
C295   C     0.82738   0.38705   0.90890   0.00000  Uiso   1.00
C296   C     0.78338   0.42250   0.92617   0.00000  Uiso   1.00
C297   C     0.12548   0.36379   0.92736   0.00000  Uiso   1.00
C298   C     0.12995   0.35586   0.86436   0.00000  Uiso   1.00
C299   C     0.22432   0.37705   0.86124   0.00000  Uiso   1.00
H300   H     0.25732   0.41769   0.09383   0.00000  Uiso   1.00
H301   H     0.35141   0.36011   0.19917   0.00000  Uiso   1.00
H302   H     0.07111   0.46602   0.07150   0.00000  Uiso   1.00
H303   H     0.37364   0.43484   0.02697   0.00000  Uiso   1.00
H304   H     0.41745   0.28387   0.29045   0.00000  Uiso   1.00
H305   H     0.82643   0.50720   0.02125   0.00000  Uiso   1.00
H306   H     0.46437   0.44145   0.92733   0.00000  Uiso   1.00
H307   H     0.96269   0.32222   0.89724   0.00000  Uiso   1.00
H308   H     0.04061   0.25938   0.99180   0.00000  Uiso   1.00
H309   H     0.76031   0.36530   0.86414   0.00000  Uiso   1.00
H310   H     0.06284   0.33412   0.81960   0.00000  Uiso   1.00
H311   H     0.16519   0.20212   0.12215   0.00000  Uiso   1.00
H312   H     0.57417   0.42546   0.85294   0.00000  Uiso   1.00
H313   H     0.21211   0.35970   0.75903   0.00000  Uiso   1.00
O314   O     0.34787   0.20339   0.27205   0.00000  Uiso   1.00
O315   O     0.57248   0.49640   0.91886   0.00000  Uiso   1.00
O316   O     0.40944   0.41013   0.79565   0.00000  Uiso   1.00
N317   N     0.34741   0.27325   0.23786   0.00000  Uiso   1.00
N318   N     0.79484   0.48205   0.98618   0.00000  Uiso   1.00
N319   N     0.39123   0.42059   0.89837   0.00000  Uiso   1.00
N320   N     0.21167   0.22926   0.14730   0.00000  Uiso   1.00
N321   N     0.65910   0.43806   0.89562   0.00000  Uiso   1.00
N322   N     0.25550   0.37660   0.80780   0.00000  Uiso   1.00
C323   C     0.68983   0.89582   0.04879   0.00000  Uiso   1.00
C324   C     0.70010   0.85129   0.07876   0.00000  Uiso   1.00
C325   C     0.78433   0.83835   0.15441   0.00000  Uiso   1.00
C326   C     0.77879   0.79627   0.17019   0.00000  Uiso   1.00
C327   C     0.80788   0.73140   0.22554   0.00000  Uiso   1.00
C328   C     0.54780   0.90883   0.00941   0.00000  Uiso   1.00
C329   C     0.50399   0.94428   0.02674   0.00000  Uiso   1.00
C330   C     0.37024   0.95064   0.98412   0.00000  Uiso   1.00
C331   C     0.16289   0.97513   0.93175   0.00000  Uiso   1.00
C332   C     0.71218   0.89189   0.98521   0.00000  Uiso   1.00
C333   C     0.80656   0.91310   0.98219   0.00000  Uiso   1.00
C334   C     0.81119   0.90520   0.91920   0.00000  Uiso   1.00
C335   C     0.85907   0.90338   0.82927   0.00000  Uiso   1.00
C336   C     0.53020   0.84409   0.94228   0.00000  Uiso   1.00
C337   C     0.61339   0.82319   0.02091   0.00000  Uiso   1.00
C338   C     0.60772   0.78112   0.03658   0.00000  Uiso   1.00
C339   C     0.69193   0.76812   0.11224   0.00000  Uiso   1.00
C340   C     0.46110   0.88074   0.95156   0.00000  Uiso   1.00
C341   C     0.32738   0.88705   0.90890   0.00000  Uiso   1.00
C342   C     0.28338   0.92250   0.92617   0.00000  Uiso   1.00
C343   C     0.62548   0.86379   0.92736   0.00000  Uiso   1.00
C344   C     0.62995   0.85586   0.86436   0.00000  Uiso   1.00
C345   C     0.72432   0.87705   0.86124   0.00000  Uiso   1.00
H346   H     0.75732   0.91769   0.09383   0.00000  Uiso   1.00
H347   H     0.85141   0.86011   0.19917   0.00000  Uiso   1.00
H348   H     0.57111   0.96602   0.07150   0.00000  Uiso   1.00
H349   H     0.87364   0.93484   0.02697   0.00000  Uiso   1.00
H350   H     0.91745   0.78387   0.29045   0.00000  Uiso   1.00
H351   H     0.32643   0.00720   0.02125   0.00000  Uiso   1.00
H352   H     0.96437   0.94145   0.92733   0.00000  Uiso   1.00
H353   H     0.46269   0.82222   0.89724   0.00000  Uiso   1.00
H354   H     0.54061   0.75938   0.99180   0.00000  Uiso   1.00
H355   H     0.26031   0.86530   0.86414   0.00000  Uiso   1.00
H356   H     0.56284   0.83412   0.81960   0.00000  Uiso   1.00
H357   H     0.66519   0.70212   0.12215   0.00000  Uiso   1.00
H358   H     0.07417   0.92546   0.85294   0.00000  Uiso   1.00
H359   H     0.71211   0.85970   0.75903   0.00000  Uiso   1.00
O360   O     0.84787   0.70339   0.27205   0.00000  Uiso   1.00
O361   O     0.07248   0.99640   0.91886   0.00000  Uiso   1.00
O362   O     0.90944   0.91013   0.79565   0.00000  Uiso   1.00
N363   N     0.84741   0.77325   0.23786   0.00000  Uiso   1.00
N364   N     0.29484   0.98205   0.98618   0.00000  Uiso   1.00
N365   N     0.89123   0.92059   0.89837   0.00000  Uiso   1.00
N366   N     0.71167   0.72926   0.14730   0.00000  Uiso   1.00
N367   N     0.15910   0.93806   0.89562   0.00000  Uiso   1.00
N368   N     0.75550   0.87660   0.80780   0.00000  Uiso   1.00
