data_job_02421
_audit_creation_date              2018-12-19
_audit_creation_method            'Materials Studio'
_symmetry_space_group_name_H-M    'P1'
_symmetry_Int_Tables_number       1
_symmetry_cell_setting            triclinic
loop_
_symmetry_equiv_pos_as_xyz
  x,y,z
_cell_length_a                    21.2878
_cell_length_b                    21.2878
_cell_length_c                    11.1548
_cell_angle_alpha                 90.0000
_cell_angle_beta                  90.0000
_cell_angle_gamma                 90.0000
loop_
_atom_site_label
_atom_site_type_symbol
_atom_site_fract_x
_atom_site_fract_y
_atom_site_fract_z
_atom_site_U_iso_or_equiv
_atom_site_adp_type
_atom_site_occupancy
C1     C     0.69368   0.50045   0.63842   0.00000  Uiso   1.00
C2     C     0.64553   0.45340   0.68518   0.00000  Uiso   1.00
C3     C     0.58250   0.45135   0.65372   0.00000  Uiso   1.00
C4     C     0.54619   0.40473   0.70637   0.00000  Uiso   1.00
C5     C     0.46749   0.33824   0.76668   0.00000  Uiso   1.00
C6     C     0.72159   0.53214   0.74884   0.00000  Uiso   1.00
C7     C     0.72251   0.59630   0.77088   0.00000  Uiso   1.00
C8     C     0.75024   0.61595   0.87712   0.00000  Uiso   1.00
C9     C     0.78967   0.67171   0.03621   0.00000  Uiso   1.00
C10    C     0.74654   0.46155   0.58367   0.00000  Uiso   1.00
C11    C     0.76845   0.46635   0.46685   0.00000  Uiso   1.00
C12    C     0.81720   0.42658   0.43403   0.00000  Uiso   1.00
C13    C     0.89536   0.37273   0.33667   0.00000  Uiso   1.00
C14    C     0.74130   0.42127   0.78787   0.00000  Uiso   1.00
C15    C     0.67140   0.41040   0.76636   0.00000  Uiso   1.00
C16    C     0.63518   0.36376   0.81907   0.00000  Uiso   1.00
C17    C     0.57210   0.36164   0.78769   0.00000  Uiso   1.00
C18    C     0.74746   0.48914   0.83001   0.00000  Uiso   1.00
C19    C     0.77520   0.50870   0.93623   0.00000  Uiso   1.00
C20    C     0.77616   0.57287   0.95844   0.00000  Uiso   1.00
C21    C     0.77241   0.41854   0.66484   0.00000  Uiso   1.00
C22    C     0.82114   0.37875   0.63220   0.00000  Uiso   1.00
C23    C     0.84311   0.38350   0.51535   0.00000  Uiso   1.00
H24    H     0.67354   0.53393   0.57523   0.00000  Uiso   1.00
H25    H     0.56249   0.48465   0.59090   0.00000  Uiso   1.00
H26    H     0.70250   0.62957   0.70804   0.00000  Uiso   1.00
H27    H     0.74842   0.49964   0.40406   0.00000  Uiso   1.00
H28    H     0.45078   0.41106   0.64412   0.00000  Uiso   1.00
H29    H     0.74600   0.71663   0.89109   0.00000  Uiso   1.00
H30    H     0.84285   0.44265   0.25008   0.00000  Uiso   1.00
H31    H     0.76144   0.38779   0.85107   0.00000  Uiso   1.00
H32    H     0.65522   0.33049   0.88189   0.00000  Uiso   1.00
H33    H     0.79522   0.47541   0.99903   0.00000  Uiso   1.00
H34    H     0.84114   0.34548   0.69504   0.00000  Uiso   1.00
H35    H     0.52603   0.28594   0.88030   0.00000  Uiso   1.00
H36    H     0.82126   0.59151   0.12727   0.00000  Uiso   1.00
H37    H     0.91810   0.31753   0.48625   0.00000  Uiso   1.00
O38    O     0.41694   0.31345   0.77753   0.00000  Uiso   1.00
O39    O     0.80426   0.71435   0.10154   0.00000  Uiso   1.00
O40    O     0.93132   0.35489   0.26054   0.00000  Uiso   1.00
N41    N     0.48307   0.38947   0.69546   0.00000  Uiso   1.00
N42    N     0.75907   0.67516   0.92637   0.00000  Uiso   1.00
N43    N     0.84963   0.41902   0.32708   0.00000  Uiso   1.00
N44    N     0.52357   0.32214   0.82254   0.00000  Uiso   1.00
N45    N     0.79957   0.60783   0.05346   0.00000  Uiso   1.00
N46    N     0.89013   0.35170   0.45417   0.00000  Uiso   1.00
C47    C     0.30632   0.49955   0.63842   0.00000  Uiso   1.00
C48    C     0.35447   0.54660   0.68518   0.00000  Uiso   1.00
C49    C     0.41750   0.54865   0.65372   0.00000  Uiso   1.00
C50    C     0.45381   0.59527   0.70637   0.00000  Uiso   1.00
C51    C     0.53251   0.66176   0.76668   0.00000  Uiso   1.00
C52    C     0.27841   0.46786   0.74884   0.00000  Uiso   1.00
C53    C     0.27749   0.40370   0.77088   0.00000  Uiso   1.00
C54    C     0.24976   0.38405   0.87712   0.00000  Uiso   1.00
C55    C     0.21033   0.32829   0.03621   0.00000  Uiso   1.00
C56    C     0.25346   0.53845   0.58367   0.00000  Uiso   1.00
C57    C     0.23155   0.53365   0.46685   0.00000  Uiso   1.00
C58    C     0.18280   0.57342   0.43403   0.00000  Uiso   1.00
C59    C     0.10464   0.62727   0.33667   0.00000  Uiso   1.00
C60    C     0.25870   0.57873   0.78787   0.00000  Uiso   1.00
C61    C     0.32860   0.58960   0.76636   0.00000  Uiso   1.00
C62    C     0.36482   0.63624   0.81907   0.00000  Uiso   1.00
C63    C     0.42790   0.63836   0.78769   0.00000  Uiso   1.00
C64    C     0.25254   0.51086   0.83001   0.00000  Uiso   1.00
C65    C     0.22480   0.49130   0.93623   0.00000  Uiso   1.00
C66    C     0.22384   0.42713   0.95844   0.00000  Uiso   1.00
C67    C     0.22759   0.58146   0.66484   0.00000  Uiso   1.00
C68    C     0.17886   0.62125   0.63220   0.00000  Uiso   1.00
C69    C     0.15689   0.61650   0.51535   0.00000  Uiso   1.00
H70    H     0.32646   0.46607   0.57523   0.00000  Uiso   1.00
H71    H     0.43751   0.51535   0.59090   0.00000  Uiso   1.00
H72    H     0.29750   0.37043   0.70804   0.00000  Uiso   1.00
H73    H     0.25158   0.50036   0.40406   0.00000  Uiso   1.00
H74    H     0.54922   0.58894   0.64412   0.00000  Uiso   1.00
H75    H     0.25400   0.28337   0.89109   0.00000  Uiso   1.00
H76    H     0.15715   0.55735   0.25008   0.00000  Uiso   1.00
H77    H     0.23856   0.61221   0.85107   0.00000  Uiso   1.00
H78    H     0.34478   0.66951   0.88189   0.00000  Uiso   1.00
H79    H     0.20478   0.52459   0.99903   0.00000  Uiso   1.00
H80    H     0.15886   0.65452   0.69504   0.00000  Uiso   1.00
H81    H     0.47397   0.71406   0.88030   0.00000  Uiso   1.00
H82    H     0.17874   0.40849   0.12727   0.00000  Uiso   1.00
H83    H     0.08190   0.68247   0.48625   0.00000  Uiso   1.00
O84    O     0.58306   0.68655   0.77753   0.00000  Uiso   1.00
O85    O     0.19574   0.28565   0.10154   0.00000  Uiso   1.00
O86    O     0.06868   0.64511   0.26054   0.00000  Uiso   1.00
N87    N     0.51693   0.61053   0.69546   0.00000  Uiso   1.00
N88    N     0.24093   0.32484   0.92637   0.00000  Uiso   1.00
N89    N     0.15037   0.58098   0.32708   0.00000  Uiso   1.00
N90    N     0.47643   0.67786   0.82254   0.00000  Uiso   1.00
N91    N     0.20043   0.39217   0.05346   0.00000  Uiso   1.00
N92    N     0.10987   0.64830   0.45417   0.00000  Uiso   1.00
C93    C     0.99955   0.19368   0.63842   0.00000  Uiso   1.00
C94    C     0.04660   0.14553   0.68518   0.00000  Uiso   1.00
C95    C     0.04865   0.08250   0.65372   0.00000  Uiso   1.00
C96    C     0.09527   0.04619   0.70637   0.00000  Uiso   1.00
C97    C     0.16176   0.96749   0.76668   0.00000  Uiso   1.00
C98    C     0.96786   0.22159   0.74884   0.00000  Uiso   1.00
C99    C     0.90370   0.22251   0.77088   0.00000  Uiso   1.00
C100   C     0.88405   0.25024   0.87712   0.00000  Uiso   1.00
C101   C     0.82829   0.28967   0.03621   0.00000  Uiso   1.00
C102   C     0.03845   0.24654   0.58367   0.00000  Uiso   1.00
C103   C     0.03365   0.26845   0.46685   0.00000  Uiso   1.00
C104   C     0.07342   0.31720   0.43403   0.00000  Uiso   1.00
C105   C     0.12727   0.39536   0.33667   0.00000  Uiso   1.00
C106   C     0.07873   0.24130   0.78787   0.00000  Uiso   1.00
C107   C     0.08960   0.17140   0.76636   0.00000  Uiso   1.00
C108   C     0.13624   0.13518   0.81907   0.00000  Uiso   1.00
C109   C     0.13836   0.07210   0.78769   0.00000  Uiso   1.00
C110   C     0.01086   0.24746   0.83001   0.00000  Uiso   1.00
C111   C     0.99130   0.27520   0.93623   0.00000  Uiso   1.00
C112   C     0.92713   0.27616   0.95844   0.00000  Uiso   1.00
C113   C     0.08146   0.27241   0.66484   0.00000  Uiso   1.00
C114   C     0.12125   0.32114   0.63220   0.00000  Uiso   1.00
C115   C     0.11650   0.34311   0.51535   0.00000  Uiso   1.00
H116   H     0.96607   0.17354   0.57523   0.00000  Uiso   1.00
H117   H     0.01535   0.06249   0.59090   0.00000  Uiso   1.00
H118   H     0.87043   0.20250   0.70804   0.00000  Uiso   1.00
H119   H     0.00036   0.24842   0.40406   0.00000  Uiso   1.00
H120   H     0.08894   0.95078   0.64412   0.00000  Uiso   1.00
H121   H     0.78337   0.24600   0.89109   0.00000  Uiso   1.00
H122   H     0.05735   0.34285   0.25008   0.00000  Uiso   1.00
H123   H     0.11221   0.26144   0.85107   0.00000  Uiso   1.00
H124   H     0.16951   0.15522   0.88189   0.00000  Uiso   1.00
H125   H     0.02459   0.29522   0.99903   0.00000  Uiso   1.00
H126   H     0.15452   0.34114   0.69504   0.00000  Uiso   1.00
H127   H     0.21406   0.02603   0.88030   0.00000  Uiso   1.00
H128   H     0.90849   0.32126   0.12727   0.00000  Uiso   1.00
H129   H     0.18247   0.41810   0.48625   0.00000  Uiso   1.00
O130   O     0.18655   0.91694   0.77753   0.00000  Uiso   1.00
O131   O     0.78565   0.30426   0.10154   0.00000  Uiso   1.00
O132   O     0.14511   0.43132   0.26054   0.00000  Uiso   1.00
N133   N     0.11053   0.98307   0.69546   0.00000  Uiso   1.00
N134   N     0.82484   0.25907   0.92637   0.00000  Uiso   1.00
N135   N     0.08098   0.34963   0.32708   0.00000  Uiso   1.00
N136   N     0.17786   0.02357   0.82254   0.00000  Uiso   1.00
N137   N     0.89217   0.29957   0.05346   0.00000  Uiso   1.00
N138   N     0.14830   0.39013   0.45417   0.00000  Uiso   1.00
C139   C     0.00045   0.80632   0.63842   0.00000  Uiso   1.00
C140   C     0.95340   0.85447   0.68518   0.00000  Uiso   1.00
C141   C     0.95135   0.91750   0.65372   0.00000  Uiso   1.00
C142   C     0.90473   0.95381   0.70637   0.00000  Uiso   1.00
C143   C     0.83824   0.03251   0.76668   0.00000  Uiso   1.00
C144   C     0.03214   0.77841   0.74884   0.00000  Uiso   1.00
C145   C     0.09630   0.77749   0.77088   0.00000  Uiso   1.00
C146   C     0.11595   0.74976   0.87712   0.00000  Uiso   1.00
C147   C     0.17171   0.71033   0.03621   0.00000  Uiso   1.00
C148   C     0.96155   0.75346   0.58367   0.00000  Uiso   1.00
C149   C     0.96635   0.73155   0.46685   0.00000  Uiso   1.00
C150   C     0.92658   0.68280   0.43403   0.00000  Uiso   1.00
C151   C     0.87273   0.60464   0.33667   0.00000  Uiso   1.00
C152   C     0.92127   0.75870   0.78787   0.00000  Uiso   1.00
C153   C     0.91040   0.82860   0.76636   0.00000  Uiso   1.00
C154   C     0.86376   0.86482   0.81907   0.00000  Uiso   1.00
C155   C     0.86164   0.92790   0.78769   0.00000  Uiso   1.00
C156   C     0.98914   0.75254   0.83001   0.00000  Uiso   1.00
C157   C     0.00870   0.72480   0.93623   0.00000  Uiso   1.00
C158   C     0.07287   0.72384   0.95844   0.00000  Uiso   1.00
C159   C     0.91854   0.72759   0.66484   0.00000  Uiso   1.00
C160   C     0.87875   0.67886   0.63220   0.00000  Uiso   1.00
C161   C     0.88350   0.65689   0.51535   0.00000  Uiso   1.00
H162   H     0.03393   0.82646   0.57523   0.00000  Uiso   1.00
H163   H     0.98465   0.93751   0.59090   0.00000  Uiso   1.00
H164   H     0.12957   0.79750   0.70804   0.00000  Uiso   1.00
H165   H     0.99964   0.75158   0.40406   0.00000  Uiso   1.00
H166   H     0.91106   0.04922   0.64412   0.00000  Uiso   1.00
H167   H     0.21663   0.75400   0.89109   0.00000  Uiso   1.00
H168   H     0.94265   0.65715   0.25008   0.00000  Uiso   1.00
H169   H     0.88779   0.73856   0.85107   0.00000  Uiso   1.00
H170   H     0.83049   0.84478   0.88189   0.00000  Uiso   1.00
H171   H     0.97541   0.70478   0.99903   0.00000  Uiso   1.00
H172   H     0.84548   0.65886   0.69504   0.00000  Uiso   1.00
H173   H     0.78594   0.97397   0.88030   0.00000  Uiso   1.00
H174   H     0.09151   0.67874   0.12727   0.00000  Uiso   1.00
H175   H     0.81753   0.58190   0.48625   0.00000  Uiso   1.00
O176   O     0.81345   0.08306   0.77753   0.00000  Uiso   1.00
O177   O     0.21435   0.69574   0.10154   0.00000  Uiso   1.00
O178   O     0.85489   0.56868   0.26054   0.00000  Uiso   1.00
N179   N     0.88947   0.01693   0.69546   0.00000  Uiso   1.00
N180   N     0.17516   0.74093   0.92637   0.00000  Uiso   1.00
N181   N     0.91902   0.65037   0.32708   0.00000  Uiso   1.00
N182   N     0.82214   0.97643   0.82254   0.00000  Uiso   1.00
N183   N     0.10783   0.70043   0.05346   0.00000  Uiso   1.00
N184   N     0.85170   0.60987   0.45417   0.00000  Uiso   1.00
C185   C     0.80632   0.99955   0.36158   0.00000  Uiso   1.00
C186   C     0.85447   0.04660   0.31482   0.00000  Uiso   1.00
C187   C     0.91750   0.04865   0.34628   0.00000  Uiso   1.00
C188   C     0.95381   0.09527   0.29363   0.00000  Uiso   1.00
C189   C     0.03251   0.16176   0.23332   0.00000  Uiso   1.00
C190   C     0.77841   0.96786   0.25116   0.00000  Uiso   1.00
C191   C     0.77749   0.90370   0.22912   0.00000  Uiso   1.00
C192   C     0.74976   0.88405   0.12288   0.00000  Uiso   1.00
C193   C     0.71033   0.82829   0.96379   0.00000  Uiso   1.00
C194   C     0.75346   0.03845   0.41633   0.00000  Uiso   1.00
C195   C     0.73155   0.03365   0.53315   0.00000  Uiso   1.00
C196   C     0.68280   0.07342   0.56597   0.00000  Uiso   1.00
C197   C     0.60464   0.12727   0.66333   0.00000  Uiso   1.00
C198   C     0.75870   0.07873   0.21213   0.00000  Uiso   1.00
C199   C     0.82860   0.08960   0.23364   0.00000  Uiso   1.00
C200   C     0.86482   0.13624   0.18093   0.00000  Uiso   1.00
C201   C     0.92790   0.13836   0.21231   0.00000  Uiso   1.00
C202   C     0.75254   0.01086   0.16999   0.00000  Uiso   1.00
C203   C     0.72480   0.99130   0.06377   0.00000  Uiso   1.00
C204   C     0.72384   0.92713   0.04156   0.00000  Uiso   1.00
C205   C     0.72759   0.08146   0.33516   0.00000  Uiso   1.00
C206   C     0.67886   0.12125   0.36780   0.00000  Uiso   1.00
C207   C     0.65689   0.11650   0.48465   0.00000  Uiso   1.00
H208   H     0.82646   0.96607   0.42477   0.00000  Uiso   1.00
H209   H     0.93751   0.01535   0.40910   0.00000  Uiso   1.00
H210   H     0.79750   0.87043   0.29196   0.00000  Uiso   1.00
H211   H     0.75158   0.00036   0.59594   0.00000  Uiso   1.00
H212   H     0.04922   0.08894   0.35588   0.00000  Uiso   1.00
H213   H     0.75400   0.78337   0.10891   0.00000  Uiso   1.00
H214   H     0.65715   0.05735   0.74992   0.00000  Uiso   1.00
H215   H     0.73856   0.11221   0.14893   0.00000  Uiso   1.00
H216   H     0.84478   0.16951   0.11811   0.00000  Uiso   1.00
H217   H     0.70478   0.02459   0.00097   0.00000  Uiso   1.00
H218   H     0.65886   0.15452   0.30496   0.00000  Uiso   1.00
H219   H     0.97397   0.21406   0.11970   0.00000  Uiso   1.00
H220   H     0.67874   0.90849   0.87273   0.00000  Uiso   1.00
H221   H     0.58190   0.18247   0.51375   0.00000  Uiso   1.00
O222   O     0.08306   0.18655   0.22247   0.00000  Uiso   1.00
O223   O     0.69574   0.78565   0.89846   0.00000  Uiso   1.00
O224   O     0.56868   0.14511   0.73946   0.00000  Uiso   1.00
N225   N     0.01693   0.11053   0.30454   0.00000  Uiso   1.00
N226   N     0.74093   0.82484   0.07363   0.00000  Uiso   1.00
N227   N     0.65037   0.08098   0.67292   0.00000  Uiso   1.00
N228   N     0.97643   0.17786   0.17746   0.00000  Uiso   1.00
N229   N     0.70043   0.89217   0.94654   0.00000  Uiso   1.00
N230   N     0.60987   0.14830   0.54583   0.00000  Uiso   1.00
C231   C     0.19368   0.00045   0.36158   0.00000  Uiso   1.00
C232   C     0.14553   0.95340   0.31482   0.00000  Uiso   1.00
C233   C     0.08250   0.95135   0.34628   0.00000  Uiso   1.00
C234   C     0.04619   0.90473   0.29363   0.00000  Uiso   1.00
C235   C     0.96749   0.83824   0.23332   0.00000  Uiso   1.00
C236   C     0.22159   0.03214   0.25116   0.00000  Uiso   1.00
C237   C     0.22251   0.09630   0.22912   0.00000  Uiso   1.00
C238   C     0.25024   0.11595   0.12288   0.00000  Uiso   1.00
C239   C     0.28967   0.17171   0.96379   0.00000  Uiso   1.00
C240   C     0.24654   0.96155   0.41633   0.00000  Uiso   1.00
C241   C     0.26845   0.96635   0.53315   0.00000  Uiso   1.00
C242   C     0.31720   0.92658   0.56597   0.00000  Uiso   1.00
C243   C     0.39536   0.87273   0.66333   0.00000  Uiso   1.00
C244   C     0.24130   0.92127   0.21213   0.00000  Uiso   1.00
C245   C     0.17140   0.91040   0.23364   0.00000  Uiso   1.00
C246   C     0.13518   0.86376   0.18093   0.00000  Uiso   1.00
C247   C     0.07210   0.86164   0.21231   0.00000  Uiso   1.00
C248   C     0.24746   0.98914   0.16999   0.00000  Uiso   1.00
C249   C     0.27520   0.00870   0.06377   0.00000  Uiso   1.00
C250   C     0.27616   0.07287   0.04156   0.00000  Uiso   1.00
C251   C     0.27241   0.91854   0.33516   0.00000  Uiso   1.00
C252   C     0.32114   0.87875   0.36780   0.00000  Uiso   1.00
C253   C     0.34311   0.88350   0.48465   0.00000  Uiso   1.00
H254   H     0.17354   0.03393   0.42477   0.00000  Uiso   1.00
H255   H     0.06249   0.98465   0.40910   0.00000  Uiso   1.00
H256   H     0.20250   0.12957   0.29196   0.00000  Uiso   1.00
H257   H     0.24842   0.99964   0.59594   0.00000  Uiso   1.00
H258   H     0.95078   0.91106   0.35588   0.00000  Uiso   1.00
H259   H     0.24600   0.21663   0.10891   0.00000  Uiso   1.00
H260   H     0.34285   0.94265   0.74992   0.00000  Uiso   1.00
H261   H     0.26144   0.88779   0.14893   0.00000  Uiso   1.00
H262   H     0.15522   0.83049   0.11811   0.00000  Uiso   1.00
H263   H     0.29522   0.97541   0.00097   0.00000  Uiso   1.00
H264   H     0.34114   0.84548   0.30496   0.00000  Uiso   1.00
H265   H     0.02603   0.78594   0.11970   0.00000  Uiso   1.00
H266   H     0.32126   0.09151   0.87273   0.00000  Uiso   1.00
H267   H     0.41810   0.81753   0.51375   0.00000  Uiso   1.00
O268   O     0.91694   0.81345   0.22247   0.00000  Uiso   1.00
O269   O     0.30426   0.21435   0.89846   0.00000  Uiso   1.00
O270   O     0.43132   0.85489   0.73946   0.00000  Uiso   1.00
N271   N     0.98307   0.88947   0.30454   0.00000  Uiso   1.00
N272   N     0.25907   0.17516   0.07363   0.00000  Uiso   1.00
N273   N     0.34963   0.91902   0.67292   0.00000  Uiso   1.00
N274   N     0.02357   0.82214   0.17746   0.00000  Uiso   1.00
N275   N     0.29957   0.10783   0.94654   0.00000  Uiso   1.00
N276   N     0.39013   0.85170   0.54583   0.00000  Uiso   1.00
C277   C     0.50045   0.30632   0.36158   0.00000  Uiso   1.00
C278   C     0.45340   0.35447   0.31482   0.00000  Uiso   1.00
C279   C     0.45135   0.41750   0.34628   0.00000  Uiso   1.00
C280   C     0.40473   0.45381   0.29363   0.00000  Uiso   1.00
C281   C     0.33824   0.53251   0.23332   0.00000  Uiso   1.00
C282   C     0.53214   0.27841   0.25116   0.00000  Uiso   1.00
C283   C     0.59630   0.27749   0.22912   0.00000  Uiso   1.00
C284   C     0.61595   0.24976   0.12288   0.00000  Uiso   1.00
C285   C     0.67171   0.21033   0.96379   0.00000  Uiso   1.00
C286   C     0.46155   0.25346   0.41633   0.00000  Uiso   1.00
C287   C     0.46635   0.23155   0.53315   0.00000  Uiso   1.00
C288   C     0.42658   0.18280   0.56597   0.00000  Uiso   1.00
C289   C     0.37273   0.10464   0.66333   0.00000  Uiso   1.00
C290   C     0.42127   0.25870   0.21213   0.00000  Uiso   1.00
C291   C     0.41040   0.32860   0.23364   0.00000  Uiso   1.00
C292   C     0.36376   0.36482   0.18093   0.00000  Uiso   1.00
C293   C     0.36164   0.42790   0.21231   0.00000  Uiso   1.00
C294   C     0.48914   0.25254   0.16999   0.00000  Uiso   1.00
C295   C     0.50870   0.22480   0.06377   0.00000  Uiso   1.00
C296   C     0.57287   0.22384   0.04156   0.00000  Uiso   1.00
C297   C     0.41854   0.22759   0.33516   0.00000  Uiso   1.00
C298   C     0.37875   0.17886   0.36780   0.00000  Uiso   1.00
C299   C     0.38350   0.15689   0.48465   0.00000  Uiso   1.00
H300   H     0.53393   0.32646   0.42477   0.00000  Uiso   1.00
H301   H     0.48465   0.43751   0.40910   0.00000  Uiso   1.00
H302   H     0.62957   0.29750   0.29196   0.00000  Uiso   1.00
H303   H     0.49964   0.25158   0.59594   0.00000  Uiso   1.00
H304   H     0.41106   0.54922   0.35588   0.00000  Uiso   1.00
H305   H     0.71663   0.25400   0.10891   0.00000  Uiso   1.00
H306   H     0.44265   0.15715   0.74992   0.00000  Uiso   1.00
H307   H     0.38779   0.23856   0.14893   0.00000  Uiso   1.00
H308   H     0.33049   0.34478   0.11811   0.00000  Uiso   1.00
H309   H     0.47541   0.20478   0.00097   0.00000  Uiso   1.00
H310   H     0.34548   0.15886   0.30496   0.00000  Uiso   1.00
H311   H     0.28594   0.47397   0.11970   0.00000  Uiso   1.00
H312   H     0.59151   0.17874   0.87273   0.00000  Uiso   1.00
H313   H     0.31753   0.08190   0.51375   0.00000  Uiso   1.00
O314   O     0.31345   0.58306   0.22247   0.00000  Uiso   1.00
O315   O     0.71435   0.19574   0.89846   0.00000  Uiso   1.00
O316   O     0.35489   0.06868   0.73946   0.00000  Uiso   1.00
N317   N     0.38947   0.51693   0.30454   0.00000  Uiso   1.00
N318   N     0.67516   0.24093   0.07363   0.00000  Uiso   1.00
N319   N     0.41902   0.15037   0.67292   0.00000  Uiso   1.00
N320   N     0.32214   0.47643   0.17746   0.00000  Uiso   1.00
N321   N     0.60783   0.20043   0.94654   0.00000  Uiso   1.00
N322   N     0.35170   0.10987   0.54583   0.00000  Uiso   1.00
C323   C     0.49955   0.69368   0.36158   0.00000  Uiso   1.00
C324   C     0.54660   0.64553   0.31482   0.00000  Uiso   1.00
C325   C     0.54865   0.58250   0.34628   0.00000  Uiso   1.00
C326   C     0.59527   0.54619   0.29363   0.00000  Uiso   1.00
C327   C     0.66176   0.46749   0.23332   0.00000  Uiso   1.00
C328   C     0.46786   0.72159   0.25116   0.00000  Uiso   1.00
C329   C     0.40370   0.72251   0.22912   0.00000  Uiso   1.00
C330   C     0.38405   0.75024   0.12288   0.00000  Uiso   1.00
C331   C     0.32829   0.78967   0.96379   0.00000  Uiso   1.00
C332   C     0.53845   0.74654   0.41633   0.00000  Uiso   1.00
C333   C     0.53365   0.76845   0.53315   0.00000  Uiso   1.00
C334   C     0.57342   0.81720   0.56597   0.00000  Uiso   1.00
C335   C     0.62727   0.89536   0.66333   0.00000  Uiso   1.00
C336   C     0.57873   0.74130   0.21213   0.00000  Uiso   1.00
C337   C     0.58960   0.67140   0.23364   0.00000  Uiso   1.00
C338   C     0.63624   0.63518   0.18093   0.00000  Uiso   1.00
C339   C     0.63836   0.57210   0.21231   0.00000  Uiso   1.00
C340   C     0.51086   0.74746   0.16999   0.00000  Uiso   1.00
C341   C     0.49130   0.77520   0.06377   0.00000  Uiso   1.00
C342   C     0.42713   0.77616   0.04156   0.00000  Uiso   1.00
C343   C     0.58146   0.77241   0.33516   0.00000  Uiso   1.00
C344   C     0.62125   0.82114   0.36780   0.00000  Uiso   1.00
C345   C     0.61650   0.84311   0.48465   0.00000  Uiso   1.00
H346   H     0.46607   0.67354   0.42477   0.00000  Uiso   1.00
H347   H     0.51535   0.56249   0.40910   0.00000  Uiso   1.00
H348   H     0.37043   0.70250   0.29196   0.00000  Uiso   1.00
H349   H     0.50036   0.74842   0.59594   0.00000  Uiso   1.00
H350   H     0.58894   0.45078   0.35588   0.00000  Uiso   1.00
H351   H     0.28337   0.74600   0.10891   0.00000  Uiso   1.00
H352   H     0.55735   0.84285   0.74992   0.00000  Uiso   1.00
H353   H     0.61221   0.76144   0.14893   0.00000  Uiso   1.00
H354   H     0.66951   0.65522   0.11811   0.00000  Uiso   1.00
H355   H     0.52459   0.79522   0.00097   0.00000  Uiso   1.00
H356   H     0.65452   0.84114   0.30496   0.00000  Uiso   1.00
H357   H     0.71406   0.52603   0.11970   0.00000  Uiso   1.00
H358   H     0.40849   0.82126   0.87273   0.00000  Uiso   1.00
H359   H     0.68247   0.91810   0.51375   0.00000  Uiso   1.00
O360   O     0.68655   0.41694   0.22247   0.00000  Uiso   1.00
O361   O     0.28565   0.80426   0.89846   0.00000  Uiso   1.00
O362   O     0.64511   0.93132   0.73946   0.00000  Uiso   1.00
N363   N     0.61053   0.48307   0.30454   0.00000  Uiso   1.00
N364   N     0.32484   0.75907   0.07363   0.00000  Uiso   1.00
N365   N     0.58098   0.84963   0.67292   0.00000  Uiso   1.00
N366   N     0.67786   0.52357   0.17746   0.00000  Uiso   1.00
N367   N     0.39217   0.79957   0.94654   0.00000  Uiso   1.00
N368   N     0.64830   0.89013   0.54583   0.00000  Uiso   1.00
