data_job_05491
_audit_creation_date              2018-12-19
_audit_creation_method            'Materials Studio'
_symmetry_space_group_name_H-M    'P1'
_symmetry_Int_Tables_number       1
_symmetry_cell_setting            triclinic
loop_
_symmetry_equiv_pos_as_xyz
  x,y,z
_cell_length_a                    24.5315
_cell_length_b                    15.3597
_cell_length_c                    33.2666
_cell_angle_alpha                 90.0000
_cell_angle_beta                  153.6741
_cell_angle_gamma                 90.0000
loop_
_atom_site_label
_atom_site_type_symbol
_atom_site_fract_x
_atom_site_fract_y
_atom_site_fract_z
_atom_site_U_iso_or_equiv
_atom_site_adp_type
_atom_site_occupancy
C1     C     0.86804   0.92382   0.51091   0.00000  Uiso   1.00
C2     C     0.79338   0.92519   0.50036   0.00000  Uiso   1.00
C3     C     0.71697   0.85907   0.46341   0.00000  Uiso   1.00
C4     C     0.65665   0.87284   0.45977   0.00000  Uiso   1.00
C5     C     0.53830   0.86325   0.43845   0.00000  Uiso   1.00
C6     C     0.82917   0.00440   0.46165   0.00000  Uiso   1.00
C7     C     0.78287   0.00488   0.39218   0.00000  Uiso   1.00
C8     C     0.75270   0.08534   0.35597   0.00000  Uiso   1.00
C9     C     0.69000   0.19873   0.27460   0.00000  Uiso   1.00
C10    C     0.00127   0.93921   0.61131   0.00000  Uiso   1.00
C11    C     0.09969   0.88489   0.66766   0.00000  Uiso   1.00
C12    C     0.21442   0.91046   0.75745   0.00000  Uiso   1.00
C13    C     0.41893   0.92263   0.90845   0.00000  Uiso   1.00
C14    C     0.89681   0.06585   0.57015   0.00000  Uiso   1.00
C15    C     0.80901   0.00234   0.53253   0.00000  Uiso   1.00
C16    C     0.74880   0.01621   0.52895   0.00000  Uiso   1.00
C17    C     0.67231   0.95012   0.49201   0.00000  Uiso   1.00
C18    C     0.84480   0.08155   0.49383   0.00000  Uiso   1.00
C19    C     0.81470   0.16202   0.45771   0.00000  Uiso   1.00
C20    C     0.76835   0.16262   0.38820   0.00000  Uiso   1.00
C21    C     0.01690   0.01635   0.64349   0.00000  Uiso   1.00
C22    C     0.13151   0.04202   0.73320   0.00000  Uiso   1.00
C23    C     0.23007   0.98775   0.78968   0.00000  Uiso   1.00
H24    H     0.85588   0.86377   0.48586   0.00000  Uiso   1.00
H25    H     0.70489   0.79938   0.43851   0.00000  Uiso   1.00
H26    H     0.77080   0.94517   0.36730   0.00000  Uiso   1.00
H27    H     0.08756   0.82519   0.64274   0.00000  Uiso   1.00
H28    H     0.54436   0.76204   0.40018   0.00000  Uiso   1.00
H29    H     0.68336   0.06944   0.25004   0.00000  Uiso   1.00
H30    H     0.35132   0.81644   0.83087   0.00000  Uiso   1.00
H31    H     0.90897   0.12592   0.59520   0.00000  Uiso   1.00
H32    H     0.76091   0.07592   0.55386   0.00000  Uiso   1.00
H33    H     0.82681   0.22171   0.48263   0.00000  Uiso   1.00
H34    H     0.14357   0.10173   0.75808   0.00000  Uiso   1.00
H35    H     0.58981   0.98648   0.49379   0.00000  Uiso   1.00
H36    H     0.72882   0.29389   0.34365   0.00000  Uiso   1.00
H37    H     0.39677   0.04089   0.92448   0.00000  Uiso   1.00
O38    O     0.46869   0.83665   0.41779   0.00000  Uiso   1.00
O39    O     0.65108   0.23996   0.22082   0.00000  Uiso   1.00
O40    O     0.52742   0.90802   0.98285   0.00000  Uiso   1.00
N41    N     0.57540   0.82171   0.42790   0.00000  Uiso   1.00
N42    N     0.70534   0.10912   0.28752   0.00000  Uiso   1.00
N43    N     0.32982   0.87260   0.83054   0.00000  Uiso   1.00
N44    N     0.59986   0.94249   0.47828   0.00000  Uiso   1.00
N45    N     0.72980   0.22989   0.33789   0.00000  Uiso   1.00
N46    N     0.35428   0.99337   0.88091   0.00000  Uiso   1.00
C47    C     0.36804   0.42382   0.51091   0.00000  Uiso   1.00
C48    C     0.29338   0.42519   0.50036   0.00000  Uiso   1.00
C49    C     0.21697   0.35907   0.46341   0.00000  Uiso   1.00
C50    C     0.15665   0.37284   0.45977   0.00000  Uiso   1.00
C51    C     0.03830   0.36325   0.43845   0.00000  Uiso   1.00
C52    C     0.32917   0.50440   0.46165   0.00000  Uiso   1.00
C53    C     0.28287   0.50488   0.39218   0.00000  Uiso   1.00
C54    C     0.25270   0.58534   0.35597   0.00000  Uiso   1.00
C55    C     0.19000   0.69873   0.27460   0.00000  Uiso   1.00
C56    C     0.50127   0.43921   0.61131   0.00000  Uiso   1.00
C57    C     0.59969   0.38489   0.66766   0.00000  Uiso   1.00
C58    C     0.71442   0.41046   0.75745   0.00000  Uiso   1.00
C59    C     0.91893   0.42263   0.90845   0.00000  Uiso   1.00
C60    C     0.39681   0.56585   0.57015   0.00000  Uiso   1.00
C61    C     0.30901   0.50234   0.53253   0.00000  Uiso   1.00
C62    C     0.24880   0.51621   0.52895   0.00000  Uiso   1.00
C63    C     0.17231   0.45012   0.49201   0.00000  Uiso   1.00
C64    C     0.34480   0.58155   0.49383   0.00000  Uiso   1.00
C65    C     0.31470   0.66202   0.45771   0.00000  Uiso   1.00
C66    C     0.26835   0.66262   0.38820   0.00000  Uiso   1.00
C67    C     0.51690   0.51635   0.64349   0.00000  Uiso   1.00
C68    C     0.63151   0.54202   0.73320   0.00000  Uiso   1.00
C69    C     0.73007   0.48775   0.78968   0.00000  Uiso   1.00
H70    H     0.35588   0.36377   0.48586   0.00000  Uiso   1.00
H71    H     0.20489   0.29938   0.43851   0.00000  Uiso   1.00
H72    H     0.27080   0.44517   0.36730   0.00000  Uiso   1.00
H73    H     0.58756   0.32519   0.64274   0.00000  Uiso   1.00
H74    H     0.04436   0.26204   0.40018   0.00000  Uiso   1.00
H75    H     0.18336   0.56944   0.25004   0.00000  Uiso   1.00
H76    H     0.85132   0.31644   0.83087   0.00000  Uiso   1.00
H77    H     0.40897   0.62592   0.59520   0.00000  Uiso   1.00
H78    H     0.26091   0.57592   0.55386   0.00000  Uiso   1.00
H79    H     0.32681   0.72171   0.48263   0.00000  Uiso   1.00
H80    H     0.64357   0.60173   0.75808   0.00000  Uiso   1.00
H81    H     0.08981   0.48648   0.49379   0.00000  Uiso   1.00
H82    H     0.22882   0.79389   0.34365   0.00000  Uiso   1.00
H83    H     0.89677   0.54089   0.92448   0.00000  Uiso   1.00
O84    O     0.96869   0.33665   0.41779   0.00000  Uiso   1.00
O85    O     0.15108   0.73996   0.22082   0.00000  Uiso   1.00
O86    O     0.02742   0.40802   0.98285   0.00000  Uiso   1.00
N87    N     0.07540   0.32171   0.42790   0.00000  Uiso   1.00
N88    N     0.20534   0.60912   0.28752   0.00000  Uiso   1.00
N89    N     0.82982   0.37260   0.83054   0.00000  Uiso   1.00
N90    N     0.09986   0.44249   0.47828   0.00000  Uiso   1.00
N91    N     0.22980   0.72989   0.33789   0.00000  Uiso   1.00
N92    N     0.85428   0.49337   0.88091   0.00000  Uiso   1.00
C93    C     0.13196   0.92382   0.98909   0.00000  Uiso   1.00
C94    C     0.20662   0.92519   0.99964   0.00000  Uiso   1.00
C95    C     0.28303   0.85907   0.03659   0.00000  Uiso   1.00
C96    C     0.34335   0.87284   0.04023   0.00000  Uiso   1.00
C97    C     0.46170   0.86325   0.06155   0.00000  Uiso   1.00
C98    C     0.17083   0.00440   0.03835   0.00000  Uiso   1.00
C99    C     0.21713   0.00488   0.10782   0.00000  Uiso   1.00
C100   C     0.24730   0.08534   0.14403   0.00000  Uiso   1.00
C101   C     0.31000   0.19873   0.22540   0.00000  Uiso   1.00
C102   C     0.99873   0.93921   0.88869   0.00000  Uiso   1.00
C103   C     0.90031   0.88489   0.83234   0.00000  Uiso   1.00
C104   C     0.78558   0.91046   0.74255   0.00000  Uiso   1.00
C105   C     0.58107   0.92263   0.59155   0.00000  Uiso   1.00
C106   C     0.10319   0.06585   0.92985   0.00000  Uiso   1.00
C107   C     0.19099   0.00234   0.96747   0.00000  Uiso   1.00
C108   C     0.25120   0.01621   0.97105   0.00000  Uiso   1.00
C109   C     0.32769   0.95012   0.00799   0.00000  Uiso   1.00
C110   C     0.15520   0.08155   0.00617   0.00000  Uiso   1.00
C111   C     0.18530   0.16202   0.04229   0.00000  Uiso   1.00
C112   C     0.23165   0.16262   0.11180   0.00000  Uiso   1.00
C113   C     0.98310   0.01635   0.85651   0.00000  Uiso   1.00
C114   C     0.86849   0.04202   0.76680   0.00000  Uiso   1.00
C115   C     0.76993   0.98775   0.71032   0.00000  Uiso   1.00
H116   H     0.14412   0.86377   0.01414   0.00000  Uiso   1.00
H117   H     0.29511   0.79938   0.06149   0.00000  Uiso   1.00
H118   H     0.22920   0.94517   0.13270   0.00000  Uiso   1.00
H119   H     0.91244   0.82519   0.85726   0.00000  Uiso   1.00
H120   H     0.45564   0.76204   0.09982   0.00000  Uiso   1.00
H121   H     0.31664   0.06944   0.24996   0.00000  Uiso   1.00
H122   H     0.64868   0.81644   0.66913   0.00000  Uiso   1.00
H123   H     0.09103   0.12592   0.90480   0.00000  Uiso   1.00
H124   H     0.23909   0.07592   0.94614   0.00000  Uiso   1.00
H125   H     0.17319   0.22171   0.01737   0.00000  Uiso   1.00
H126   H     0.85643   0.10173   0.74192   0.00000  Uiso   1.00
H127   H     0.41019   0.98648   0.00621   0.00000  Uiso   1.00
H128   H     0.27118   0.29389   0.15635   0.00000  Uiso   1.00
H129   H     0.60323   0.04089   0.57552   0.00000  Uiso   1.00
O130   O     0.53131   0.83665   0.08221   0.00000  Uiso   1.00
O131   O     0.34892   0.23996   0.27918   0.00000  Uiso   1.00
O132   O     0.47258   0.90802   0.51715   0.00000  Uiso   1.00
N133   N     0.42460   0.82171   0.07210   0.00000  Uiso   1.00
N134   N     0.29466   0.10912   0.21248   0.00000  Uiso   1.00
N135   N     0.67018   0.87260   0.66946   0.00000  Uiso   1.00
N136   N     0.40014   0.94249   0.02172   0.00000  Uiso   1.00
N137   N     0.27020   0.22989   0.16211   0.00000  Uiso   1.00
N138   N     0.64572   0.99337   0.61909   0.00000  Uiso   1.00
C139   C     0.63196   0.42382   0.98909   0.00000  Uiso   1.00
C140   C     0.70662   0.42519   0.99964   0.00000  Uiso   1.00
C141   C     0.78303   0.35907   0.03659   0.00000  Uiso   1.00
C142   C     0.84335   0.37284   0.04023   0.00000  Uiso   1.00
C143   C     0.96170   0.36325   0.06155   0.00000  Uiso   1.00
C144   C     0.67083   0.50440   0.03835   0.00000  Uiso   1.00
C145   C     0.71713   0.50488   0.10782   0.00000  Uiso   1.00
C146   C     0.74730   0.58534   0.14403   0.00000  Uiso   1.00
C147   C     0.81000   0.69873   0.22540   0.00000  Uiso   1.00
C148   C     0.49873   0.43921   0.88869   0.00000  Uiso   1.00
C149   C     0.40031   0.38489   0.83234   0.00000  Uiso   1.00
C150   C     0.28558   0.41046   0.74255   0.00000  Uiso   1.00
C151   C     0.08107   0.42263   0.59155   0.00000  Uiso   1.00
C152   C     0.60319   0.56585   0.92985   0.00000  Uiso   1.00
C153   C     0.69099   0.50234   0.96747   0.00000  Uiso   1.00
C154   C     0.75120   0.51621   0.97105   0.00000  Uiso   1.00
C155   C     0.82769   0.45012   0.00799   0.00000  Uiso   1.00
C156   C     0.65520   0.58155   0.00617   0.00000  Uiso   1.00
C157   C     0.68530   0.66202   0.04229   0.00000  Uiso   1.00
C158   C     0.73165   0.66262   0.11180   0.00000  Uiso   1.00
C159   C     0.48310   0.51635   0.85651   0.00000  Uiso   1.00
C160   C     0.36849   0.54202   0.76680   0.00000  Uiso   1.00
C161   C     0.26993   0.48775   0.71032   0.00000  Uiso   1.00
H162   H     0.64412   0.36377   0.01414   0.00000  Uiso   1.00
H163   H     0.79511   0.29938   0.06149   0.00000  Uiso   1.00
H164   H     0.72920   0.44517   0.13270   0.00000  Uiso   1.00
H165   H     0.41244   0.32519   0.85726   0.00000  Uiso   1.00
H166   H     0.95564   0.26204   0.09982   0.00000  Uiso   1.00
H167   H     0.81664   0.56944   0.24996   0.00000  Uiso   1.00
H168   H     0.14868   0.31644   0.66913   0.00000  Uiso   1.00
H169   H     0.59103   0.62592   0.90480   0.00000  Uiso   1.00
H170   H     0.73909   0.57592   0.94614   0.00000  Uiso   1.00
H171   H     0.67319   0.72171   0.01737   0.00000  Uiso   1.00
H172   H     0.35643   0.60173   0.74192   0.00000  Uiso   1.00
H173   H     0.91019   0.48648   0.00621   0.00000  Uiso   1.00
H174   H     0.77118   0.79389   0.15635   0.00000  Uiso   1.00
H175   H     0.10323   0.54089   0.57552   0.00000  Uiso   1.00
O176   O     0.03131   0.33665   0.08221   0.00000  Uiso   1.00
O177   O     0.84892   0.73996   0.27918   0.00000  Uiso   1.00
O178   O     0.97258   0.40802   0.51715   0.00000  Uiso   1.00
N179   N     0.92460   0.32171   0.07210   0.00000  Uiso   1.00
N180   N     0.79466   0.60912   0.21248   0.00000  Uiso   1.00
N181   N     0.17018   0.37260   0.66946   0.00000  Uiso   1.00
N182   N     0.90014   0.44249   0.02172   0.00000  Uiso   1.00
N183   N     0.77020   0.72989   0.16211   0.00000  Uiso   1.00
N184   N     0.14572   0.49337   0.61909   0.00000  Uiso   1.00
C185   C     0.13196   0.07618   0.48909   0.00000  Uiso   1.00
C186   C     0.20662   0.07481   0.49964   0.00000  Uiso   1.00
C187   C     0.28303   0.14093   0.53659   0.00000  Uiso   1.00
C188   C     0.34335   0.12716   0.54023   0.00000  Uiso   1.00
C189   C     0.46170   0.13675   0.56155   0.00000  Uiso   1.00
C190   C     0.17083   0.99560   0.53835   0.00000  Uiso   1.00
C191   C     0.21713   0.99512   0.60782   0.00000  Uiso   1.00
C192   C     0.24730   0.91466   0.64403   0.00000  Uiso   1.00
C193   C     0.31000   0.80127   0.72540   0.00000  Uiso   1.00
C194   C     0.99873   0.06079   0.38869   0.00000  Uiso   1.00
C195   C     0.90031   0.11511   0.33234   0.00000  Uiso   1.00
C196   C     0.78558   0.08954   0.24255   0.00000  Uiso   1.00
C197   C     0.58107   0.07737   0.09155   0.00000  Uiso   1.00
C198   C     0.10319   0.93415   0.42985   0.00000  Uiso   1.00
C199   C     0.19099   0.99766   0.46747   0.00000  Uiso   1.00
C200   C     0.25120   0.98379   0.47105   0.00000  Uiso   1.00
C201   C     0.32769   0.04988   0.50799   0.00000  Uiso   1.00
C202   C     0.15520   0.91845   0.50617   0.00000  Uiso   1.00
C203   C     0.18530   0.83798   0.54229   0.00000  Uiso   1.00
C204   C     0.23165   0.83738   0.61180   0.00000  Uiso   1.00
C205   C     0.98310   0.98365   0.35651   0.00000  Uiso   1.00
C206   C     0.86849   0.95798   0.26680   0.00000  Uiso   1.00
C207   C     0.76993   0.01225   0.21032   0.00000  Uiso   1.00
H208   H     0.14412   0.13623   0.51414   0.00000  Uiso   1.00
H209   H     0.29511   0.20062   0.56149   0.00000  Uiso   1.00
H210   H     0.22920   0.05483   0.63270   0.00000  Uiso   1.00
H211   H     0.91244   0.17481   0.35726   0.00000  Uiso   1.00
H212   H     0.45564   0.23796   0.59982   0.00000  Uiso   1.00
H213   H     0.31664   0.93056   0.74996   0.00000  Uiso   1.00
H214   H     0.64868   0.18356   0.16913   0.00000  Uiso   1.00
H215   H     0.09103   0.87408   0.40480   0.00000  Uiso   1.00
H216   H     0.23909   0.92408   0.44614   0.00000  Uiso   1.00
H217   H     0.17319   0.77829   0.51737   0.00000  Uiso   1.00
H218   H     0.85643   0.89827   0.24192   0.00000  Uiso   1.00
H219   H     0.41019   0.01352   0.50621   0.00000  Uiso   1.00
H220   H     0.27118   0.70611   0.65635   0.00000  Uiso   1.00
H221   H     0.60323   0.95911   0.07552   0.00000  Uiso   1.00
O222   O     0.53131   0.16335   0.58221   0.00000  Uiso   1.00
O223   O     0.34892   0.76004   0.77918   0.00000  Uiso   1.00
O224   O     0.47258   0.09198   0.01715   0.00000  Uiso   1.00
N225   N     0.42460   0.17829   0.57210   0.00000  Uiso   1.00
N226   N     0.29466   0.89088   0.71248   0.00000  Uiso   1.00
N227   N     0.67018   0.12740   0.16946   0.00000  Uiso   1.00
N228   N     0.40014   0.05751   0.52172   0.00000  Uiso   1.00
N229   N     0.27020   0.77011   0.66211   0.00000  Uiso   1.00
N230   N     0.64572   0.00663   0.11909   0.00000  Uiso   1.00
C231   C     0.63196   0.57618   0.48909   0.00000  Uiso   1.00
C232   C     0.70662   0.57481   0.49964   0.00000  Uiso   1.00
C233   C     0.78303   0.64093   0.53659   0.00000  Uiso   1.00
C234   C     0.84335   0.62716   0.54023   0.00000  Uiso   1.00
C235   C     0.96170   0.63675   0.56155   0.00000  Uiso   1.00
C236   C     0.67083   0.49560   0.53835   0.00000  Uiso   1.00
C237   C     0.71713   0.49512   0.60782   0.00000  Uiso   1.00
C238   C     0.74730   0.41466   0.64403   0.00000  Uiso   1.00
C239   C     0.81000   0.30127   0.72540   0.00000  Uiso   1.00
C240   C     0.49873   0.56079   0.38869   0.00000  Uiso   1.00
C241   C     0.40031   0.61511   0.33234   0.00000  Uiso   1.00
C242   C     0.28558   0.58954   0.24255   0.00000  Uiso   1.00
C243   C     0.08107   0.57737   0.09155   0.00000  Uiso   1.00
C244   C     0.60319   0.43415   0.42985   0.00000  Uiso   1.00
C245   C     0.69099   0.49766   0.46747   0.00000  Uiso   1.00
C246   C     0.75120   0.48379   0.47105   0.00000  Uiso   1.00
C247   C     0.82769   0.54988   0.50799   0.00000  Uiso   1.00
C248   C     0.65520   0.41845   0.50617   0.00000  Uiso   1.00
C249   C     0.68530   0.33798   0.54229   0.00000  Uiso   1.00
C250   C     0.73165   0.33738   0.61180   0.00000  Uiso   1.00
C251   C     0.48310   0.48365   0.35651   0.00000  Uiso   1.00
C252   C     0.36849   0.45798   0.26680   0.00000  Uiso   1.00
C253   C     0.26993   0.51225   0.21032   0.00000  Uiso   1.00
H254   H     0.64412   0.63623   0.51414   0.00000  Uiso   1.00
H255   H     0.79511   0.70062   0.56149   0.00000  Uiso   1.00
H256   H     0.72920   0.55483   0.63270   0.00000  Uiso   1.00
H257   H     0.41244   0.67481   0.35726   0.00000  Uiso   1.00
H258   H     0.95564   0.73796   0.59982   0.00000  Uiso   1.00
H259   H     0.81664   0.43056   0.74996   0.00000  Uiso   1.00
H260   H     0.14868   0.68356   0.16913   0.00000  Uiso   1.00
H261   H     0.59103   0.37408   0.40480   0.00000  Uiso   1.00
H262   H     0.73909   0.42408   0.44614   0.00000  Uiso   1.00
H263   H     0.67319   0.27829   0.51737   0.00000  Uiso   1.00
H264   H     0.35643   0.39827   0.24192   0.00000  Uiso   1.00
H265   H     0.91019   0.51352   0.50621   0.00000  Uiso   1.00
H266   H     0.77118   0.20611   0.65635   0.00000  Uiso   1.00
H267   H     0.10323   0.45911   0.07552   0.00000  Uiso   1.00
O268   O     0.03131   0.66335   0.58221   0.00000  Uiso   1.00
O269   O     0.84892   0.26004   0.77918   0.00000  Uiso   1.00
O270   O     0.97258   0.59198   0.01715   0.00000  Uiso   1.00
N271   N     0.92460   0.67829   0.57210   0.00000  Uiso   1.00
N272   N     0.79466   0.39088   0.71248   0.00000  Uiso   1.00
N273   N     0.17018   0.62740   0.16946   0.00000  Uiso   1.00
N274   N     0.90014   0.55751   0.52172   0.00000  Uiso   1.00
N275   N     0.77020   0.27011   0.66211   0.00000  Uiso   1.00
N276   N     0.14572   0.50663   0.11909   0.00000  Uiso   1.00
C277   C     0.86804   0.07618   0.01091   0.00000  Uiso   1.00
C278   C     0.79338   0.07481   0.00036   0.00000  Uiso   1.00
C279   C     0.71697   0.14093   0.96341   0.00000  Uiso   1.00
C280   C     0.65665   0.12716   0.95977   0.00000  Uiso   1.00
C281   C     0.53830   0.13675   0.93845   0.00000  Uiso   1.00
C282   C     0.82917   0.99560   0.96165   0.00000  Uiso   1.00
C283   C     0.78287   0.99512   0.89218   0.00000  Uiso   1.00
C284   C     0.75270   0.91466   0.85597   0.00000  Uiso   1.00
C285   C     0.69000   0.80127   0.77460   0.00000  Uiso   1.00
C286   C     0.00127   0.06079   0.11131   0.00000  Uiso   1.00
C287   C     0.09969   0.11511   0.16766   0.00000  Uiso   1.00
C288   C     0.21442   0.08954   0.25745   0.00000  Uiso   1.00
C289   C     0.41893   0.07737   0.40845   0.00000  Uiso   1.00
C290   C     0.89681   0.93415   0.07015   0.00000  Uiso   1.00
C291   C     0.80901   0.99766   0.03253   0.00000  Uiso   1.00
C292   C     0.74880   0.98379   0.02895   0.00000  Uiso   1.00
C293   C     0.67231   0.04988   0.99201   0.00000  Uiso   1.00
C294   C     0.84480   0.91845   0.99383   0.00000  Uiso   1.00
C295   C     0.81470   0.83798   0.95771   0.00000  Uiso   1.00
C296   C     0.76835   0.83738   0.88820   0.00000  Uiso   1.00
C297   C     0.01690   0.98365   0.14349   0.00000  Uiso   1.00
C298   C     0.13151   0.95798   0.23320   0.00000  Uiso   1.00
C299   C     0.23007   0.01225   0.28968   0.00000  Uiso   1.00
H300   H     0.85588   0.13623   0.98586   0.00000  Uiso   1.00
H301   H     0.70489   0.20062   0.93851   0.00000  Uiso   1.00
H302   H     0.77080   0.05483   0.86730   0.00000  Uiso   1.00
H303   H     0.08756   0.17481   0.14274   0.00000  Uiso   1.00
H304   H     0.54436   0.23796   0.90018   0.00000  Uiso   1.00
H305   H     0.68336   0.93056   0.75004   0.00000  Uiso   1.00
H306   H     0.35132   0.18356   0.33087   0.00000  Uiso   1.00
H307   H     0.90897   0.87408   0.09520   0.00000  Uiso   1.00
H308   H     0.76091   0.92408   0.05386   0.00000  Uiso   1.00
H309   H     0.82681   0.77829   0.98263   0.00000  Uiso   1.00
H310   H     0.14357   0.89827   0.25808   0.00000  Uiso   1.00
H311   H     0.58981   0.01352   0.99379   0.00000  Uiso   1.00
H312   H     0.72882   0.70611   0.84365   0.00000  Uiso   1.00
H313   H     0.39677   0.95911   0.42448   0.00000  Uiso   1.00
O314   O     0.46869   0.16335   0.91779   0.00000  Uiso   1.00
O315   O     0.65108   0.76004   0.72082   0.00000  Uiso   1.00
O316   O     0.52742   0.09198   0.48285   0.00000  Uiso   1.00
N317   N     0.57540   0.17829   0.92790   0.00000  Uiso   1.00
N318   N     0.70534   0.89088   0.78752   0.00000  Uiso   1.00
N319   N     0.32982   0.12740   0.33054   0.00000  Uiso   1.00
N320   N     0.59986   0.05751   0.97828   0.00000  Uiso   1.00
N321   N     0.72980   0.77011   0.83789   0.00000  Uiso   1.00
N322   N     0.35428   0.00663   0.38091   0.00000  Uiso   1.00
C323   C     0.36804   0.57618   0.01091   0.00000  Uiso   1.00
C324   C     0.29338   0.57481   0.00036   0.00000  Uiso   1.00
C325   C     0.21697   0.64093   0.96341   0.00000  Uiso   1.00
C326   C     0.15665   0.62716   0.95977   0.00000  Uiso   1.00
C327   C     0.03830   0.63675   0.93845   0.00000  Uiso   1.00
C328   C     0.32917   0.49560   0.96165   0.00000  Uiso   1.00
C329   C     0.28287   0.49512   0.89218   0.00000  Uiso   1.00
C330   C     0.25270   0.41466   0.85597   0.00000  Uiso   1.00
C331   C     0.19000   0.30127   0.77460   0.00000  Uiso   1.00
C332   C     0.50127   0.56079   0.11131   0.00000  Uiso   1.00
C333   C     0.59969   0.61511   0.16766   0.00000  Uiso   1.00
C334   C     0.71442   0.58954   0.25745   0.00000  Uiso   1.00
C335   C     0.91893   0.57737   0.40845   0.00000  Uiso   1.00
C336   C     0.39681   0.43415   0.07015   0.00000  Uiso   1.00
C337   C     0.30901   0.49766   0.03253   0.00000  Uiso   1.00
C338   C     0.24880   0.48379   0.02895   0.00000  Uiso   1.00
C339   C     0.17231   0.54988   0.99201   0.00000  Uiso   1.00
C340   C     0.34480   0.41845   0.99383   0.00000  Uiso   1.00
C341   C     0.31470   0.33798   0.95771   0.00000  Uiso   1.00
C342   C     0.26835   0.33738   0.88820   0.00000  Uiso   1.00
C343   C     0.51690   0.48365   0.14349   0.00000  Uiso   1.00
C344   C     0.63151   0.45798   0.23320   0.00000  Uiso   1.00
C345   C     0.73007   0.51225   0.28968   0.00000  Uiso   1.00
H346   H     0.35588   0.63623   0.98586   0.00000  Uiso   1.00
H347   H     0.20489   0.70062   0.93851   0.00000  Uiso   1.00
H348   H     0.27080   0.55483   0.86730   0.00000  Uiso   1.00
H349   H     0.58756   0.67481   0.14274   0.00000  Uiso   1.00
H350   H     0.04436   0.73796   0.90018   0.00000  Uiso   1.00
H351   H     0.18336   0.43056   0.75004   0.00000  Uiso   1.00
H352   H     0.85132   0.68356   0.33087   0.00000  Uiso   1.00
H353   H     0.40897   0.37408   0.09520   0.00000  Uiso   1.00
H354   H     0.26091   0.42408   0.05386   0.00000  Uiso   1.00
H355   H     0.32681   0.27829   0.98263   0.00000  Uiso   1.00
H356   H     0.64357   0.39827   0.25808   0.00000  Uiso   1.00
H357   H     0.08981   0.51352   0.99379   0.00000  Uiso   1.00
H358   H     0.22882   0.20611   0.84365   0.00000  Uiso   1.00
H359   H     0.89677   0.45911   0.42448   0.00000  Uiso   1.00
O360   O     0.96869   0.66335   0.91779   0.00000  Uiso   1.00
O361   O     0.15108   0.26004   0.72082   0.00000  Uiso   1.00
O362   O     0.02742   0.59198   0.48285   0.00000  Uiso   1.00
N363   N     0.07540   0.67829   0.92790   0.00000  Uiso   1.00
N364   N     0.20534   0.39088   0.78752   0.00000  Uiso   1.00
N365   N     0.82982   0.62740   0.33054   0.00000  Uiso   1.00
N366   N     0.09986   0.55751   0.97828   0.00000  Uiso   1.00
N367   N     0.22980   0.27011   0.83789   0.00000  Uiso   1.00
N368   N     0.85428   0.50663   0.38091   0.00000  Uiso   1.00
