data_job_01347
_audit_creation_date              2018-12-19
_audit_creation_method            'Materials Studio'
_symmetry_space_group_name_H-M    'P1'
_symmetry_Int_Tables_number       1
_symmetry_cell_setting            triclinic
loop_
_symmetry_equiv_pos_as_xyz
  x,y,z
_cell_length_a                    14.4400
_cell_length_b                    20.3699
_cell_length_c                    23.1685
_cell_angle_alpha                 90.0000
_cell_angle_beta                  90.0000
_cell_angle_gamma                 90.0000
loop_
_atom_site_label
_atom_site_type_symbol
_atom_site_fract_x
_atom_site_fract_y
_atom_site_fract_z
_atom_site_U_iso_or_equiv
_atom_site_adp_type
_atom_site_occupancy
C1     C     0.46058   0.82674   0.97133   0.00000  Uiso   1.00
C2     C     0.42144   0.86595   0.02182   0.00000  Uiso   1.00
C3     C     0.47306   0.89962   0.06276   0.00000  Uiso   1.00
C4     C     0.42427   0.93248   0.10555   0.00000  Uiso   1.00
C5     C     0.37824   0.99345   0.18370   0.00000  Uiso   1.00
C6     C     0.42122   0.75760   0.97728   0.00000  Uiso   1.00
C7     C     0.47266   0.70019   0.98075   0.00000  Uiso   1.00
C8     C     0.42368   0.64185   0.98604   0.00000  Uiso   1.00
C9     C     0.37731   0.53461   0.99499   0.00000  Uiso   1.00
C10    C     0.41677   0.85563   0.91709   0.00000  Uiso   1.00
C11    C     0.46447   0.88062   0.86996   0.00000  Uiso   1.00
C12    C     0.41174   0.90479   0.82458   0.00000  Uiso   1.00
C13    C     0.35847   0.94975   0.74009   0.00000  Uiso   1.00
C14    C     0.28211   0.82522   0.97453   0.00000  Uiso   1.00
C15    C     0.32450   0.86511   0.02356   0.00000  Uiso   1.00
C16    C     0.27561   0.89793   0.06630   0.00000  Uiso   1.00
C17    C     0.32716   0.93165   0.10730   0.00000  Uiso   1.00
C18    C     0.32429   0.75677   0.97902   0.00000  Uiso   1.00
C19    C     0.27521   0.69850   0.98430   0.00000  Uiso   1.00
C20    C     0.32657   0.64101   0.98779   0.00000  Uiso   1.00
C21    C     0.31983   0.85480   0.91883   0.00000  Uiso   1.00
C22    C     0.26702   0.87893   0.87351   0.00000  Uiso   1.00
C23    C     0.31463   0.90396   0.82632   0.00000  Uiso   1.00
H24    H     0.53604   0.82738   0.96997   0.00000  Uiso   1.00
H25    H     0.54808   0.90025   0.06140   0.00000  Uiso   1.00
H26    H     0.54768   0.70085   0.97940   0.00000  Uiso   1.00
H27    H     0.53949   0.88125   0.86863   0.00000  Uiso   1.00
H28    H     0.51868   0.98064   0.16354   0.00000  Uiso   1.00
H29    H     0.51783   0.56020   0.99062   0.00000  Uiso   1.00
H30    H     0.50056   0.94061   0.75704   0.00000  Uiso   1.00
H31    H     0.20664   0.82457   0.97589   0.00000  Uiso   1.00
H32    H     0.20060   0.89728   0.06764   0.00000  Uiso   1.00
H33    H     0.20020   0.69788   0.98564   0.00000  Uiso   1.00
H34    H     0.19201   0.87828   0.87487   0.00000  Uiso   1.00
H35    H     0.23665   0.97823   0.16861   0.00000  Uiso   1.00
H36    H     0.23580   0.55778   0.99568   0.00000  Uiso   1.00
H37    H     0.21853   0.93820   0.76210   0.00000  Uiso   1.00
O38    O     0.37964   0.02730   0.22633   0.00000  Uiso   1.00
O39    O     0.37852   0.47569   0.99946   0.00000  Uiso   1.00
O40    O     0.35586   0.97479   0.69301   0.00000  Uiso   1.00
N41    N     0.45313   0.97011   0.15213   0.00000  Uiso   1.00
N42    N     0.45234   0.57701   0.99047   0.00000  Uiso   1.00
N43    N     0.43619   0.93265   0.77209   0.00000  Uiso   1.00
N44    N     0.30137   0.96881   0.15486   0.00000  Uiso   1.00
N45    N     0.30058   0.57572   0.99320   0.00000  Uiso   1.00
N46    N     0.28443   0.93136   0.77481   0.00000  Uiso   1.00
C47    C     0.03942   0.17326   0.47133   0.00000  Uiso   1.00
C48    C     0.07856   0.13405   0.52182   0.00000  Uiso   1.00
C49    C     0.02694   0.10038   0.56276   0.00000  Uiso   1.00
C50    C     0.07573   0.06752   0.60555   0.00000  Uiso   1.00
C51    C     0.12176   0.00655   0.68370   0.00000  Uiso   1.00
C52    C     0.07878   0.24240   0.47728   0.00000  Uiso   1.00
C53    C     0.02734   0.29981   0.48075   0.00000  Uiso   1.00
C54    C     0.07632   0.35815   0.48604   0.00000  Uiso   1.00
C55    C     0.12269   0.46539   0.49499   0.00000  Uiso   1.00
C56    C     0.08323   0.14437   0.41709   0.00000  Uiso   1.00
C57    C     0.03553   0.11938   0.36996   0.00000  Uiso   1.00
C58    C     0.08826   0.09521   0.32458   0.00000  Uiso   1.00
C59    C     0.14153   0.05025   0.24009   0.00000  Uiso   1.00
C60    C     0.21789   0.17478   0.47453   0.00000  Uiso   1.00
C61    C     0.17550   0.13489   0.52356   0.00000  Uiso   1.00
C62    C     0.22439   0.10207   0.56630   0.00000  Uiso   1.00
C63    C     0.17284   0.06835   0.60730   0.00000  Uiso   1.00
C64    C     0.17571   0.24323   0.47902   0.00000  Uiso   1.00
C65    C     0.22479   0.30150   0.48430   0.00000  Uiso   1.00
C66    C     0.17343   0.35899   0.48779   0.00000  Uiso   1.00
C67    C     0.18017   0.14520   0.41883   0.00000  Uiso   1.00
C68    C     0.23298   0.12107   0.37351   0.00000  Uiso   1.00
C69    C     0.18537   0.09604   0.32632   0.00000  Uiso   1.00
H70    H     0.96396   0.17262   0.46997   0.00000  Uiso   1.00
H71    H     0.95192   0.09975   0.56140   0.00000  Uiso   1.00
H72    H     0.95232   0.29915   0.47940   0.00000  Uiso   1.00
H73    H     0.96051   0.11875   0.36863   0.00000  Uiso   1.00
H74    H     0.98132   0.01936   0.66354   0.00000  Uiso   1.00
H75    H     0.98217   0.43980   0.49062   0.00000  Uiso   1.00
H76    H     0.99944   0.05939   0.25704   0.00000  Uiso   1.00
H77    H     0.29336   0.17543   0.47589   0.00000  Uiso   1.00
H78    H     0.29940   0.10272   0.56764   0.00000  Uiso   1.00
H79    H     0.29980   0.30212   0.48564   0.00000  Uiso   1.00
H80    H     0.30799   0.12172   0.37487   0.00000  Uiso   1.00
H81    H     0.26335   0.02177   0.66861   0.00000  Uiso   1.00
H82    H     0.26420   0.44222   0.49568   0.00000  Uiso   1.00
H83    H     0.28147   0.06180   0.26210   0.00000  Uiso   1.00
O84    O     0.12036   0.97270   0.72633   0.00000  Uiso   1.00
O85    O     0.12148   0.52431   0.49946   0.00000  Uiso   1.00
O86    O     0.14414   0.02521   0.19301   0.00000  Uiso   1.00
N87    N     0.04687   0.02989   0.65213   0.00000  Uiso   1.00
N88    N     0.04766   0.42299   0.49047   0.00000  Uiso   1.00
N89    N     0.06381   0.06735   0.27209   0.00000  Uiso   1.00
N90    N     0.19863   0.03119   0.65486   0.00000  Uiso   1.00
N91    N     0.19942   0.42428   0.49320   0.00000  Uiso   1.00
N92    N     0.21557   0.06864   0.27481   0.00000  Uiso   1.00
C93    C     0.53942   0.32674   0.52867   0.00000  Uiso   1.00
C94    C     0.57856   0.36595   0.47818   0.00000  Uiso   1.00
C95    C     0.52694   0.39962   0.43724   0.00000  Uiso   1.00
C96    C     0.57573   0.43248   0.39445   0.00000  Uiso   1.00
C97    C     0.62176   0.49345   0.31630   0.00000  Uiso   1.00
C98    C     0.57878   0.25760   0.52272   0.00000  Uiso   1.00
C99    C     0.52734   0.20019   0.51925   0.00000  Uiso   1.00
C100   C     0.57632   0.14185   0.51396   0.00000  Uiso   1.00
C101   C     0.62269   0.03461   0.50501   0.00000  Uiso   1.00
C102   C     0.58323   0.35563   0.58291   0.00000  Uiso   1.00
C103   C     0.53553   0.38062   0.63004   0.00000  Uiso   1.00
C104   C     0.58826   0.40479   0.67542   0.00000  Uiso   1.00
C105   C     0.64153   0.44975   0.75991   0.00000  Uiso   1.00
C106   C     0.71789   0.32522   0.52547   0.00000  Uiso   1.00
C107   C     0.67550   0.36511   0.47644   0.00000  Uiso   1.00
C108   C     0.72439   0.39793   0.43370   0.00000  Uiso   1.00
C109   C     0.67284   0.43165   0.39270   0.00000  Uiso   1.00
C110   C     0.67571   0.25677   0.52098   0.00000  Uiso   1.00
C111   C     0.72479   0.19850   0.51570   0.00000  Uiso   1.00
C112   C     0.67343   0.14101   0.51221   0.00000  Uiso   1.00
C113   C     0.68017   0.35480   0.58117   0.00000  Uiso   1.00
C114   C     0.73298   0.37893   0.62649   0.00000  Uiso   1.00
C115   C     0.68537   0.40396   0.67368   0.00000  Uiso   1.00
H116   H     0.46396   0.32738   0.53003   0.00000  Uiso   1.00
H117   H     0.45192   0.40025   0.43860   0.00000  Uiso   1.00
H118   H     0.45232   0.20085   0.52060   0.00000  Uiso   1.00
H119   H     0.46051   0.38125   0.63137   0.00000  Uiso   1.00
H120   H     0.48132   0.48064   0.33646   0.00000  Uiso   1.00
H121   H     0.48217   0.06020   0.50938   0.00000  Uiso   1.00
H122   H     0.49944   0.44061   0.74296   0.00000  Uiso   1.00
H123   H     0.79336   0.32457   0.52411   0.00000  Uiso   1.00
H124   H     0.79940   0.39728   0.43236   0.00000  Uiso   1.00
H125   H     0.79980   0.19788   0.51436   0.00000  Uiso   1.00
H126   H     0.80799   0.37828   0.62513   0.00000  Uiso   1.00
H127   H     0.76335   0.47823   0.33139   0.00000  Uiso   1.00
H128   H     0.76420   0.05778   0.50432   0.00000  Uiso   1.00
H129   H     0.78147   0.43820   0.73790   0.00000  Uiso   1.00
O130   O     0.62036   0.52730   0.27367   0.00000  Uiso   1.00
O131   O     0.62148   0.97569   0.50054   0.00000  Uiso   1.00
O132   O     0.64414   0.47479   0.80699   0.00000  Uiso   1.00
N133   N     0.54687   0.47011   0.34787   0.00000  Uiso   1.00
N134   N     0.54766   0.07701   0.50953   0.00000  Uiso   1.00
N135   N     0.56381   0.43265   0.72791   0.00000  Uiso   1.00
N136   N     0.69863   0.46881   0.34514   0.00000  Uiso   1.00
N137   N     0.69942   0.07572   0.50680   0.00000  Uiso   1.00
N138   N     0.71557   0.43136   0.72519   0.00000  Uiso   1.00
C139   C     0.96058   0.67326   0.02867   0.00000  Uiso   1.00
C140   C     0.92144   0.63405   0.97818   0.00000  Uiso   1.00
C141   C     0.97306   0.60038   0.93724   0.00000  Uiso   1.00
C142   C     0.92427   0.56752   0.89445   0.00000  Uiso   1.00
C143   C     0.87824   0.50655   0.81630   0.00000  Uiso   1.00
C144   C     0.92122   0.74240   0.02272   0.00000  Uiso   1.00
C145   C     0.97266   0.79981   0.01925   0.00000  Uiso   1.00
C146   C     0.92368   0.85815   0.01396   0.00000  Uiso   1.00
C147   C     0.87731   0.96539   0.00501   0.00000  Uiso   1.00
C148   C     0.91677   0.64437   0.08291   0.00000  Uiso   1.00
C149   C     0.96447   0.61938   0.13004   0.00000  Uiso   1.00
C150   C     0.91174   0.59521   0.17542   0.00000  Uiso   1.00
C151   C     0.85847   0.55025   0.25991   0.00000  Uiso   1.00
C152   C     0.78211   0.67478   0.02547   0.00000  Uiso   1.00
C153   C     0.82450   0.63489   0.97644   0.00000  Uiso   1.00
C154   C     0.77561   0.60207   0.93370   0.00000  Uiso   1.00
C155   C     0.82716   0.56835   0.89270   0.00000  Uiso   1.00
C156   C     0.82429   0.74323   0.02098   0.00000  Uiso   1.00
C157   C     0.77521   0.80150   0.01570   0.00000  Uiso   1.00
C158   C     0.82657   0.85899   0.01221   0.00000  Uiso   1.00
C159   C     0.81983   0.64520   0.08117   0.00000  Uiso   1.00
C160   C     0.76702   0.62107   0.12649   0.00000  Uiso   1.00
C161   C     0.81463   0.59604   0.17368   0.00000  Uiso   1.00
H162   H     0.03604   0.67262   0.03003   0.00000  Uiso   1.00
H163   H     0.04808   0.59975   0.93860   0.00000  Uiso   1.00
H164   H     0.04768   0.79915   0.02060   0.00000  Uiso   1.00
H165   H     0.03949   0.61875   0.13137   0.00000  Uiso   1.00
H166   H     0.01868   0.51936   0.83646   0.00000  Uiso   1.00
H167   H     0.01783   0.93980   0.00938   0.00000  Uiso   1.00
H168   H     0.00056   0.55939   0.24296   0.00000  Uiso   1.00
H169   H     0.70664   0.67543   0.02411   0.00000  Uiso   1.00
H170   H     0.70060   0.60272   0.93236   0.00000  Uiso   1.00
H171   H     0.70020   0.80212   0.01436   0.00000  Uiso   1.00
H172   H     0.69201   0.62172   0.12513   0.00000  Uiso   1.00
H173   H     0.73665   0.52177   0.83139   0.00000  Uiso   1.00
H174   H     0.73580   0.94222   0.00432   0.00000  Uiso   1.00
H175   H     0.71853   0.56180   0.23790   0.00000  Uiso   1.00
O176   O     0.87964   0.47270   0.77367   0.00000  Uiso   1.00
O177   O     0.87852   0.02431   0.00054   0.00000  Uiso   1.00
O178   O     0.85586   0.52521   0.30699   0.00000  Uiso   1.00
N179   N     0.95313   0.52989   0.84787   0.00000  Uiso   1.00
N180   N     0.95234   0.92299   0.00953   0.00000  Uiso   1.00
N181   N     0.93619   0.56735   0.22791   0.00000  Uiso   1.00
N182   N     0.80137   0.53119   0.84514   0.00000  Uiso   1.00
N183   N     0.80058   0.92428   0.00680   0.00000  Uiso   1.00
N184   N     0.78443   0.56864   0.22519   0.00000  Uiso   1.00
C185   C     0.53942   0.17326   0.02867   0.00000  Uiso   1.00
C186   C     0.57856   0.13405   0.97818   0.00000  Uiso   1.00
C187   C     0.52694   0.10038   0.93724   0.00000  Uiso   1.00
C188   C     0.57573   0.06752   0.89445   0.00000  Uiso   1.00
C189   C     0.62176   0.00655   0.81630   0.00000  Uiso   1.00
C190   C     0.57878   0.24240   0.02272   0.00000  Uiso   1.00
C191   C     0.52734   0.29981   0.01925   0.00000  Uiso   1.00
C192   C     0.57632   0.35815   0.01396   0.00000  Uiso   1.00
C193   C     0.62269   0.46539   0.00501   0.00000  Uiso   1.00
C194   C     0.58323   0.14437   0.08291   0.00000  Uiso   1.00
C195   C     0.53553   0.11938   0.13004   0.00000  Uiso   1.00
C196   C     0.58826   0.09521   0.17542   0.00000  Uiso   1.00
C197   C     0.64153   0.05025   0.25991   0.00000  Uiso   1.00
C198   C     0.71789   0.17478   0.02547   0.00000  Uiso   1.00
C199   C     0.67550   0.13489   0.97644   0.00000  Uiso   1.00
C200   C     0.72439   0.10207   0.93370   0.00000  Uiso   1.00
C201   C     0.67284   0.06835   0.89270   0.00000  Uiso   1.00
C202   C     0.67571   0.24323   0.02098   0.00000  Uiso   1.00
C203   C     0.72479   0.30150   0.01570   0.00000  Uiso   1.00
C204   C     0.67343   0.35899   0.01221   0.00000  Uiso   1.00
C205   C     0.68017   0.14520   0.08117   0.00000  Uiso   1.00
C206   C     0.73298   0.12107   0.12649   0.00000  Uiso   1.00
C207   C     0.68537   0.09604   0.17368   0.00000  Uiso   1.00
H208   H     0.46396   0.17262   0.03003   0.00000  Uiso   1.00
H209   H     0.45192   0.09975   0.93860   0.00000  Uiso   1.00
H210   H     0.45232   0.29915   0.02060   0.00000  Uiso   1.00
H211   H     0.46051   0.11875   0.13137   0.00000  Uiso   1.00
H212   H     0.48132   0.01936   0.83646   0.00000  Uiso   1.00
H213   H     0.48217   0.43980   0.00938   0.00000  Uiso   1.00
H214   H     0.49944   0.05939   0.24296   0.00000  Uiso   1.00
H215   H     0.79336   0.17543   0.02411   0.00000  Uiso   1.00
H216   H     0.79940   0.10272   0.93236   0.00000  Uiso   1.00
H217   H     0.79980   0.30212   0.01436   0.00000  Uiso   1.00
H218   H     0.80799   0.12172   0.12513   0.00000  Uiso   1.00
H219   H     0.76335   0.02177   0.83139   0.00000  Uiso   1.00
H220   H     0.76420   0.44222   0.00432   0.00000  Uiso   1.00
H221   H     0.78147   0.06180   0.23790   0.00000  Uiso   1.00
O222   O     0.62036   0.97270   0.77367   0.00000  Uiso   1.00
O223   O     0.62148   0.52431   0.00054   0.00000  Uiso   1.00
O224   O     0.64414   0.02521   0.30699   0.00000  Uiso   1.00
N225   N     0.54687   0.02989   0.84787   0.00000  Uiso   1.00
N226   N     0.54766   0.42299   0.00953   0.00000  Uiso   1.00
N227   N     0.56381   0.06735   0.22791   0.00000  Uiso   1.00
N228   N     0.69863   0.03119   0.84514   0.00000  Uiso   1.00
N229   N     0.69942   0.42428   0.00680   0.00000  Uiso   1.00
N230   N     0.71557   0.06864   0.22519   0.00000  Uiso   1.00
C231   C     0.96058   0.82674   0.52867   0.00000  Uiso   1.00
C232   C     0.92144   0.86595   0.47818   0.00000  Uiso   1.00
C233   C     0.97306   0.89962   0.43724   0.00000  Uiso   1.00
C234   C     0.92427   0.93248   0.39445   0.00000  Uiso   1.00
C235   C     0.87824   0.99345   0.31630   0.00000  Uiso   1.00
C236   C     0.92122   0.75760   0.52272   0.00000  Uiso   1.00
C237   C     0.97266   0.70019   0.51925   0.00000  Uiso   1.00
C238   C     0.92368   0.64185   0.51396   0.00000  Uiso   1.00
C239   C     0.87731   0.53461   0.50501   0.00000  Uiso   1.00
C240   C     0.91677   0.85563   0.58291   0.00000  Uiso   1.00
C241   C     0.96447   0.88062   0.63004   0.00000  Uiso   1.00
C242   C     0.91174   0.90479   0.67542   0.00000  Uiso   1.00
C243   C     0.85847   0.94975   0.75991   0.00000  Uiso   1.00
C244   C     0.78211   0.82522   0.52547   0.00000  Uiso   1.00
C245   C     0.82450   0.86511   0.47644   0.00000  Uiso   1.00
C246   C     0.77561   0.89793   0.43370   0.00000  Uiso   1.00
C247   C     0.82716   0.93165   0.39270   0.00000  Uiso   1.00
C248   C     0.82429   0.75677   0.52098   0.00000  Uiso   1.00
C249   C     0.77521   0.69850   0.51570   0.00000  Uiso   1.00
C250   C     0.82657   0.64101   0.51221   0.00000  Uiso   1.00
C251   C     0.81983   0.85480   0.58117   0.00000  Uiso   1.00
C252   C     0.76702   0.87893   0.62649   0.00000  Uiso   1.00
C253   C     0.81463   0.90396   0.67368   0.00000  Uiso   1.00
H254   H     0.03604   0.82738   0.53003   0.00000  Uiso   1.00
H255   H     0.04808   0.90025   0.43860   0.00000  Uiso   1.00
H256   H     0.04768   0.70085   0.52060   0.00000  Uiso   1.00
H257   H     0.03949   0.88125   0.63137   0.00000  Uiso   1.00
H258   H     0.01868   0.98064   0.33646   0.00000  Uiso   1.00
H259   H     0.01783   0.56020   0.50938   0.00000  Uiso   1.00
H260   H     0.00056   0.94061   0.74296   0.00000  Uiso   1.00
H261   H     0.70664   0.82457   0.52411   0.00000  Uiso   1.00
H262   H     0.70060   0.89728   0.43236   0.00000  Uiso   1.00
H263   H     0.70020   0.69788   0.51436   0.00000  Uiso   1.00
H264   H     0.69201   0.87828   0.62513   0.00000  Uiso   1.00
H265   H     0.73665   0.97823   0.33139   0.00000  Uiso   1.00
H266   H     0.73580   0.55778   0.50432   0.00000  Uiso   1.00
H267   H     0.71853   0.93820   0.73790   0.00000  Uiso   1.00
O268   O     0.87964   0.02730   0.27367   0.00000  Uiso   1.00
O269   O     0.87852   0.47569   0.50054   0.00000  Uiso   1.00
O270   O     0.85586   0.97479   0.80699   0.00000  Uiso   1.00
N271   N     0.95313   0.97011   0.34787   0.00000  Uiso   1.00
N272   N     0.95234   0.57701   0.50953   0.00000  Uiso   1.00
N273   N     0.93619   0.93265   0.72791   0.00000  Uiso   1.00
N274   N     0.80137   0.96881   0.34514   0.00000  Uiso   1.00
N275   N     0.80058   0.57572   0.50680   0.00000  Uiso   1.00
N276   N     0.78443   0.93136   0.72519   0.00000  Uiso   1.00
C277   C     0.46058   0.67326   0.47133   0.00000  Uiso   1.00
C278   C     0.42144   0.63405   0.52182   0.00000  Uiso   1.00
C279   C     0.47306   0.60038   0.56276   0.00000  Uiso   1.00
C280   C     0.42427   0.56752   0.60555   0.00000  Uiso   1.00
C281   C     0.37824   0.50655   0.68370   0.00000  Uiso   1.00
C282   C     0.42122   0.74240   0.47728   0.00000  Uiso   1.00
C283   C     0.47266   0.79981   0.48075   0.00000  Uiso   1.00
C284   C     0.42368   0.85815   0.48604   0.00000  Uiso   1.00
C285   C     0.37731   0.96539   0.49499   0.00000  Uiso   1.00
C286   C     0.41677   0.64437   0.41709   0.00000  Uiso   1.00
C287   C     0.46447   0.61938   0.36996   0.00000  Uiso   1.00
C288   C     0.41174   0.59521   0.32458   0.00000  Uiso   1.00
C289   C     0.35847   0.55025   0.24009   0.00000  Uiso   1.00
C290   C     0.28211   0.67478   0.47453   0.00000  Uiso   1.00
C291   C     0.32450   0.63489   0.52356   0.00000  Uiso   1.00
C292   C     0.27561   0.60207   0.56630   0.00000  Uiso   1.00
C293   C     0.32716   0.56835   0.60730   0.00000  Uiso   1.00
C294   C     0.32429   0.74323   0.47902   0.00000  Uiso   1.00
C295   C     0.27521   0.80150   0.48430   0.00000  Uiso   1.00
C296   C     0.32657   0.85899   0.48779   0.00000  Uiso   1.00
C297   C     0.31983   0.64520   0.41883   0.00000  Uiso   1.00
C298   C     0.26702   0.62107   0.37351   0.00000  Uiso   1.00
C299   C     0.31463   0.59604   0.32632   0.00000  Uiso   1.00
H300   H     0.53604   0.67262   0.46997   0.00000  Uiso   1.00
H301   H     0.54808   0.59975   0.56140   0.00000  Uiso   1.00
H302   H     0.54768   0.79915   0.47940   0.00000  Uiso   1.00
H303   H     0.53949   0.61875   0.36863   0.00000  Uiso   1.00
H304   H     0.51868   0.51936   0.66354   0.00000  Uiso   1.00
H305   H     0.51783   0.93980   0.49062   0.00000  Uiso   1.00
H306   H     0.50056   0.55939   0.25704   0.00000  Uiso   1.00
H307   H     0.20664   0.67543   0.47589   0.00000  Uiso   1.00
H308   H     0.20060   0.60272   0.56764   0.00000  Uiso   1.00
H309   H     0.20020   0.80212   0.48564   0.00000  Uiso   1.00
H310   H     0.19201   0.62172   0.37487   0.00000  Uiso   1.00
H311   H     0.23665   0.52177   0.66861   0.00000  Uiso   1.00
H312   H     0.23580   0.94222   0.49568   0.00000  Uiso   1.00
H313   H     0.21853   0.56180   0.26210   0.00000  Uiso   1.00
O314   O     0.37964   0.47270   0.72633   0.00000  Uiso   1.00
O315   O     0.37852   0.02431   0.49946   0.00000  Uiso   1.00
O316   O     0.35586   0.52521   0.19301   0.00000  Uiso   1.00
N317   N     0.45313   0.52989   0.65213   0.00000  Uiso   1.00
N318   N     0.45234   0.92299   0.49047   0.00000  Uiso   1.00
N319   N     0.43619   0.56735   0.27209   0.00000  Uiso   1.00
N320   N     0.30137   0.53119   0.65486   0.00000  Uiso   1.00
N321   N     0.30058   0.92428   0.49320   0.00000  Uiso   1.00
N322   N     0.28443   0.56864   0.27481   0.00000  Uiso   1.00
C323   C     0.03942   0.32674   0.97133   0.00000  Uiso   1.00
C324   C     0.07856   0.36595   0.02182   0.00000  Uiso   1.00
C325   C     0.02694   0.39962   0.06276   0.00000  Uiso   1.00
C326   C     0.07573   0.43248   0.10555   0.00000  Uiso   1.00
C327   C     0.12176   0.49345   0.18370   0.00000  Uiso   1.00
C328   C     0.07878   0.25760   0.97728   0.00000  Uiso   1.00
C329   C     0.02734   0.20019   0.98075   0.00000  Uiso   1.00
C330   C     0.07632   0.14185   0.98604   0.00000  Uiso   1.00
C331   C     0.12269   0.03461   0.99499   0.00000  Uiso   1.00
C332   C     0.08323   0.35563   0.91709   0.00000  Uiso   1.00
C333   C     0.03553   0.38062   0.86996   0.00000  Uiso   1.00
C334   C     0.08826   0.40479   0.82458   0.00000  Uiso   1.00
C335   C     0.14153   0.44975   0.74009   0.00000  Uiso   1.00
C336   C     0.21789   0.32522   0.97453   0.00000  Uiso   1.00
C337   C     0.17550   0.36511   0.02356   0.00000  Uiso   1.00
C338   C     0.22439   0.39793   0.06630   0.00000  Uiso   1.00
C339   C     0.17284   0.43165   0.10730   0.00000  Uiso   1.00
C340   C     0.17571   0.25677   0.97902   0.00000  Uiso   1.00
C341   C     0.22479   0.19850   0.98430   0.00000  Uiso   1.00
C342   C     0.17343   0.14101   0.98779   0.00000  Uiso   1.00
C343   C     0.18017   0.35480   0.91883   0.00000  Uiso   1.00
C344   C     0.23298   0.37893   0.87351   0.00000  Uiso   1.00
C345   C     0.18537   0.40396   0.82632   0.00000  Uiso   1.00
H346   H     0.96396   0.32738   0.96997   0.00000  Uiso   1.00
H347   H     0.95192   0.40025   0.06140   0.00000  Uiso   1.00
H348   H     0.95232   0.20085   0.97940   0.00000  Uiso   1.00
H349   H     0.96051   0.38125   0.86863   0.00000  Uiso   1.00
H350   H     0.98132   0.48064   0.16354   0.00000  Uiso   1.00
H351   H     0.98217   0.06020   0.99062   0.00000  Uiso   1.00
H352   H     0.99944   0.44061   0.75704   0.00000  Uiso   1.00
H353   H     0.29336   0.32457   0.97589   0.00000  Uiso   1.00
H354   H     0.29940   0.39728   0.06764   0.00000  Uiso   1.00
H355   H     0.29980   0.19788   0.98564   0.00000  Uiso   1.00
H356   H     0.30799   0.37828   0.87487   0.00000  Uiso   1.00
H357   H     0.26335   0.47823   0.16861   0.00000  Uiso   1.00
H358   H     0.26420   0.05778   0.99568   0.00000  Uiso   1.00
H359   H     0.28147   0.43820   0.76210   0.00000  Uiso   1.00
O360   O     0.12036   0.52730   0.22633   0.00000  Uiso   1.00
O361   O     0.12148   0.97569   0.99946   0.00000  Uiso   1.00
O362   O     0.14414   0.47479   0.69301   0.00000  Uiso   1.00
N363   N     0.04687   0.47011   0.15213   0.00000  Uiso   1.00
N364   N     0.04766   0.07701   0.99047   0.00000  Uiso   1.00
N365   N     0.06381   0.43265   0.77209   0.00000  Uiso   1.00
N366   N     0.19863   0.46881   0.15486   0.00000  Uiso   1.00
N367   N     0.19942   0.07572   0.99320   0.00000  Uiso   1.00
N368   N     0.21557   0.43136   0.77481   0.00000  Uiso   1.00
