data_job_01603
_audit_creation_date              2018-12-19
_audit_creation_method            'Materials Studio'
_symmetry_space_group_name_H-M    'P1'
_symmetry_Int_Tables_number       1
_symmetry_cell_setting            triclinic
loop_
_symmetry_equiv_pos_as_xyz
  x,y,z
_cell_length_a                    23.8191
_cell_length_b                    19.4608
_cell_length_c                    11.6623
_cell_angle_alpha                 90.0000
_cell_angle_beta                  90.0000
_cell_angle_gamma                 90.0000
loop_
_atom_site_label
_atom_site_type_symbol
_atom_site_fract_x
_atom_site_fract_y
_atom_site_fract_z
_atom_site_U_iso_or_equiv
_atom_site_adp_type
_atom_site_occupancy
C1     C     0.12319   0.04792   0.82595   0.00000  Uiso   1.00
C2     C     0.08038   0.08867   0.89544   0.00000  Uiso   1.00
C3     C     0.04959   0.06387   0.98760   0.00000  Uiso   1.00
C4     C     0.01257   0.10924   0.03976   0.00000  Uiso   1.00
C5     C     0.94699   0.16221   0.15351   0.00000  Uiso   1.00
C6     C     0.10379   0.05198   0.70152   0.00000  Uiso   1.00
C7     C     0.09270   0.99633   0.63063   0.00000  Uiso   1.00
C8     C     0.07540   0.01083   0.51955   0.00000  Uiso   1.00
C9     C     0.04621   0.00684   0.33221   0.00000  Uiso   1.00
C10    C     0.17784   0.08855   0.83206   0.00000  Uiso   1.00
C11    C     0.22902   0.06364   0.87090   0.00000  Uiso   1.00
C12    C     0.27406   0.10892   0.86970   0.00000  Uiso   1.00
C13    C     0.35985   0.16170   0.88505   0.00000  Uiso   1.00
C14    C     0.11218   0.17261   0.75471   0.00000  Uiso   1.00
C15    C     0.07440   0.15640   0.85674   0.00000  Uiso   1.00
C16    C     0.03742   0.20183   0.90879   0.00000  Uiso   1.00
C17    C     0.00658   0.17710   0.00101   0.00000  Uiso   1.00
C18    C     0.09782   0.11971   0.66282   0.00000  Uiso   1.00
C19    C     0.08053   0.13430   0.55182   0.00000  Uiso   1.00
C20    C     0.06941   0.07868   0.48078   0.00000  Uiso   1.00
C21    C     0.17187   0.15628   0.79337   0.00000  Uiso   1.00
C22    C     0.21684   0.20161   0.79210   0.00000  Uiso   1.00
C23    C     0.26808   0.17677   0.83094   0.00000  Uiso   1.00
H24    H     0.12784   0.99519   0.85606   0.00000  Uiso   1.00
H25    H     0.05422   0.01145   0.01751   0.00000  Uiso   1.00
H26    H     0.09733   0.94393   0.66059   0.00000  Uiso   1.00
H27    H     0.23363   0.01123   0.90084   0.00000  Uiso   1.00
H28    H     0.96996   0.05934   0.17941   0.00000  Uiso   1.00
H29    H     0.06088   0.91697   0.42682   0.00000  Uiso   1.00
H30    H     0.34828   0.05888   0.93342   0.00000  Uiso   1.00
H31    H     0.10753   0.22535   0.72458   0.00000  Uiso   1.00
H32    H     0.03280   0.25424   0.87882   0.00000  Uiso   1.00
H33    H     0.07591   0.18672   0.52190   0.00000  Uiso   1.00
H34    H     0.21220   0.25401   0.76215   0.00000  Uiso   1.00
H35    H     0.95257   0.25639   0.06684   0.00000  Uiso   1.00
H36    H     0.04349   0.11402   0.31425   0.00000  Uiso   1.00
H37    H     0.33089   0.25594   0.82086   0.00000  Uiso   1.00
O38    O     0.91246   0.17271   0.22694   0.00000  Uiso   1.00
O39    O     0.03175   0.98592   0.23957   0.00000  Uiso   1.00
O40    O     0.40881   0.17211   0.90422   0.00000  Uiso   1.00
N41    N     0.97613   0.10175   0.13177   0.00000  Uiso   1.00
N42    N     0.06113   0.96864   0.42815   0.00000  Uiso   1.00
N43    N     0.32982   0.10131   0.90175   0.00000  Uiso   1.00
N44    N     0.96677   0.20779   0.07120   0.00000  Uiso   1.00
N45    N     0.05177   0.07468   0.36758   0.00000  Uiso   1.00
N46    N     0.32047   0.20735   0.84118   0.00000  Uiso   1.00
C47    C     0.37681   0.95208   0.32595   0.00000  Uiso   1.00
C48    C     0.41962   0.91133   0.39544   0.00000  Uiso   1.00
C49    C     0.45041   0.93613   0.48760   0.00000  Uiso   1.00
C50    C     0.48743   0.89076   0.53976   0.00000  Uiso   1.00
C51    C     0.55301   0.83779   0.65351   0.00000  Uiso   1.00
C52    C     0.39621   0.94802   0.20152   0.00000  Uiso   1.00
C53    C     0.40730   0.00367   0.13063   0.00000  Uiso   1.00
C54    C     0.42460   0.98917   0.01955   0.00000  Uiso   1.00
C55    C     0.45379   0.99316   0.83221   0.00000  Uiso   1.00
C56    C     0.32216   0.91145   0.33206   0.00000  Uiso   1.00
C57    C     0.27098   0.93636   0.37090   0.00000  Uiso   1.00
C58    C     0.22594   0.89108   0.36970   0.00000  Uiso   1.00
C59    C     0.14015   0.83830   0.38505   0.00000  Uiso   1.00
C60    C     0.38782   0.82739   0.25471   0.00000  Uiso   1.00
C61    C     0.42560   0.84360   0.35674   0.00000  Uiso   1.00
C62    C     0.46258   0.79817   0.40879   0.00000  Uiso   1.00
C63    C     0.49342   0.82290   0.50101   0.00000  Uiso   1.00
C64    C     0.40218   0.88029   0.16282   0.00000  Uiso   1.00
C65    C     0.41947   0.86570   0.05182   0.00000  Uiso   1.00
C66    C     0.43059   0.92132   0.98078   0.00000  Uiso   1.00
C67    C     0.32813   0.84372   0.29337   0.00000  Uiso   1.00
C68    C     0.28316   0.79839   0.29210   0.00000  Uiso   1.00
C69    C     0.23192   0.82323   0.33094   0.00000  Uiso   1.00
H70    H     0.37216   0.00481   0.35606   0.00000  Uiso   1.00
H71    H     0.44578   0.98855   0.51751   0.00000  Uiso   1.00
H72    H     0.40267   0.05607   0.16059   0.00000  Uiso   1.00
H73    H     0.26637   0.98877   0.40084   0.00000  Uiso   1.00
H74    H     0.53004   0.94066   0.67941   0.00000  Uiso   1.00
H75    H     0.43912   0.08303   0.92682   0.00000  Uiso   1.00
H76    H     0.15172   0.94112   0.43342   0.00000  Uiso   1.00
H77    H     0.39247   0.77465   0.22458   0.00000  Uiso   1.00
H78    H     0.46720   0.74576   0.37882   0.00000  Uiso   1.00
H79    H     0.42409   0.81328   0.02190   0.00000  Uiso   1.00
H80    H     0.28780   0.74599   0.26215   0.00000  Uiso   1.00
H81    H     0.54743   0.74361   0.56684   0.00000  Uiso   1.00
H82    H     0.45651   0.88598   0.81425   0.00000  Uiso   1.00
H83    H     0.16911   0.74406   0.32086   0.00000  Uiso   1.00
O84    O     0.58754   0.82729   0.72694   0.00000  Uiso   1.00
O85    O     0.46825   0.01408   0.73957   0.00000  Uiso   1.00
O86    O     0.09119   0.82789   0.40422   0.00000  Uiso   1.00
N87    N     0.52387   0.89825   0.63177   0.00000  Uiso   1.00
N88    N     0.43887   0.03136   0.92815   0.00000  Uiso   1.00
N89    N     0.17018   0.89869   0.40175   0.00000  Uiso   1.00
N90    N     0.53323   0.79221   0.57120   0.00000  Uiso   1.00
N91    N     0.44823   0.92532   0.86758   0.00000  Uiso   1.00
N92    N     0.17953   0.79265   0.34118   0.00000  Uiso   1.00
C93    C     0.87681   0.54792   0.67405   0.00000  Uiso   1.00
C94    C     0.91962   0.58867   0.60456   0.00000  Uiso   1.00
C95    C     0.95041   0.56387   0.51240   0.00000  Uiso   1.00
C96    C     0.98743   0.60924   0.46024   0.00000  Uiso   1.00
C97    C     0.05301   0.66221   0.34649   0.00000  Uiso   1.00
C98    C     0.89621   0.55198   0.79848   0.00000  Uiso   1.00
C99    C     0.90730   0.49633   0.86937   0.00000  Uiso   1.00
C100   C     0.92460   0.51083   0.98045   0.00000  Uiso   1.00
C101   C     0.95379   0.50684   0.16779   0.00000  Uiso   1.00
C102   C     0.82216   0.58855   0.66794   0.00000  Uiso   1.00
C103   C     0.77098   0.56364   0.62910   0.00000  Uiso   1.00
C104   C     0.72594   0.60892   0.63030   0.00000  Uiso   1.00
C105   C     0.64015   0.66170   0.61495   0.00000  Uiso   1.00
C106   C     0.88782   0.67261   0.74529   0.00000  Uiso   1.00
C107   C     0.92560   0.65640   0.64326   0.00000  Uiso   1.00
C108   C     0.96258   0.70183   0.59121   0.00000  Uiso   1.00
C109   C     0.99342   0.67710   0.49899   0.00000  Uiso   1.00
C110   C     0.90218   0.61971   0.83718   0.00000  Uiso   1.00
C111   C     0.91947   0.63430   0.94818   0.00000  Uiso   1.00
C112   C     0.93059   0.57868   0.01922   0.00000  Uiso   1.00
C113   C     0.82813   0.65628   0.70663   0.00000  Uiso   1.00
C114   C     0.78316   0.70161   0.70790   0.00000  Uiso   1.00
C115   C     0.73192   0.67677   0.66906   0.00000  Uiso   1.00
H116   H     0.87216   0.49519   0.64394   0.00000  Uiso   1.00
H117   H     0.94578   0.51145   0.48249   0.00000  Uiso   1.00
H118   H     0.90267   0.44393   0.83941   0.00000  Uiso   1.00
H119   H     0.76637   0.51123   0.59916   0.00000  Uiso   1.00
H120   H     0.03004   0.55934   0.32059   0.00000  Uiso   1.00
H121   H     0.93912   0.41697   0.07318   0.00000  Uiso   1.00
H122   H     0.65172   0.55888   0.56658   0.00000  Uiso   1.00
H123   H     0.89247   0.72535   0.77542   0.00000  Uiso   1.00
H124   H     0.96720   0.75424   0.62118   0.00000  Uiso   1.00
H125   H     0.92409   0.68672   0.97810   0.00000  Uiso   1.00
H126   H     0.78780   0.75401   0.73785   0.00000  Uiso   1.00
H127   H     0.04743   0.75639   0.43316   0.00000  Uiso   1.00
H128   H     0.95651   0.61402   0.18575   0.00000  Uiso   1.00
H129   H     0.66911   0.75594   0.67914   0.00000  Uiso   1.00
O130   O     0.08754   0.67271   0.27306   0.00000  Uiso   1.00
O131   O     0.96825   0.48592   0.26043   0.00000  Uiso   1.00
O132   O     0.59119   0.67211   0.59578   0.00000  Uiso   1.00
N133   N     0.02387   0.60175   0.36823   0.00000  Uiso   1.00
N134   N     0.93887   0.46864   0.07185   0.00000  Uiso   1.00
N135   N     0.67018   0.60131   0.59825   0.00000  Uiso   1.00
N136   N     0.03323   0.70779   0.42880   0.00000  Uiso   1.00
N137   N     0.94823   0.57468   0.13242   0.00000  Uiso   1.00
N138   N     0.67953   0.70735   0.65882   0.00000  Uiso   1.00
C139   C     0.62319   0.45208   0.17405   0.00000  Uiso   1.00
C140   C     0.58038   0.41133   0.10456   0.00000  Uiso   1.00
C141   C     0.54959   0.43613   0.01240   0.00000  Uiso   1.00
C142   C     0.51257   0.39076   0.96024   0.00000  Uiso   1.00
C143   C     0.44699   0.33779   0.84649   0.00000  Uiso   1.00
C144   C     0.60379   0.44802   0.29848   0.00000  Uiso   1.00
C145   C     0.59270   0.50367   0.36937   0.00000  Uiso   1.00
C146   C     0.57540   0.48917   0.48045   0.00000  Uiso   1.00
C147   C     0.54621   0.49316   0.66779   0.00000  Uiso   1.00
C148   C     0.67784   0.41145   0.16794   0.00000  Uiso   1.00
C149   C     0.72902   0.43636   0.12910   0.00000  Uiso   1.00
C150   C     0.77406   0.39108   0.13030   0.00000  Uiso   1.00
C151   C     0.85985   0.33830   0.11495   0.00000  Uiso   1.00
C152   C     0.61218   0.32739   0.24529   0.00000  Uiso   1.00
C153   C     0.57440   0.34360   0.14326   0.00000  Uiso   1.00
C154   C     0.53742   0.29817   0.09121   0.00000  Uiso   1.00
C155   C     0.50658   0.32290   0.99899   0.00000  Uiso   1.00
C156   C     0.59782   0.38029   0.33718   0.00000  Uiso   1.00
C157   C     0.58053   0.36570   0.44818   0.00000  Uiso   1.00
C158   C     0.56941   0.42132   0.51922   0.00000  Uiso   1.00
C159   C     0.67187   0.34372   0.20663   0.00000  Uiso   1.00
C160   C     0.71684   0.29839   0.20790   0.00000  Uiso   1.00
C161   C     0.76808   0.32323   0.16906   0.00000  Uiso   1.00
H162   H     0.62784   0.50481   0.14394   0.00000  Uiso   1.00
H163   H     0.55422   0.48855   0.98249   0.00000  Uiso   1.00
H164   H     0.59733   0.55607   0.33941   0.00000  Uiso   1.00
H165   H     0.73363   0.48877   0.09916   0.00000  Uiso   1.00
H166   H     0.46996   0.44066   0.82059   0.00000  Uiso   1.00
H167   H     0.56088   0.58303   0.57318   0.00000  Uiso   1.00
H168   H     0.84828   0.44112   0.06658   0.00000  Uiso   1.00
H169   H     0.60753   0.27465   0.27542   0.00000  Uiso   1.00
H170   H     0.53280   0.24576   0.12118   0.00000  Uiso   1.00
H171   H     0.57591   0.31328   0.47810   0.00000  Uiso   1.00
H172   H     0.71220   0.24599   0.23785   0.00000  Uiso   1.00
H173   H     0.45257   0.24361   0.93316   0.00000  Uiso   1.00
H174   H     0.54349   0.38598   0.68575   0.00000  Uiso   1.00
H175   H     0.83089   0.24406   0.17914   0.00000  Uiso   1.00
O176   O     0.41246   0.32729   0.77306   0.00000  Uiso   1.00
O177   O     0.53175   0.51408   0.76043   0.00000  Uiso   1.00
O178   O     0.90881   0.32789   0.09578   0.00000  Uiso   1.00
N179   N     0.47613   0.39825   0.86823   0.00000  Uiso   1.00
N180   N     0.56113   0.53136   0.57185   0.00000  Uiso   1.00
N181   N     0.82982   0.39869   0.09825   0.00000  Uiso   1.00
N182   N     0.46677   0.29221   0.92880   0.00000  Uiso   1.00
N183   N     0.55177   0.42532   0.63242   0.00000  Uiso   1.00
N184   N     0.82047   0.29265   0.15882   0.00000  Uiso   1.00
C185   C     0.87681   0.95208   0.17405   0.00000  Uiso   1.00
C186   C     0.91962   0.91133   0.10456   0.00000  Uiso   1.00
C187   C     0.95041   0.93613   0.01240   0.00000  Uiso   1.00
C188   C     0.98743   0.89076   0.96024   0.00000  Uiso   1.00
C189   C     0.05301   0.83779   0.84649   0.00000  Uiso   1.00
C190   C     0.89621   0.94802   0.29848   0.00000  Uiso   1.00
C191   C     0.90730   0.00367   0.36937   0.00000  Uiso   1.00
C192   C     0.92460   0.98917   0.48045   0.00000  Uiso   1.00
C193   C     0.95379   0.99316   0.66779   0.00000  Uiso   1.00
C194   C     0.82216   0.91145   0.16794   0.00000  Uiso   1.00
C195   C     0.77098   0.93636   0.12910   0.00000  Uiso   1.00
C196   C     0.72594   0.89108   0.13030   0.00000  Uiso   1.00
C197   C     0.64015   0.83830   0.11495   0.00000  Uiso   1.00
C198   C     0.88782   0.82739   0.24529   0.00000  Uiso   1.00
C199   C     0.92560   0.84360   0.14326   0.00000  Uiso   1.00
C200   C     0.96258   0.79817   0.09121   0.00000  Uiso   1.00
C201   C     0.99342   0.82290   0.99899   0.00000  Uiso   1.00
C202   C     0.90218   0.88029   0.33718   0.00000  Uiso   1.00
C203   C     0.91947   0.86570   0.44818   0.00000  Uiso   1.00
C204   C     0.93059   0.92132   0.51922   0.00000  Uiso   1.00
C205   C     0.82813   0.84372   0.20663   0.00000  Uiso   1.00
C206   C     0.78316   0.79839   0.20790   0.00000  Uiso   1.00
C207   C     0.73192   0.82323   0.16906   0.00000  Uiso   1.00
H208   H     0.87216   0.00481   0.14394   0.00000  Uiso   1.00
H209   H     0.94578   0.98855   0.98249   0.00000  Uiso   1.00
H210   H     0.90267   0.05607   0.33941   0.00000  Uiso   1.00
H211   H     0.76637   0.98877   0.09916   0.00000  Uiso   1.00
H212   H     0.03004   0.94066   0.82059   0.00000  Uiso   1.00
H213   H     0.93912   0.08303   0.57318   0.00000  Uiso   1.00
H214   H     0.65172   0.94112   0.06658   0.00000  Uiso   1.00
H215   H     0.89247   0.77465   0.27542   0.00000  Uiso   1.00
H216   H     0.96720   0.74576   0.12118   0.00000  Uiso   1.00
H217   H     0.92409   0.81328   0.47810   0.00000  Uiso   1.00
H218   H     0.78780   0.74599   0.23785   0.00000  Uiso   1.00
H219   H     0.04743   0.74361   0.93316   0.00000  Uiso   1.00
H220   H     0.95651   0.88598   0.68575   0.00000  Uiso   1.00
H221   H     0.66911   0.74406   0.17914   0.00000  Uiso   1.00
O222   O     0.08754   0.82729   0.77306   0.00000  Uiso   1.00
O223   O     0.96825   0.01408   0.76043   0.00000  Uiso   1.00
O224   O     0.59119   0.82789   0.09578   0.00000  Uiso   1.00
N225   N     0.02387   0.89825   0.86823   0.00000  Uiso   1.00
N226   N     0.93887   0.03136   0.57185   0.00000  Uiso   1.00
N227   N     0.67018   0.89869   0.09825   0.00000  Uiso   1.00
N228   N     0.03323   0.79221   0.92880   0.00000  Uiso   1.00
N229   N     0.94823   0.92532   0.63242   0.00000  Uiso   1.00
N230   N     0.67953   0.79265   0.15882   0.00000  Uiso   1.00
C231   C     0.62319   0.04792   0.67405   0.00000  Uiso   1.00
C232   C     0.58038   0.08867   0.60456   0.00000  Uiso   1.00
C233   C     0.54959   0.06387   0.51240   0.00000  Uiso   1.00
C234   C     0.51257   0.10924   0.46024   0.00000  Uiso   1.00
C235   C     0.44699   0.16221   0.34649   0.00000  Uiso   1.00
C236   C     0.60379   0.05198   0.79848   0.00000  Uiso   1.00
C237   C     0.59270   0.99633   0.86937   0.00000  Uiso   1.00
C238   C     0.57540   0.01083   0.98045   0.00000  Uiso   1.00
C239   C     0.54621   0.00684   0.16779   0.00000  Uiso   1.00
C240   C     0.67784   0.08855   0.66794   0.00000  Uiso   1.00
C241   C     0.72902   0.06364   0.62910   0.00000  Uiso   1.00
C242   C     0.77406   0.10892   0.63030   0.00000  Uiso   1.00
C243   C     0.85985   0.16170   0.61495   0.00000  Uiso   1.00
C244   C     0.61218   0.17261   0.74529   0.00000  Uiso   1.00
C245   C     0.57440   0.15640   0.64326   0.00000  Uiso   1.00
C246   C     0.53742   0.20183   0.59121   0.00000  Uiso   1.00
C247   C     0.50658   0.17710   0.49899   0.00000  Uiso   1.00
C248   C     0.59782   0.11971   0.83718   0.00000  Uiso   1.00
C249   C     0.58053   0.13430   0.94818   0.00000  Uiso   1.00
C250   C     0.56941   0.07868   0.01922   0.00000  Uiso   1.00
C251   C     0.67187   0.15628   0.70663   0.00000  Uiso   1.00
C252   C     0.71684   0.20161   0.70790   0.00000  Uiso   1.00
C253   C     0.76808   0.17677   0.66906   0.00000  Uiso   1.00
H254   H     0.62784   0.99519   0.64394   0.00000  Uiso   1.00
H255   H     0.55422   0.01145   0.48249   0.00000  Uiso   1.00
H256   H     0.59733   0.94393   0.83941   0.00000  Uiso   1.00
H257   H     0.73363   0.01123   0.59916   0.00000  Uiso   1.00
H258   H     0.46996   0.05934   0.32059   0.00000  Uiso   1.00
H259   H     0.56088   0.91697   0.07318   0.00000  Uiso   1.00
H260   H     0.84828   0.05888   0.56658   0.00000  Uiso   1.00
H261   H     0.60753   0.22535   0.77542   0.00000  Uiso   1.00
H262   H     0.53280   0.25424   0.62118   0.00000  Uiso   1.00
H263   H     0.57591   0.18672   0.97810   0.00000  Uiso   1.00
H264   H     0.71220   0.25401   0.73785   0.00000  Uiso   1.00
H265   H     0.45257   0.25639   0.43316   0.00000  Uiso   1.00
H266   H     0.54349   0.11402   0.18575   0.00000  Uiso   1.00
H267   H     0.83089   0.25594   0.67914   0.00000  Uiso   1.00
O268   O     0.41246   0.17271   0.27306   0.00000  Uiso   1.00
O269   O     0.53175   0.98592   0.26043   0.00000  Uiso   1.00
O270   O     0.90881   0.17211   0.59578   0.00000  Uiso   1.00
N271   N     0.47613   0.10175   0.36823   0.00000  Uiso   1.00
N272   N     0.56113   0.96864   0.07185   0.00000  Uiso   1.00
N273   N     0.82982   0.10131   0.59825   0.00000  Uiso   1.00
N274   N     0.46677   0.20779   0.42880   0.00000  Uiso   1.00
N275   N     0.55177   0.07468   0.13242   0.00000  Uiso   1.00
N276   N     0.82047   0.20735   0.65882   0.00000  Uiso   1.00
C277   C     0.12319   0.45208   0.32595   0.00000  Uiso   1.00
C278   C     0.08038   0.41133   0.39544   0.00000  Uiso   1.00
C279   C     0.04959   0.43613   0.48760   0.00000  Uiso   1.00
C280   C     0.01257   0.39076   0.53976   0.00000  Uiso   1.00
C281   C     0.94699   0.33779   0.65351   0.00000  Uiso   1.00
C282   C     0.10379   0.44802   0.20152   0.00000  Uiso   1.00
C283   C     0.09270   0.50367   0.13063   0.00000  Uiso   1.00
C284   C     0.07540   0.48917   0.01955   0.00000  Uiso   1.00
C285   C     0.04621   0.49316   0.83221   0.00000  Uiso   1.00
C286   C     0.17784   0.41145   0.33206   0.00000  Uiso   1.00
C287   C     0.22902   0.43636   0.37090   0.00000  Uiso   1.00
C288   C     0.27406   0.39108   0.36970   0.00000  Uiso   1.00
C289   C     0.35985   0.33830   0.38505   0.00000  Uiso   1.00
C290   C     0.11218   0.32739   0.25471   0.00000  Uiso   1.00
C291   C     0.07440   0.34360   0.35674   0.00000  Uiso   1.00
C292   C     0.03742   0.29817   0.40879   0.00000  Uiso   1.00
C293   C     0.00658   0.32290   0.50101   0.00000  Uiso   1.00
C294   C     0.09782   0.38029   0.16282   0.00000  Uiso   1.00
C295   C     0.08053   0.36570   0.05182   0.00000  Uiso   1.00
C296   C     0.06941   0.42132   0.98078   0.00000  Uiso   1.00
C297   C     0.17187   0.34372   0.29337   0.00000  Uiso   1.00
C298   C     0.21684   0.29839   0.29210   0.00000  Uiso   1.00
C299   C     0.26808   0.32323   0.33094   0.00000  Uiso   1.00
H300   H     0.12784   0.50481   0.35606   0.00000  Uiso   1.00
H301   H     0.05422   0.48855   0.51751   0.00000  Uiso   1.00
H302   H     0.09733   0.55607   0.16059   0.00000  Uiso   1.00
H303   H     0.23363   0.48877   0.40084   0.00000  Uiso   1.00
H304   H     0.96996   0.44066   0.67941   0.00000  Uiso   1.00
H305   H     0.06088   0.58303   0.92682   0.00000  Uiso   1.00
H306   H     0.34828   0.44112   0.43342   0.00000  Uiso   1.00
H307   H     0.10753   0.27465   0.22458   0.00000  Uiso   1.00
H308   H     0.03280   0.24576   0.37882   0.00000  Uiso   1.00
H309   H     0.07591   0.31328   0.02190   0.00000  Uiso   1.00
H310   H     0.21220   0.24599   0.26215   0.00000  Uiso   1.00
H311   H     0.95257   0.24361   0.56684   0.00000  Uiso   1.00
H312   H     0.04349   0.38598   0.81425   0.00000  Uiso   1.00
H313   H     0.33089   0.24406   0.32086   0.00000  Uiso   1.00
O314   O     0.91246   0.32729   0.72694   0.00000  Uiso   1.00
O315   O     0.03175   0.51408   0.73957   0.00000  Uiso   1.00
O316   O     0.40881   0.32789   0.40422   0.00000  Uiso   1.00
N317   N     0.97613   0.39825   0.63177   0.00000  Uiso   1.00
N318   N     0.06113   0.53136   0.92815   0.00000  Uiso   1.00
N319   N     0.32982   0.39869   0.40175   0.00000  Uiso   1.00
N320   N     0.96677   0.29221   0.57120   0.00000  Uiso   1.00
N321   N     0.05177   0.42532   0.86758   0.00000  Uiso   1.00
N322   N     0.32047   0.29265   0.34118   0.00000  Uiso   1.00
C323   C     0.37681   0.54792   0.82595   0.00000  Uiso   1.00
C324   C     0.41962   0.58867   0.89544   0.00000  Uiso   1.00
C325   C     0.45041   0.56387   0.98760   0.00000  Uiso   1.00
C326   C     0.48743   0.60924   0.03976   0.00000  Uiso   1.00
C327   C     0.55301   0.66221   0.15351   0.00000  Uiso   1.00
C328   C     0.39621   0.55198   0.70152   0.00000  Uiso   1.00
C329   C     0.40730   0.49633   0.63063   0.00000  Uiso   1.00
C330   C     0.42460   0.51083   0.51955   0.00000  Uiso   1.00
C331   C     0.45379   0.50684   0.33221   0.00000  Uiso   1.00
C332   C     0.32216   0.58855   0.83206   0.00000  Uiso   1.00
C333   C     0.27098   0.56364   0.87090   0.00000  Uiso   1.00
C334   C     0.22594   0.60892   0.86970   0.00000  Uiso   1.00
C335   C     0.14015   0.66170   0.88505   0.00000  Uiso   1.00
C336   C     0.38782   0.67261   0.75471   0.00000  Uiso   1.00
C337   C     0.42560   0.65640   0.85674   0.00000  Uiso   1.00
C338   C     0.46258   0.70183   0.90879   0.00000  Uiso   1.00
C339   C     0.49342   0.67710   0.00101   0.00000  Uiso   1.00
C340   C     0.40218   0.61971   0.66282   0.00000  Uiso   1.00
C341   C     0.41947   0.63430   0.55182   0.00000  Uiso   1.00
C342   C     0.43059   0.57868   0.48078   0.00000  Uiso   1.00
C343   C     0.32813   0.65628   0.79337   0.00000  Uiso   1.00
C344   C     0.28316   0.70161   0.79210   0.00000  Uiso   1.00
C345   C     0.23192   0.67677   0.83094   0.00000  Uiso   1.00
H346   H     0.37216   0.49519   0.85606   0.00000  Uiso   1.00
H347   H     0.44578   0.51145   0.01751   0.00000  Uiso   1.00
H348   H     0.40267   0.44393   0.66059   0.00000  Uiso   1.00
H349   H     0.26637   0.51123   0.90084   0.00000  Uiso   1.00
H350   H     0.53004   0.55934   0.17941   0.00000  Uiso   1.00
H351   H     0.43912   0.41697   0.42682   0.00000  Uiso   1.00
H352   H     0.15172   0.55888   0.93342   0.00000  Uiso   1.00
H353   H     0.39247   0.72535   0.72458   0.00000  Uiso   1.00
H354   H     0.46720   0.75424   0.87882   0.00000  Uiso   1.00
H355   H     0.42409   0.68672   0.52190   0.00000  Uiso   1.00
H356   H     0.28780   0.75401   0.76215   0.00000  Uiso   1.00
H357   H     0.54743   0.75639   0.06684   0.00000  Uiso   1.00
H358   H     0.45651   0.61402   0.31425   0.00000  Uiso   1.00
H359   H     0.16911   0.75594   0.82086   0.00000  Uiso   1.00
O360   O     0.58754   0.67271   0.22694   0.00000  Uiso   1.00
O361   O     0.46825   0.48592   0.23957   0.00000  Uiso   1.00
O362   O     0.09119   0.67211   0.90422   0.00000  Uiso   1.00
N363   N     0.52387   0.60175   0.13177   0.00000  Uiso   1.00
N364   N     0.43887   0.46864   0.42815   0.00000  Uiso   1.00
N365   N     0.17018   0.60131   0.90175   0.00000  Uiso   1.00
N366   N     0.53323   0.70779   0.07120   0.00000  Uiso   1.00
N367   N     0.44823   0.57468   0.36758   0.00000  Uiso   1.00
N368   N     0.17953   0.70735   0.84118   0.00000  Uiso   1.00
