data_job_01679
_audit_creation_date              2018-12-19
_audit_creation_method            'Materials Studio'
_symmetry_space_group_name_H-M    'P1'
_symmetry_Int_Tables_number       1
_symmetry_cell_setting            triclinic
loop_
_symmetry_equiv_pos_as_xyz
  x,y,z
_cell_length_a                    13.3013
_cell_length_b                    8.7568
_cell_length_c                    20.5753
_cell_angle_alpha                 90.0000
_cell_angle_beta                  98.8407
_cell_angle_gamma                 90.0000
loop_
_atom_site_label
_atom_site_type_symbol
_atom_site_fract_x
_atom_site_fract_y
_atom_site_fract_z
_atom_site_U_iso_or_equiv
_atom_site_adp_type
_atom_site_occupancy
C1     C     0.70234   0.92845   0.31321   0.00000  Uiso   1.00
C2     C     0.75582   0.87549   0.38031   0.00000  Uiso   1.00
C3     C     0.78712   0.72734   0.39661   0.00000  Uiso   1.00
C4     C     0.83470   0.70216   0.46062   0.00000  Uiso   1.00
C5     C     0.91532   0.60183   0.55782   0.00000  Uiso   1.00
C6     C     0.60329   0.00297   0.32538   0.00000  Uiso   1.00
C7     C     0.50634   0.96201   0.29548   0.00000  Uiso   1.00
C8     C     0.42551   0.04417   0.31324   0.00000  Uiso   1.00
C9     C     0.26933   0.14182   0.32511   0.00000  Uiso   1.00
C10    C     0.76765   0.05681   0.29199   0.00000  Uiso   1.00
C11    C     0.80888   0.06115   0.23402   0.00000  Uiso   1.00
C12    C     0.86641   0.18866   0.22367   0.00000  Uiso   1.00
C13    C     0.96542   0.36991   0.18371   0.00000  Uiso   1.00
C14    C     0.73118   0.14720   0.39791   0.00000  Uiso   1.00
C15    C     0.77148   0.99430   0.42632   0.00000  Uiso   1.00
C16    C     0.81903   0.96935   0.49032   0.00000  Uiso   1.00
C17    C     0.85040   0.82119   0.50671   0.00000  Uiso   1.00
C18    C     0.61895   0.12177   0.37138   0.00000  Uiso   1.00
C19    C     0.53825   0.20402   0.38919   0.00000  Uiso   1.00
C20    C     0.44120   0.16319   0.35933   0.00000  Uiso   1.00
C21    C     0.78332   0.17562   0.33800   0.00000  Uiso   1.00
C22    C     0.84079   0.30316   0.32773   0.00000  Uiso   1.00
C23    C     0.88210   0.30769   0.26976   0.00000  Uiso   1.00
H24    H     0.69013   0.83596   0.27740   0.00000  Uiso   1.00
H25    H     0.77497   0.63542   0.36100   0.00000  Uiso   1.00
H26    H     0.49424   0.87007   0.25987   0.00000  Uiso   1.00
H27    H     0.79674   0.96919   0.19843   0.00000  Uiso   1.00
H28    H     0.87591   0.46547   0.47398   0.00000  Uiso   1.00
H29    H     0.28397   0.96028   0.26074   0.00000  Uiso   1.00
H30    H     0.92184   0.16929   0.13117   0.00000  Uiso   1.00
H31    H     0.74337   0.23970   0.43373   0.00000  Uiso   1.00
H32    H     0.83114   0.06131   0.52591   0.00000  Uiso   1.00
H33    H     0.55040   0.29596   0.42479   0.00000  Uiso   1.00
H34    H     0.85290   0.39508   0.36334   0.00000  Uiso   1.00
H35    H     0.92150   0.81114   0.60783   0.00000  Uiso   1.00
H36    H     0.32955   0.30595   0.39459   0.00000  Uiso   1.00
H37    H     0.96742   0.51496   0.26502   0.00000  Uiso   1.00
O38    O     0.95545   0.51366   0.59873   0.00000  Uiso   1.00
O39    O     0.17885   0.16285   0.31896   0.00000  Uiso   1.00
O40    O     0.01572   0.43706   0.14897   0.00000  Uiso   1.00
N41    N     0.87462   0.57131   0.49283   0.00000  Uiso   1.00
N42    N     0.32118   0.03391   0.29347   0.00000  Uiso   1.00
N43    N     0.91751   0.22934   0.17233   0.00000  Uiso   1.00
N44    N     0.89914   0.75731   0.56485   0.00000  Uiso   1.00
N45    N     0.34571   0.21991   0.36549   0.00000  Uiso   1.00
N46    N     0.94204   0.41534   0.24435   0.00000  Uiso   1.00
C47    C     0.29766   0.42845   0.18679   0.00000  Uiso   1.00
C48    C     0.24418   0.37549   0.11969   0.00000  Uiso   1.00
C49    C     0.21288   0.22734   0.10339   0.00000  Uiso   1.00
C50    C     0.16530   0.20216   0.03938   0.00000  Uiso   1.00
C51    C     0.08468   0.10183   0.94218   0.00000  Uiso   1.00
C52    C     0.39671   0.50297   0.17462   0.00000  Uiso   1.00
C53    C     0.49366   0.46201   0.20452   0.00000  Uiso   1.00
C54    C     0.57449   0.54417   0.18676   0.00000  Uiso   1.00
C55    C     0.73067   0.64182   0.17489   0.00000  Uiso   1.00
C56    C     0.23235   0.55681   0.20801   0.00000  Uiso   1.00
C57    C     0.19112   0.56115   0.26598   0.00000  Uiso   1.00
C58    C     0.13359   0.68866   0.27633   0.00000  Uiso   1.00
C59    C     0.03458   0.86991   0.31629   0.00000  Uiso   1.00
C60    C     0.26882   0.64720   0.10209   0.00000  Uiso   1.00
C61    C     0.22852   0.49430   0.07368   0.00000  Uiso   1.00
C62    C     0.18097   0.46935   0.00968   0.00000  Uiso   1.00
C63    C     0.14960   0.32119   0.99329   0.00000  Uiso   1.00
C64    C     0.38105   0.62177   0.12862   0.00000  Uiso   1.00
C65    C     0.46175   0.70402   0.11081   0.00000  Uiso   1.00
C66    C     0.55880   0.66319   0.14067   0.00000  Uiso   1.00
C67    C     0.21668   0.67562   0.16200   0.00000  Uiso   1.00
C68    C     0.15921   0.80316   0.17227   0.00000  Uiso   1.00
C69    C     0.11790   0.80769   0.23024   0.00000  Uiso   1.00
H70    H     0.30987   0.33596   0.22260   0.00000  Uiso   1.00
H71    H     0.22503   0.13542   0.13900   0.00000  Uiso   1.00
H72    H     0.50576   0.37007   0.24013   0.00000  Uiso   1.00
H73    H     0.20326   0.46919   0.30157   0.00000  Uiso   1.00
H74    H     0.12409   0.96547   0.02602   0.00000  Uiso   1.00
H75    H     0.71603   0.46028   0.23926   0.00000  Uiso   1.00
H76    H     0.07816   0.66929   0.36883   0.00000  Uiso   1.00
H77    H     0.25663   0.73970   0.06627   0.00000  Uiso   1.00
H78    H     0.16886   0.56131   0.97409   0.00000  Uiso   1.00
H79    H     0.44960   0.79596   0.07521   0.00000  Uiso   1.00
H80    H     0.14710   0.89508   0.13666   0.00000  Uiso   1.00
H81    H     0.07850   0.31114   0.89217   0.00000  Uiso   1.00
H82    H     0.67045   0.80595   0.10541   0.00000  Uiso   1.00
H83    H     0.03258   0.01496   0.23498   0.00000  Uiso   1.00
O84    O     0.04455   0.01366   0.90127   0.00000  Uiso   1.00
O85    O     0.82115   0.66285   0.18104   0.00000  Uiso   1.00
O86    O     0.98428   0.93706   0.35103   0.00000  Uiso   1.00
N87    N     0.12538   0.07131   0.00717   0.00000  Uiso   1.00
N88    N     0.67882   0.53391   0.20653   0.00000  Uiso   1.00
N89    N     0.08249   0.72934   0.32767   0.00000  Uiso   1.00
N90    N     0.10086   0.25731   0.93515   0.00000  Uiso   1.00
N91    N     0.65429   0.71991   0.13451   0.00000  Uiso   1.00
N92    N     0.05796   0.91534   0.25565   0.00000  Uiso   1.00
C93    C     0.29766   0.07155   0.68679   0.00000  Uiso   1.00
C94    C     0.24418   0.12451   0.61969   0.00000  Uiso   1.00
C95    C     0.21288   0.27266   0.60339   0.00000  Uiso   1.00
C96    C     0.16530   0.29784   0.53938   0.00000  Uiso   1.00
C97    C     0.08468   0.39817   0.44218   0.00000  Uiso   1.00
C98    C     0.39671   0.99703   0.67462   0.00000  Uiso   1.00
C99    C     0.49366   0.03799   0.70452   0.00000  Uiso   1.00
C100   C     0.57449   0.95583   0.68676   0.00000  Uiso   1.00
C101   C     0.73067   0.85818   0.67489   0.00000  Uiso   1.00
C102   C     0.23235   0.94319   0.70801   0.00000  Uiso   1.00
C103   C     0.19112   0.93885   0.76598   0.00000  Uiso   1.00
C104   C     0.13359   0.81134   0.77633   0.00000  Uiso   1.00
C105   C     0.03458   0.63009   0.81629   0.00000  Uiso   1.00
C106   C     0.26882   0.85280   0.60209   0.00000  Uiso   1.00
C107   C     0.22852   0.00570   0.57368   0.00000  Uiso   1.00
C108   C     0.18097   0.03065   0.50968   0.00000  Uiso   1.00
C109   C     0.14960   0.17881   0.49329   0.00000  Uiso   1.00
C110   C     0.38105   0.87823   0.62862   0.00000  Uiso   1.00
C111   C     0.46175   0.79598   0.61081   0.00000  Uiso   1.00
C112   C     0.55880   0.83681   0.64067   0.00000  Uiso   1.00
C113   C     0.21668   0.82438   0.66200   0.00000  Uiso   1.00
C114   C     0.15921   0.69684   0.67227   0.00000  Uiso   1.00
C115   C     0.11790   0.69231   0.73024   0.00000  Uiso   1.00
H116   H     0.30987   0.16404   0.72260   0.00000  Uiso   1.00
H117   H     0.22503   0.36458   0.63900   0.00000  Uiso   1.00
H118   H     0.50576   0.12993   0.74013   0.00000  Uiso   1.00
H119   H     0.20326   0.03081   0.80157   0.00000  Uiso   1.00
H120   H     0.12409   0.53453   0.52602   0.00000  Uiso   1.00
H121   H     0.71603   0.03972   0.73926   0.00000  Uiso   1.00
H122   H     0.07816   0.83071   0.86883   0.00000  Uiso   1.00
H123   H     0.25663   0.76030   0.56627   0.00000  Uiso   1.00
H124   H     0.16886   0.93869   0.47409   0.00000  Uiso   1.00
H125   H     0.44960   0.70404   0.57521   0.00000  Uiso   1.00
H126   H     0.14710   0.60492   0.63666   0.00000  Uiso   1.00
H127   H     0.07850   0.18886   0.39217   0.00000  Uiso   1.00
H128   H     0.67045   0.69405   0.60541   0.00000  Uiso   1.00
H129   H     0.03258   0.48504   0.73498   0.00000  Uiso   1.00
O130   O     0.04455   0.48634   0.40127   0.00000  Uiso   1.00
O131   O     0.82115   0.83715   0.68104   0.00000  Uiso   1.00
O132   O     0.98428   0.56294   0.85103   0.00000  Uiso   1.00
N133   N     0.12538   0.42869   0.50717   0.00000  Uiso   1.00
N134   N     0.67882   0.96609   0.70653   0.00000  Uiso   1.00
N135   N     0.08249   0.77066   0.82767   0.00000  Uiso   1.00
N136   N     0.10086   0.24269   0.43515   0.00000  Uiso   1.00
N137   N     0.65429   0.78009   0.63451   0.00000  Uiso   1.00
N138   N     0.05796   0.58466   0.75565   0.00000  Uiso   1.00
C139   C     0.70234   0.57155   0.81321   0.00000  Uiso   1.00
C140   C     0.75582   0.62451   0.88031   0.00000  Uiso   1.00
C141   C     0.78712   0.77266   0.89661   0.00000  Uiso   1.00
C142   C     0.83470   0.79784   0.96062   0.00000  Uiso   1.00
C143   C     0.91532   0.89817   0.05782   0.00000  Uiso   1.00
C144   C     0.60329   0.49703   0.82538   0.00000  Uiso   1.00
C145   C     0.50634   0.53799   0.79548   0.00000  Uiso   1.00
C146   C     0.42551   0.45583   0.81324   0.00000  Uiso   1.00
C147   C     0.26933   0.35818   0.82511   0.00000  Uiso   1.00
C148   C     0.76765   0.44319   0.79199   0.00000  Uiso   1.00
C149   C     0.80888   0.43885   0.73402   0.00000  Uiso   1.00
C150   C     0.86641   0.31134   0.72367   0.00000  Uiso   1.00
C151   C     0.96542   0.13009   0.68371   0.00000  Uiso   1.00
C152   C     0.73118   0.35280   0.89791   0.00000  Uiso   1.00
C153   C     0.77148   0.50570   0.92632   0.00000  Uiso   1.00
C154   C     0.81903   0.53065   0.99032   0.00000  Uiso   1.00
C155   C     0.85040   0.67881   0.00671   0.00000  Uiso   1.00
C156   C     0.61895   0.37823   0.87138   0.00000  Uiso   1.00
C157   C     0.53825   0.29598   0.88919   0.00000  Uiso   1.00
C158   C     0.44120   0.33681   0.85933   0.00000  Uiso   1.00
C159   C     0.78332   0.32438   0.83800   0.00000  Uiso   1.00
C160   C     0.84079   0.19684   0.82773   0.00000  Uiso   1.00
C161   C     0.88210   0.19231   0.76976   0.00000  Uiso   1.00
H162   H     0.69013   0.66404   0.77740   0.00000  Uiso   1.00
H163   H     0.77497   0.86458   0.86100   0.00000  Uiso   1.00
H164   H     0.49424   0.62993   0.75987   0.00000  Uiso   1.00
H165   H     0.79674   0.53081   0.69843   0.00000  Uiso   1.00
H166   H     0.87591   0.03453   0.97398   0.00000  Uiso   1.00
H167   H     0.28397   0.53972   0.76074   0.00000  Uiso   1.00
H168   H     0.92184   0.33071   0.63117   0.00000  Uiso   1.00
H169   H     0.74337   0.26030   0.93373   0.00000  Uiso   1.00
H170   H     0.83114   0.43869   0.02591   0.00000  Uiso   1.00
H171   H     0.55040   0.20404   0.92479   0.00000  Uiso   1.00
H172   H     0.85290   0.10492   0.86334   0.00000  Uiso   1.00
H173   H     0.92150   0.68886   0.10783   0.00000  Uiso   1.00
H174   H     0.32955   0.19405   0.89459   0.00000  Uiso   1.00
H175   H     0.96742   0.98504   0.76502   0.00000  Uiso   1.00
O176   O     0.95545   0.98634   0.09873   0.00000  Uiso   1.00
O177   O     0.17885   0.33715   0.81896   0.00000  Uiso   1.00
O178   O     0.01572   0.06294   0.64897   0.00000  Uiso   1.00
N179   N     0.87462   0.92869   0.99283   0.00000  Uiso   1.00
N180   N     0.32118   0.46609   0.79347   0.00000  Uiso   1.00
N181   N     0.91751   0.27066   0.67233   0.00000  Uiso   1.00
N182   N     0.89914   0.74269   0.06485   0.00000  Uiso   1.00
N183   N     0.34571   0.28009   0.86549   0.00000  Uiso   1.00
N184   N     0.94204   0.08466   0.74435   0.00000  Uiso   1.00
