data_job_06759
_audit_creation_date              2018-12-19
_audit_creation_method            'Materials Studio'
_symmetry_space_group_name_H-M    'P1'
_symmetry_Int_Tables_number       1
_symmetry_cell_setting            triclinic
loop_
_symmetry_equiv_pos_as_xyz
  x,y,z
_cell_length_a                    13.5495
_cell_length_b                    21.9521
_cell_length_c                    29.9852
_cell_angle_alpha                 110.3862
_cell_angle_beta                  85.0881
_cell_angle_gamma                 78.7525
loop_
_atom_site_label
_atom_site_type_symbol
_atom_site_fract_x
_atom_site_fract_y
_atom_site_fract_z
_atom_site_U_iso_or_equiv
_atom_site_adp_type
_atom_site_occupancy
C1     C     0.79942   0.65255   0.81777   0.00000  Uiso   1.00
C2     C     0.80828   0.63236   0.76324   0.00000  Uiso   1.00
C3     C     0.88527   0.58265   0.72898   0.00000  Uiso   1.00
C4     C     0.87970   0.57179   0.68090   0.00000  Uiso   1.00
C5     C     0.90561   0.53476   0.59824   0.00000  Uiso   1.00
C6     C     0.79452   0.72735   0.83808   0.00000  Uiso   1.00
C7     C     0.85995   0.75750   0.86675   0.00000  Uiso   1.00
C8     C     0.84278   0.82662   0.88167   0.00000  Uiso   1.00
C9     C     0.84729   0.93706   0.91523   0.00000  Uiso   1.00
C10    C     0.69486   0.64531   0.83522   0.00000  Uiso   1.00
C11    C     0.67648   0.60651   0.86151   0.00000  Uiso   1.00
C12    C     0.57540   0.60656   0.87404   0.00000  Uiso   1.00
C13    C     0.42516   0.58963   0.90318   0.00000  Uiso   1.00
C14    C     0.65259   0.72168   0.79329   0.00000  Uiso   1.00
C15    C     0.72853   0.66991   0.74994   0.00000  Uiso   1.00
C16    C     0.72283   0.65913   0.70190   0.00000  Uiso   1.00
C17    C     0.79981   0.60941   0.66758   0.00000  Uiso   1.00
C18    C     0.71477   0.76490   0.82478   0.00000  Uiso   1.00
C19    C     0.69750   0.83398   0.83967   0.00000  Uiso   1.00
C20    C     0.76289   0.86424   0.86835   0.00000  Uiso   1.00
C21    C     0.61510   0.68286   0.82193   0.00000  Uiso   1.00
C22    C     0.51403   0.68298   0.83443   0.00000  Uiso   1.00
C23    C     0.49550   0.64418   0.86072   0.00000  Uiso   1.00
H24    H     0.86151   0.62332   0.82812   0.00000  Uiso   1.00
H25    H     0.94699   0.55360   0.73928   0.00000  Uiso   1.00
H26    H     0.92165   0.72844   0.87703   0.00000  Uiso   1.00
H27    H     0.73821   0.57746   0.87179   0.00000  Uiso   1.00
H28    H     0.00660   0.49289   0.63493   0.00000  Uiso   1.00
H29    H     0.95316   0.86153   0.92539   0.00000  Uiso   1.00
H30    H     0.56634   0.54316   0.91435   0.00000  Uiso   1.00
H31    H     0.59050   0.75091   0.78294   0.00000  Uiso   1.00
H32    H     0.66110   0.68819   0.69162   0.00000  Uiso   1.00
H33    H     0.63577   0.86302   0.82937   0.00000  Uiso   1.00
H34    H     0.45234   0.71205   0.82413   0.00000  Uiso   1.00
H35    H     0.77457   0.60212   0.59624   0.00000  Uiso   1.00
H36    H     0.72113   0.97077   0.88671   0.00000  Uiso   1.00
H37    H     0.33431   0.65240   0.87566   0.00000  Uiso   1.00
O38    O     0.94194   0.50396   0.55633   0.00000  Uiso   1.00
O39    O     0.87181   0.98761   0.93742   0.00000  Uiso   1.00
O40    O     0.36432   0.56991   0.92292   0.00000  Uiso   1.00
N41    N     0.94229   0.52719   0.63836   0.00000  Uiso   1.00
N42    N     0.89234   0.87185   0.90992   0.00000  Uiso   1.00
N43    N     0.53069   0.57422   0.89960   0.00000  Uiso   1.00
N44    N     0.81744   0.58597   0.61754   0.00000  Uiso   1.00
N45    N     0.76748   0.93063   0.88910   0.00000  Uiso   1.00
N46    N     0.40584   0.63300   0.87878   0.00000  Uiso   1.00
C47    C     0.40820   0.24877   0.93058   0.00000  Uiso   1.00
C48    C     0.40016   0.31219   0.97455   0.00000  Uiso   1.00
C49    C     0.37348   0.37723   0.97592   0.00000  Uiso   1.00
C50    C     0.37046   0.42842   0.01960   0.00000  Uiso   1.00
C51    C     0.35455   0.52894   0.08165   0.00000  Uiso   1.00
C52    C     0.51617   0.20615   0.92280   0.00000  Uiso   1.00
C53    C     0.58702   0.18202   0.88067   0.00000  Uiso   1.00
C54    C     0.68165   0.14394   0.88080   0.00000  Uiso   1.00
C55    C     0.84581   0.07979   0.86250   0.00000  Uiso   1.00
C56    C     0.33713   0.21102   0.94589   0.00000  Uiso   1.00
C57    C     0.25746   0.19098   0.92315   0.00000  Uiso   1.00
C58    C     0.20136   0.15698   0.94270   0.00000  Uiso   1.00
C59    C     0.08754   0.10040   0.96025   0.00000  Uiso   1.00
C60    C     0.45028   0.22403   0.00572   0.00000  Uiso   1.00
C61    C     0.42302   0.29875   0.01536   0.00000  Uiso   1.00
C62    C     0.42003   0.34986   0.05905   0.00000  Uiso   1.00
C63    C     0.39335   0.41496   0.06049   0.00000  Uiso   1.00
C64    C     0.53902   0.19271   0.96361   0.00000  Uiso   1.00
C65    C     0.63357   0.15466   0.96380   0.00000  Uiso   1.00
C66    C     0.70454   0.13048   0.92168   0.00000  Uiso   1.00
C67    C     0.35998   0.19759   0.98670   0.00000  Uiso   1.00
C68    C     0.30401   0.16361   0.00629   0.00000  Uiso   1.00
C69    C     0.22426   0.14352   0.98359   0.00000  Uiso   1.00
H70    H     0.39042   0.25923   0.89881   0.00000  Uiso   1.00
H71    H     0.35581   0.38761   0.94433   0.00000  Uiso   1.00
H72    H     0.56931   0.19242   0.84909   0.00000  Uiso   1.00
H73    H     0.23980   0.20138   0.89157   0.00000  Uiso   1.00
H74    H     0.32756   0.52401   0.01279   0.00000  Uiso   1.00
H75    H     0.77772   0.11244   0.81197   0.00000  Uiso   1.00
H76    H     0.08288   0.13132   0.90154   0.00000  Uiso   1.00
H77    H     0.46807   0.21357   0.03750   0.00000  Uiso   1.00
H78    H     0.43772   0.33945   0.09063   0.00000  Uiso   1.00
H79    H     0.65122   0.14427   0.99539   0.00000  Uiso   1.00
H80    H     0.32171   0.15322   0.03787   0.00000  Uiso   1.00
H81    H     0.39404   0.48492   0.13153   0.00000  Uiso   1.00
H82    H     0.84420   0.07335   0.93071   0.00000  Uiso   1.00
H83    H     0.14936   0.09224   0.02029   0.00000  Uiso   1.00
O84    O     0.33947   0.58809   0.10460   0.00000  Uiso   1.00
O85    O     0.93005   0.04812   0.84114   0.00000  Uiso   1.00
O86    O     0.01844   0.07290   0.95865   0.00000  Uiso   1.00
N87    N     0.34735   0.49753   0.03344   0.00000  Uiso   1.00
N88    N     0.76823   0.11275   0.84570   0.00000  Uiso   1.00
N89    N     0.11863   0.13039   0.92943   0.00000  Uiso   1.00
N90    N     0.38312   0.47650   0.09734   0.00000  Uiso   1.00
N91    N     0.80400   0.09172   0.90959   0.00000  Uiso   1.00
N92    N     0.15440   0.10936   0.99332   0.00000  Uiso   1.00
C93    C     0.48393   0.42594   0.46000   0.00000  Uiso   1.00
C94    C     0.50114   0.36094   0.46927   0.00000  Uiso   1.00
C95    C     0.54822   0.34929   0.50584   0.00000  Uiso   1.00
C96    C     0.55661   0.28650   0.50824   0.00000  Uiso   1.00
C97    C     0.58906   0.19306   0.52764   0.00000  Uiso   1.00
C98    C     0.53404   0.40706   0.40797   0.00000  Uiso   1.00
C99    C     0.60878   0.43420   0.39299   0.00000  Uiso   1.00
C100   C     0.64485   0.41024   0.34379   0.00000  Uiso   1.00
C101   C     0.72833   0.38845   0.26801   0.00000  Uiso   1.00
C102   C     0.36946   0.44759   0.46113   0.00000  Uiso   1.00
C103   C     0.30581   0.50882   0.49084   0.00000  Uiso   1.00
C104   C     0.20331   0.51900   0.48639   0.00000  Uiso   1.00
C105   C     0.03125   0.56013   0.49316   0.00000  Uiso   1.00
C106   C     0.41509   0.33514   0.39925   0.00000  Uiso   1.00
C107   C     0.46375   0.31162   0.43627   0.00000  Uiso   1.00
C108   C     0.47206   0.24883   0.43863   0.00000  Uiso   1.00
C109   C     0.51915   0.23709   0.47519   0.00000  Uiso   1.00
C110   C     0.49665   0.35774   0.37497   0.00000  Uiso   1.00
C111   C     0.53262   0.33374   0.32578   0.00000  Uiso   1.00
C112   C     0.60739   0.36083   0.31073   0.00000  Uiso   1.00
C113   C     0.33206   0.39827   0.42813   0.00000  Uiso   1.00
C114   C     0.22965   0.40836   0.42363   0.00000  Uiso   1.00
C115   C     0.16586   0.46959   0.45334   0.00000  Uiso   1.00
H116   H     0.51304   0.46434   0.48569   0.00000  Uiso   1.00
H117   H     0.57716   0.38747   0.53136   0.00000  Uiso   1.00
H118   H     0.63769   0.47237   0.41853   0.00000  Uiso   1.00
H119   H     0.33477   0.54698   0.51637   0.00000  Uiso   1.00
H120   H     0.63178   0.28049   0.56744   0.00000  Uiso   1.00
H121   H     0.75940   0.45953   0.32953   0.00000  Uiso   1.00
H122   H     0.12063   0.61685   0.53584   0.00000  Uiso   1.00
H123   H     0.38598   0.29674   0.37356   0.00000  Uiso   1.00
H124   H     0.44312   0.21067   0.41309   0.00000  Uiso   1.00
H125   H     0.50366   0.29558   0.30026   0.00000  Uiso   1.00
H126   H     0.20074   0.37018   0.39810   0.00000  Uiso   1.00
H127   H     0.52299   0.13699   0.47144   0.00000  Uiso   1.00
H128   H     0.65061   0.31604   0.23353   0.00000  Uiso   1.00
H129   H     0.01185   0.47335   0.43985   0.00000  Uiso   1.00
O130   O     0.61730   0.15514   0.54745   0.00000  Uiso   1.00
O131   O     0.78471   0.39004   0.23533   0.00000  Uiso   1.00
O132   O     0.94667   0.59644   0.50601   0.00000  Uiso   1.00
N133   N     0.59832   0.25853   0.53943   0.00000  Uiso   1.00
N134   N     0.71765   0.42592   0.31700   0.00000  Uiso   1.00
N135   N     0.12046   0.57300   0.50987   0.00000  Uiso   1.00
N136   N     0.53978   0.18132   0.48777   0.00000  Uiso   1.00
N137   N     0.65911   0.34870   0.26534   0.00000  Uiso   1.00
N138   N     0.06192   0.49579   0.45822   0.00000  Uiso   1.00
C139   C     0.94278   0.63997   0.37120   0.00000  Uiso   1.00
C140   C     0.94178   0.67361   0.33445   0.00000  Uiso   1.00
C141   C     0.98235   0.72799   0.33741   0.00000  Uiso   1.00
C142   C     0.97377   0.75141   0.30012   0.00000  Uiso   1.00
C143   C     0.97949   0.80817   0.24895   0.00000  Uiso   1.00
C144   C     0.99500   0.56633   0.34320   0.00000  Uiso   1.00
C145   C     0.08031   0.53051   0.35353   0.00000  Uiso   1.00
C146   C     0.11651   0.46362   0.32360   0.00000  Uiso   1.00
C147   C     0.20481   0.35382   0.28604   0.00000  Uiso   1.00
C148   C     0.83168   0.64219   0.38696   0.00000  Uiso   1.00
C149   C     0.77966   0.67015   0.43407   0.00000  Uiso   1.00
C150   C     0.67836   0.66711   0.44099   0.00000  Uiso   1.00
C151   C     0.51308   0.67510   0.47137   0.00000  Uiso   1.00
C152   C     0.85540   0.58484   0.29971   0.00000  Uiso   1.00
C153   C     0.89432   0.64366   0.29562   0.00000  Uiso   1.00
C154   C     0.88567   0.66700   0.25831   0.00000  Uiso   1.00
C155   C     0.92622   0.72142   0.26122   0.00000  Uiso   1.00
C156   C     0.94754   0.53638   0.30437   0.00000  Uiso   1.00
C157   C     0.98363   0.46952   0.27443   0.00000  Uiso   1.00
C158   C     0.06897   0.43362   0.28470   0.00000  Uiso   1.00
C159   C     0.78421   0.61225   0.34813   0.00000  Uiso   1.00
C160   C     0.68298   0.60916   0.35498   0.00000  Uiso   1.00
C161   C     0.63082   0.63712   0.40209   0.00000  Uiso   1.00
H162   H     0.97973   0.66327   0.40143   0.00000  Uiso   1.00
H163   H     0.01908   0.75115   0.36746   0.00000  Uiso   1.00
H164   H     0.11701   0.55370   0.38358   0.00000  Uiso   1.00
H165   H     0.81641   0.69331   0.46411   0.00000  Uiso   1.00
H166   H     0.04181   0.83535   0.31267   0.00000  Uiso   1.00
H167   H     0.24828   0.41901   0.34666   0.00000  Uiso   1.00
H168   H     0.61441   0.71342   0.51649   0.00000  Uiso   1.00
H169   H     0.81845   0.56153   0.26948   0.00000  Uiso   1.00
H170   H     0.84894   0.64382   0.22827   0.00000  Uiso   1.00
H171   H     0.94688   0.44637   0.24439   0.00000  Uiso   1.00
H172   H     0.64628   0.58599   0.32492   0.00000  Uiso   1.00
H173   H     0.90372   0.74824   0.19969   0.00000  Uiso   1.00
H174   H     0.11019   0.33190   0.23369   0.00000  Uiso   1.00
H175   H     0.47632   0.62631   0.40351   0.00000  Uiso   1.00
O176   O     0.99577   0.84775   0.23144   0.00000  Uiso   1.00
O177   O     0.26664   0.30153   0.27605   0.00000  Uiso   1.00
O178   O     0.43502   0.68779   0.49885   0.00000  Uiso   1.00
N179   N     0.00511   0.80356   0.29174   0.00000  Uiso   1.00
N180   N     0.19816   0.41431   0.32352   0.00000  Uiso   1.00
N181   N     0.60555   0.68955   0.48229   0.00000  Uiso   1.00
N182   N     0.93080   0.75669   0.23095   0.00000  Uiso   1.00
N183   N     0.12385   0.36744   0.26273   0.00000  Uiso   1.00
N184   N     0.53124   0.64267   0.42150   0.00000  Uiso   1.00
C185   C     0.21078   0.00088   0.63842   0.00000  Uiso   1.00
C186   C     0.22722   0.93187   0.64159   0.00000  Uiso   1.00
C187   C     0.27157   0.87137   0.60398   0.00000  Uiso   1.00
C188   C     0.27970   0.81374   0.61420   0.00000  Uiso   1.00
C189   C     0.31060   0.70616   0.61209   0.00000  Uiso   1.00
C190   C     0.26410   0.04137   0.67697   0.00000  Uiso   1.00
C191   C     0.33944   0.07293   0.66911   0.00000  Uiso   1.00
C192   C     0.37861   0.10749   0.70911   0.00000  Uiso   1.00
C193   C     0.46671   0.16994   0.76193   0.00000  Uiso   1.00
C194   C     0.09690   0.03300   0.65498   0.00000  Uiso   1.00
C195   C     0.03165   0.05754   0.62863   0.00000  Uiso   1.00
C196   C     0.93005   0.08506   0.65012   0.00000  Uiso   1.00
C197   C     0.75854   0.13451   0.66880   0.00000  Uiso   1.00
C198   C     0.14638   0.00613   0.72344   0.00000  Uiso   1.00
C199   C     0.19224   0.93473   0.68776   0.00000  Uiso   1.00
C200   C     0.20031   0.87718   0.69804   0.00000  Uiso   1.00
C201   C     0.24466   0.81659   0.66045   0.00000  Uiso   1.00
C202   C     0.22912   0.04422   0.72314   0.00000  Uiso   1.00
C203   C     0.26819   0.07874   0.76316   0.00000  Uiso   1.00
C204   C     0.34357   0.11035   0.75536   0.00000  Uiso   1.00
C205   C     0.06191   0.03585   0.70115   0.00000  Uiso   1.00
C206   C     0.96040   0.06334   0.72269   0.00000  Uiso   1.00
C207   C     0.89500   0.08792   0.69638   0.00000  Uiso   1.00
H208   H     0.23802   0.99866   0.60248   0.00000  Uiso   1.00
H209   H     0.29864   0.86918   0.56826   0.00000  Uiso   1.00
H210   H     0.36649   0.07072   0.63337   0.00000  Uiso   1.00
H211   H     0.05875   0.05532   0.59290   0.00000  Uiso   1.00
H212   H     0.35045   0.72689   0.55068   0.00000  Uiso   1.00
H213   H     0.49349   0.15187   0.68798   0.00000  Uiso   1.00
H214   H     0.84456   0.11940   0.60265   0.00000  Uiso   1.00
H215   H     0.11914   0.00835   0.75939   0.00000  Uiso   1.00
H216   H     0.17323   0.87940   0.73377   0.00000  Uiso   1.00
H217   H     0.24109   0.08094   0.79889   0.00000  Uiso   1.00
H218   H     0.93335   0.06554   0.75842   0.00000  Uiso   1.00
H219   H     0.24867   0.73518   0.68502   0.00000  Uiso   1.00
H220   H     0.39172   0.16016   0.82232   0.00000  Uiso   1.00
H221   H     0.74279   0.12769   0.73699   0.00000  Uiso   1.00
O222   O     0.33732   0.64603   0.59818   0.00000  Uiso   1.00
O223   O     0.52497   0.20360   0.77831   0.00000  Uiso   1.00
O224   O     0.67359   0.16099   0.66635   0.00000  Uiso   1.00
N225   N     0.31905   0.74653   0.58581   0.00000  Uiso   1.00
N226   N     0.45280   0.14386   0.71418   0.00000  Uiso   1.00
N227   N     0.84611   0.11352   0.63440   0.00000  Uiso   1.00
N228   N     0.26429   0.75100   0.65810   0.00000  Uiso   1.00
N229   N     0.39804   0.14832   0.78647   0.00000  Uiso   1.00
N230   N     0.79135   0.11798   0.70669   0.00000  Uiso   1.00
C231   C     0.06371   0.83550   0.05957   0.00000  Uiso   1.00
C232   C     0.03372   0.89804   0.10569   0.00000  Uiso   1.00
C233   C     0.05117   0.90100   0.15124   0.00000  Uiso   1.00
C234   C     0.01794   0.96295   0.18879   0.00000  Uiso   1.00
C235   C     0.97885   0.05141   0.26157   0.00000  Uiso   1.00
C236   C     0.13011   0.85246   0.02405   0.00000  Uiso   1.00
C237   C     0.22860   0.81708   0.00097   0.00000  Uiso   1.00
C238   C     0.27651   0.84066   0.96979   0.00000  Uiso   1.00
C239   C     0.38706   0.85832   0.91580   0.00000  Uiso   1.00
C240   C     0.96560   0.82781   0.03916   0.00000  Uiso   1.00
C241   C     0.92578   0.77170   0.02877   0.00000  Uiso   1.00
C242   C     0.83519   0.77452   0.01029   0.00000  Uiso   1.00
C243   C     0.69030   0.75391   0.97977   0.00000  Uiso   1.00
C244   C     0.97367   0.94028   0.04524   0.00000  Uiso   1.00
C245   C     0.98481   0.95495   0.09790   0.00000  Uiso   1.00
C246   C     0.95154   0.01692   0.13539   0.00000  Uiso   1.00
C247   C     0.96894   0.01997   0.18099   0.00000  Uiso   1.00
C248   C     0.08121   0.90937   0.01626   0.00000  Uiso   1.00
C249   C     0.12898   0.93300   0.98511   0.00000  Uiso   1.00
C250   C     0.22752   0.89767   0.96199   0.00000  Uiso   1.00
C251   C     0.91669   0.88472   0.03137   0.00000  Uiso   1.00
C252   C     0.82615   0.88763   0.01291   0.00000  Uiso   1.00
C253   C     0.78619   0.83154   0.00249   0.00000  Uiso   1.00
H254   H     0.10179   0.79119   0.06563   0.00000  Uiso   1.00
H255   H     0.08903   0.85694   0.15725   0.00000  Uiso   1.00
H256   H     0.26643   0.77303   0.00700   0.00000  Uiso   1.00
H257   H     0.96364   0.72767   0.03480   0.00000  Uiso   1.00
H258   H     0.05334   0.95494   0.25540   0.00000  Uiso   1.00
H259   H     0.42739   0.77800   0.93856   0.00000  Uiso   1.00
H260   H     0.78891   0.68234   0.99717   0.00000  Uiso   1.00
H261   H     0.93559   0.98459   0.03917   0.00000  Uiso   1.00
H262   H     0.91370   0.06095   0.12935   0.00000  Uiso   1.00
H263   H     0.09111   0.97704   0.97909   0.00000  Uiso   1.00
H264   H     0.78832   0.93168   0.00689   0.00000  Uiso   1.00
H265   H     0.91104   0.12053   0.23275   0.00000  Uiso   1.00
H266   H     0.28509   0.94358   0.91591   0.00000  Uiso   1.00
H267   H     0.64662   0.84792   0.97453   0.00000  Uiso   1.00
O268   O     0.97082   0.08448   0.30387   0.00000  Uiso   1.00
O269   O     0.46155   0.85234   0.88818   0.00000  Uiso   1.00
O270   O     0.62389   0.72683   0.96509   0.00000  Uiso   1.00
N271   N     0.02283   0.98343   0.23769   0.00000  Uiso   1.00
N272   N     0.37255   0.81801   0.94147   0.00000  Uiso   1.00
N273   N     0.77565   0.72856   0.99626   0.00000  Uiso   1.00
N274   N     0.94626   0.07253   0.22551   0.00000  Uiso   1.00
N275   N     0.29598   0.90711   0.92929   0.00000  Uiso   1.00
N276   N     0.69908   0.81766   0.98408   0.00000  Uiso   1.00
C277   C     0.32354   0.55711   0.23741   0.00000  Uiso   1.00
C278   C     0.30985   0.57971   0.29222   0.00000  Uiso   1.00
C279   C     0.23212   0.63107   0.32472   0.00000  Uiso   1.00
C280   C     0.23300   0.64402   0.37341   0.00000  Uiso   1.00
C281   C     0.20018   0.68473   0.45615   0.00000  Uiso   1.00
C282   C     0.32613   0.48261   0.21843   0.00000  Uiso   1.00
C283   C     0.26209   0.45234   0.18887   0.00000  Uiso   1.00
C284   C     0.27669   0.38355   0.17544   0.00000  Uiso   1.00
C285   C     0.26919   0.27351   0.14357   0.00000  Uiso   1.00
C286   C     0.43043   0.56217   0.22124   0.00000  Uiso   1.00
C287   C     0.45409   0.59878   0.19405   0.00000  Uiso   1.00
C288   C     0.55650   0.59697   0.18297   0.00000  Uiso   1.00
C289   C     0.71093   0.61046   0.15548   0.00000  Uiso   1.00
C290   C     0.46335   0.48877   0.26609   0.00000  Uiso   1.00
C291   C     0.38579   0.54258   0.30780   0.00000  Uiso   1.00
C292   C     0.38680   0.55546   0.35645   0.00000  Uiso   1.00
C293   C     0.30908   0.60683   0.38902   0.00000  Uiso   1.00
C294   C     0.40207   0.44549   0.23400   0.00000  Uiso   1.00
C295   C     0.41677   0.37672   0.22060   0.00000  Uiso   1.00
C296   C     0.35277   0.34636   0.19104   0.00000  Uiso   1.00
C297   C     0.50637   0.52505   0.23682   0.00000  Uiso   1.00
C298   C     0.60877   0.52317   0.22578   0.00000  Uiso   1.00
C299   C     0.63258   0.55978   0.19857   0.00000  Uiso   1.00
H300   H     0.26442   0.58601   0.22529   0.00000  Uiso   1.00
H301   H     0.17336   0.65978   0.31266   0.00000  Uiso   1.00
H302   H     0.20334   0.48108   0.17682   0.00000  Uiso   1.00
H303   H     0.39530   0.62750   0.18200   0.00000  Uiso   1.00
H304   H     0.10587   0.72519   0.41639   0.00000  Uiso   1.00
H305   H     0.16911   0.34838   0.12997   0.00000  Uiso   1.00
H306   H     0.57391   0.65714   0.14088   0.00000  Uiso   1.00
H307   H     0.52247   0.45986   0.27821   0.00000  Uiso   1.00
H308   H     0.44557   0.52672   0.36849   0.00000  Uiso   1.00
H309   H     0.47555   0.34801   0.23266   0.00000  Uiso   1.00
H310   H     0.66751   0.49444   0.23783   0.00000  Uiso   1.00
H311   H     0.32681   0.61719   0.46171   0.00000  Uiso   1.00
H312   H     0.39005   0.24038   0.17528   0.00000  Uiso   1.00
H313   H     0.79484   0.54914   0.18620   0.00000  Uiso   1.00
O314   O     0.16108   0.71744   0.49748   0.00000  Uiso   1.00
O315   O     0.24406   0.22307   0.12170   0.00000  Uiso   1.00
O316   O     0.77513   0.62816   0.13601   0.00000  Uiso   1.00
N317   N     0.16844   0.69061   0.41467   0.00000  Uiso   1.00
N318   N     0.22755   0.33831   0.14688   0.00000  Uiso   1.00
N319   N     0.60600   0.62697   0.15707   0.00000  Uiso   1.00
N320   N     0.28732   0.63250   0.43905   0.00000  Uiso   1.00
N321   N     0.34643   0.28020   0.17127   0.00000  Uiso   1.00
N322   N     0.72488   0.56885   0.18146   0.00000  Uiso   1.00
C323   C     0.40195   0.92244   0.22032   0.00000  Uiso   1.00
C324   C     0.42595   0.86419   0.17167   0.00000  Uiso   1.00
C325   C     0.39187   0.80588   0.16125   0.00000  Uiso   1.00
C326   C     0.42223   0.75860   0.11458   0.00000  Uiso   1.00
C327   C     0.44999   0.66654   0.04436   0.00000  Uiso   1.00
C328   C     0.35362   0.98440   0.21059   0.00000  Uiso   1.00
C329   C     0.25872   0.02716   0.23289   0.00000  Uiso   1.00
C330   C     0.22820   0.08107   0.21899   0.00000  Uiso   1.00
C331   C     0.14369   0.17566   0.20921   0.00000  Uiso   1.00
C332   C     0.50476   0.93224   0.23460   0.00000  Uiso   1.00
C333   C     0.53695   0.93118   0.27709   0.00000  Uiso   1.00
C334   C     0.63368   0.94120   0.28341   0.00000  Uiso   1.00
C335   C     0.78385   0.95481   0.31091   0.00000  Uiso   1.00
C336   C     0.51648   0.94216   0.15599   0.00000  Uiso   1.00
C337   C     0.48816   0.87490   0.13673   0.00000  Uiso   1.00
C338   C     0.51858   0.82769   0.09007   0.00000  Uiso   1.00
C339   C     0.48455   0.76932   0.07957   0.00000  Uiso   1.00
C340   C     0.41582   0.99511   0.17565   0.00000  Uiso   1.00
C341   C     0.38543   0.04897   0.16172   0.00000  Uiso   1.00
C342   C     0.29052   0.09180   0.18398   0.00000  Uiso   1.00
C343   C     0.56697   0.94295   0.19966   0.00000  Uiso   1.00
C344   C     0.66366   0.95299   0.20591   0.00000  Uiso   1.00
C345   C     0.69599   0.95193   0.24840   0.00000  Uiso   1.00
H346   H     0.35352   0.91410   0.24752   0.00000  Uiso   1.00
H347   H     0.34372   0.79761   0.18830   0.00000  Uiso   1.00
H348   H     0.21061   0.01886   0.25993   0.00000  Uiso   1.00
H349   H     0.48879   0.92289   0.30412   0.00000  Uiso   1.00
H350   H     0.36027   0.67319   0.10722   0.00000  Uiso   1.00
H351   H     0.07959   0.13972   0.25828   0.00000  Uiso   1.00
H352   H     0.66620   0.93734   0.35147   0.00000  Uiso   1.00
H353   H     0.56491   0.95050   0.12878   0.00000  Uiso   1.00
H354   H     0.56672   0.83600   0.06304   0.00000  Uiso   1.00
H355   H     0.43359   0.05725   0.13468   0.00000  Uiso   1.00
H356   H     0.71178   0.96127   0.17886   0.00000  Uiso   1.00
H357   H     0.54125   0.70435   0.00555   0.00000  Uiso   1.00
H358   H     0.26058   0.17088   0.15662   0.00000  Uiso   1.00
H359   H     0.84719   0.96850   0.24980   0.00000  Uiso   1.00
O360   O     0.44811   0.61280   0.01527   0.00000  Uiso   1.00
O361   O     0.07988   0.22487   0.21347   0.00000  Uiso   1.00
O362   O     0.84950   0.95936   0.33572   0.00000  Uiso   1.00
N363   N     0.40263   0.69623   0.09232   0.00000  Uiso   1.00
N364   N     0.14021   0.13240   0.23355   0.00000  Uiso   1.00
N365   N     0.68863   0.94321   0.32067   0.00000  Uiso   1.00
N366   N     0.50002   0.71300   0.03761   0.00000  Uiso   1.00
N367   N     0.23760   0.14917   0.17884   0.00000  Uiso   1.00
N368   N     0.78602   0.95998   0.26597   0.00000  Uiso   1.00
C369   C     0.58188   0.85750   0.62671   0.00000  Uiso   1.00
C370   C     0.56529   0.90941   0.60331   0.00000  Uiso   1.00
C371   C     0.51332   0.90620   0.56494   0.00000  Uiso   1.00
C372   C     0.50646   0.95869   0.54875   0.00000  Uiso   1.00
C373   C     0.47402   0.03113   0.50916   0.00000  Uiso   1.00
C374   C     0.53835   0.89532   0.68016   0.00000  Uiso   1.00
C375   C     0.46374   0.88026   0.70640   0.00000  Uiso   1.00
C376   C     0.43422   0.92088   0.75490   0.00000  Uiso   1.00
C377   C     0.36001   0.97140   0.83463   0.00000  Uiso   1.00
C378   C     0.69699   0.83557   0.62372   0.00000  Uiso   1.00
C379   C     0.75576   0.77028   0.60253   0.00000  Uiso   1.00
C380   C     0.85980   0.76059   0.60352   0.00000  Uiso   1.00
C381   C     0.03189   0.71836   0.59562   0.00000  Uiso   1.00
C382   C     0.66213   0.95641   0.66618   0.00000  Uiso   1.00
C383   C     0.60887   0.96313   0.62475   0.00000  Uiso   1.00
C384   C     0.60210   0.01563   0.60860   0.00000  Uiso   1.00
C385   C     0.55013   0.01251   0.57022   0.00000  Uiso   1.00
C386   C     0.58193   0.94904   0.70159   0.00000  Uiso   1.00
C387   C     0.55252   0.98969   0.75006   0.00000  Uiso   1.00
C388   C     0.47788   0.97469   0.77638   0.00000  Uiso   1.00
C389   C     0.74057   0.88930   0.64515   0.00000  Uiso   1.00
C390   C     0.84454   0.87971   0.64618   0.00000  Uiso   1.00
C391   C     0.90346   0.81441   0.62499   0.00000  Uiso   1.00
H392   H     0.54795   0.81568   0.61003   0.00000  Uiso   1.00
H393   H     0.47959   0.86462   0.54837   0.00000  Uiso   1.00
H394   H     0.43004   0.83868   0.68981   0.00000  Uiso   1.00
H395   H     0.72201   0.72872   0.58594   0.00000  Uiso   1.00
H396   H     0.42300   0.94259   0.48947   0.00000  Uiso   1.00
H397   H     0.31853   0.88786   0.78771   0.00000  Uiso   1.00
H398   H     0.93420   0.65599   0.56869   0.00000  Uiso   1.00
H399   H     0.69606   0.99824   0.68286   0.00000  Uiso   1.00
H400   H     0.63583   0.05720   0.62520   0.00000  Uiso   1.00
H401   H     0.58627   0.03125   0.76664   0.00000  Uiso   1.00
H402   H     0.87824   0.92129   0.66277   0.00000  Uiso   1.00
H403   H     0.54980   0.09889   0.55183   0.00000  Uiso   1.00
H404   H     0.44533   0.04417   0.85007   0.00000  Uiso   1.00
H405   H     0.06100   0.81229   0.63105   0.00000  Uiso   1.00
O406   O     0.44408   0.05625   0.48141   0.00000  Uiso   1.00
O407   O     0.30703   0.98444   0.87269   0.00000  Uiso   1.00
O408   O     0.11478   0.68023   0.58534   0.00000  Uiso   1.00
N409   N     0.46112   0.97128   0.51205   0.00000  Uiso   1.00
N410   N     0.36344   0.92012   0.79089   0.00000  Uiso   1.00
N411   N     0.93904   0.70333   0.58614   0.00000  Uiso   1.00
N412   N     0.52936   0.05538   0.54561   0.00000  Uiso   1.00
N413   N     0.43167   0.00422   0.82444   0.00000  Uiso   1.00
N414   N     0.00727   0.78744   0.61969   0.00000  Uiso   1.00
C415   C     0.10088   0.65624   0.76056   0.00000  Uiso   1.00
C416   C     0.10990   0.65868   0.81147   0.00000  Uiso   1.00
C417   C     0.06853   0.62132   0.83367   0.00000  Uiso   1.00
C418   C     0.08528   0.63077   0.88039   0.00000  Uiso   1.00
C419   C     0.09071   0.62770   0.95585   0.00000  Uiso   1.00
C420   C     0.05367   0.72791   0.76586   0.00000  Uiso   1.00
C421   C     0.96503   0.74876   0.74971   0.00000  Uiso   1.00
C422   C     0.93446   0.81649   0.75803   0.00000  Uiso   1.00
C423   C     0.85263   0.92089   0.76265   0.00000  Uiso   1.00
C424   C     0.20987   0.63917   0.73416   0.00000  Uiso   1.00
C425   C     0.25256   0.58541   0.69135   0.00000  Uiso   1.00
C426   C     0.35350   0.57843   0.67298   0.00000  Uiso   1.00
C427   C     0.51419   0.54504   0.62839   0.00000  Uiso   1.00
C428   C     0.20421   0.73945   0.80405   0.00000  Uiso   1.00
C429   C     0.16602   0.70387   0.83509   0.00000  Uiso   1.00
C430   C     0.18285   0.71338   0.88179   0.00000  Uiso   1.00
C431   C     0.14151   0.67604   0.90406   0.00000  Uiso   1.00
C432   C     0.10979   0.77310   0.78948   0.00000  Uiso   1.00
C433   C     0.07935   0.84081   0.79782   0.00000  Uiso   1.00
C434   C     0.99069   0.86176   0.78169   0.00000  Uiso   1.00
C435   C     0.26600   0.68436   0.75778   0.00000  Uiso   1.00
C436   C     0.36689   0.67746   0.73947   0.00000  Uiso   1.00
C437   C     0.40973   0.62370   0.69665   0.00000  Uiso   1.00
H438   H     0.05718   0.62106   0.74217   0.00000  Uiso   1.00
H439   H     0.02508   0.58636   0.81538   0.00000  Uiso   1.00
H440   H     0.92161   0.71377   0.73143   0.00000  Uiso   1.00
H441   H     0.20910   0.55045   0.67309   0.00000  Uiso   1.00
H442   H     0.01422   0.56783   0.90697   0.00000  Uiso   1.00
H443   H     0.79607   0.83649   0.72993   0.00000  Uiso   1.00
H444   H     0.40229   0.49208   0.60691   0.00000  Uiso   1.00
H445   H     0.24791   0.77463   0.82244   0.00000  Uiso   1.00
H446   H     0.22629   0.74835   0.90005   0.00000  Uiso   1.00
H447   H     0.12281   0.87577   0.81610   0.00000  Uiso   1.00
H448   H     0.41030   0.71244   0.75776   0.00000  Uiso   1.00
H449   H     0.17752   0.69931   0.97570   0.00000  Uiso   1.00
H450   H     0.95937   0.96797   0.79865   0.00000  Uiso   1.00
H451   H     0.56559   0.62357   0.67563   0.00000  Uiso   1.00
O452   O     0.07818   0.61353   0.99095   0.00000  Uiso   1.00
O453   O     0.79198   0.96600   0.75867   0.00000  Uiso   1.00
O454   O     0.58733   0.51414   0.59727   0.00000  Uiso   1.00
N455   N     0.05564   0.60237   0.91249   0.00000  Uiso   1.00
N456   N     0.85167   0.85355   0.74698   0.00000  Uiso   1.00
N457   N     0.41843   0.53157   0.63195   0.00000  Uiso   1.00
N458   N     0.14351   0.67312   0.94947   0.00000  Uiso   1.00
N459   N     0.93954   0.92430   0.78396   0.00000  Uiso   1.00
N460   N     0.50630   0.60232   0.66893   0.00000  Uiso   1.00
C461   C     0.86543   0.25045   0.40194   0.00000  Uiso   1.00
C462   C     0.84365   0.32669   0.42176   0.00000  Uiso   1.00
C463   C     0.79063   0.36918   0.46716   0.00000  Uiso   1.00
C464   C     0.77878   0.43741   0.47845   0.00000  Uiso   1.00
C465   C     0.73886   0.55202   0.51423   0.00000  Uiso   1.00
C466   C     0.82183   0.23062   0.35513   0.00000  Uiso   1.00
C467   C     0.75048   0.19232   0.34451   0.00000  Uiso   1.00
C468   C     0.72028   0.17968   0.29971   0.00000  Uiso   1.00
C469   C     0.64654   0.14509   0.23203   0.00000  Uiso   1.00
C470   C     0.98099   0.22532   0.38735   0.00000  Uiso   1.00
C471   C     0.04347   0.18255   0.40381   0.00000  Uiso   1.00
C472   C     0.14728   0.16544   0.38613   0.00000  Uiso   1.00
C473   C     0.32067   0.12263   0.36847   0.00000  Uiso   1.00
C474   C     0.93867   0.29609   0.34126   0.00000  Uiso   1.00
C475   C     0.88343   0.35147   0.38880   0.00000  Uiso   1.00
C476   C     0.87166   0.41966   0.40002   0.00000  Uiso   1.00
C477   C     0.81863   0.46224   0.44544   0.00000  Uiso   1.00
C478   C     0.86161   0.25540   0.32217   0.00000  Uiso   1.00
C479   C     0.83151   0.24281   0.27737   0.00000  Uiso   1.00
C480   C     0.76013   0.20451   0.26669   0.00000  Uiso   1.00
C481   C     0.02078   0.25011   0.35439   0.00000  Uiso   1.00
C482   C     0.12450   0.23305   0.33667   0.00000  Uiso   1.00
C483   C     0.18713   0.19027   0.35311   0.00000  Uiso   1.00
H484   H     0.83446   0.23116   0.42760   0.00000  Uiso   1.00
H485   H     0.75985   0.34998   0.49266   0.00000  Uiso   1.00
H486   H     0.71972   0.17314   0.37002   0.00000  Uiso   1.00
H487   H     0.01266   0.16338   0.42932   0.00000  Uiso   1.00
H488   H     0.69464   0.49264   0.55024   0.00000  Uiso   1.00
H489   H     0.61004   0.11976   0.29166   0.00000  Uiso   1.00
H490   H     0.22778   0.09918   0.41669   0.00000  Uiso   1.00
H491   H     0.96964   0.31538   0.31560   0.00000  Uiso   1.00
H492   H     0.90245   0.43883   0.37451   0.00000  Uiso   1.00
H493   H     0.86232   0.26199   0.25187   0.00000  Uiso   1.00
H494   H     0.15526   0.25224   0.31117   0.00000  Uiso   1.00
H495   H     0.81038   0.56476   0.45435   0.00000  Uiso   1.00
H496   H     0.72578   0.19187   0.19576   0.00000  Uiso   1.00
H497   H     0.34352   0.17130   0.32079   0.00000  Uiso   1.00
O498   O     0.70584   0.60839   0.54306   0.00000  Uiso   1.00
O499   O     0.59487   0.11917   0.20381   0.00000  Uiso   1.00
O500   O     0.40532   0.09217   0.36785   0.00000  Uiso   1.00
N501   N     0.73112   0.49267   0.51959   0.00000  Uiso   1.00
N502   N     0.65201   0.14406   0.27783   0.00000  Uiso   1.00
N503   N     0.22954   0.12480   0.39472   0.00000  Uiso   1.00
N504   N     0.79340   0.53148   0.46799   0.00000  Uiso   1.00
N505   N     0.71429   0.18286   0.22623   0.00000  Uiso   1.00
N506   N     0.29182   0.16361   0.34312   0.00000  Uiso   1.00
C507   C     0.71912   0.43362   0.00257   0.00000  Uiso   1.00
C508   C     0.66469   0.40847   0.95973   0.00000  Uiso   1.00
C509   C     0.57870   0.44501   0.95042   0.00000  Uiso   1.00
C510   C     0.54040   0.41302   0.90936   0.00000  Uiso   1.00
C511   C     0.44884   0.38402   0.84752   0.00000  Uiso   1.00
C512   C     0.72113   0.38438   0.02812   0.00000  Uiso   1.00
C513   C     0.68261   0.40067   0.07630   0.00000  Uiso   1.00
C514   C     0.69184   0.34839   0.09281   0.00000  Uiso   1.00
C515   C     0.68797   0.28199   0.13714   0.00000  Uiso   1.00
C516   C     0.82971   0.42455   0.98122   0.00000  Uiso   1.00
C517   C     0.88251   0.47461   0.98999   0.00000  Uiso   1.00
C518   C     0.98317   0.45615   0.96703   0.00000  Uiso   1.00
C519   C     0.14789   0.45213   0.93856   0.00000  Uiso   1.00
C520   C     0.80401   0.31182   0.94620   0.00000  Uiso   1.00
C521   C     0.71080   0.34231   0.92912   0.00000  Uiso   1.00
C522   C     0.67262   0.31026   0.88806   0.00000  Uiso   1.00
C523   C     0.58660   0.34675   0.87869   0.00000  Uiso   1.00
C524   C     0.76723   0.31822   0.99750   0.00000  Uiso   1.00
C525   C     0.77653   0.26591   0.01394   0.00000  Uiso   1.00
C526   C     0.73803   0.28211   0.06214   0.00000  Uiso   1.00
C527   C     0.87582   0.35839   0.95061   0.00000  Uiso   1.00
C528   C     0.97642   0.33985   0.92763   0.00000  Uiso   1.00
C529   C     0.02936   0.38988   0.93635   0.00000  Uiso   1.00
H530   H     0.68322   0.48513   0.02641   0.00000  Uiso   1.00
H531   H     0.54304   0.49621   0.97413   0.00000  Uiso   1.00
H532   H     0.64694   0.45187   0.09999   0.00000  Uiso   1.00
H533   H     0.84680   0.52580   0.01369   0.00000  Uiso   1.00
H534   H     0.40793   0.47931   0.90268   0.00000  Uiso   1.00
H535   H     0.62704   0.38582   0.16807   0.00000  Uiso   1.00
H536   H     0.04849   0.54172   0.98609   0.00000  Uiso   1.00
H537   H     0.83991   0.26032   0.92236   0.00000  Uiso   1.00
H538   H     0.70832   0.25906   0.86437   0.00000  Uiso   1.00
H539   H     0.81222   0.21472   0.99023   0.00000  Uiso   1.00
H540   H     0.01208   0.28866   0.90393   0.00000  Uiso   1.00
H541   H     0.54207   0.28683   0.81359   0.00000  Uiso   1.00
H542   H     0.76120   0.19334   0.07899   0.00000  Uiso   1.00
H543   H     0.18264   0.34924   0.89701   0.00000  Uiso   1.00
O544   O     0.38559   0.38630   0.82188   0.00000  Uiso   1.00
O545   O     0.67308   0.26364   0.17006   0.00000  Uiso   1.00
O546   O     0.22600   0.46818   0.93130   0.00000  Uiso   1.00
N547   N     0.45757   0.43419   0.88966   0.00000  Uiso   1.00
N548   N     0.66242   0.34678   0.13779   0.00000  Uiso   1.00
N549   N     0.05644   0.49253   0.96766   0.00000  Uiso   1.00
N550   N     0.52975   0.33062   0.84173   0.00000  Uiso   1.00
N551   N     0.73460   0.24321   0.08985   0.00000  Uiso   1.00
N552   N     0.12862   0.38896   0.91973   0.00000  Uiso   1.00
