data_job_02174
_audit_creation_date              2018-12-19
_audit_creation_method            'Materials Studio'
_symmetry_space_group_name_H-M    'P1'
_symmetry_Int_Tables_number       1
_symmetry_cell_setting            triclinic
loop_
_symmetry_equiv_pos_as_xyz
  x,y,z
_cell_length_a                    7.4457
_cell_length_b                    19.4789
_cell_length_c                    39.2836
_cell_angle_alpha                 90.0000
_cell_angle_beta                  90.0000
_cell_angle_gamma                 90.0000
loop_
_atom_site_label
_atom_site_type_symbol
_atom_site_fract_x
_atom_site_fract_y
_atom_site_fract_z
_atom_site_U_iso_or_equiv
_atom_site_adp_type
_atom_site_occupancy
C1     C     0.08971   0.28794   0.40288   0.00000  Uiso   1.00
C2     C     0.03164   0.21308   0.40571   0.00000  Uiso   1.00
C3     C     0.14453   0.15650   0.40395   0.00000  Uiso   1.00
C4     C     0.06532   0.09229   0.40709   0.00000  Uiso   1.00
C5     C     0.00335   0.97716   0.41074   0.00000  Uiso   1.00
C6     C     0.98053   0.31846   0.37373   0.00000  Uiso   1.00
C7     C     0.05046   0.35048   0.34509   0.00000  Uiso   1.00
C8     C     0.92822   0.37498   0.32132   0.00000  Uiso   1.00
C9     C     0.78691   0.42349   0.27534   0.00000  Uiso   1.00
C10    C     0.02298   0.32308   0.43518   0.00000  Uiso   1.00
C11    C     0.12859   0.35902   0.45820   0.00000  Uiso   1.00
C12    C     0.04208   0.38742   0.48617   0.00000  Uiso   1.00
C13    C     0.96668   0.44312   0.53559   0.00000  Uiso   1.00
C14    C     0.74830   0.27451   0.41160   0.00000  Uiso   1.00
C15    C     0.84620   0.20579   0.41044   0.00000  Uiso   1.00
C16    C     0.76680   0.14165   0.41359   0.00000  Uiso   1.00
C17    C     0.87955   0.08498   0.41184   0.00000  Uiso   1.00
C18    C     0.79510   0.31116   0.37847   0.00000  Uiso   1.00
C19    C     0.67273   0.33562   0.35474   0.00000  Uiso   1.00
C20    C     0.74245   0.36767   0.32607   0.00000  Uiso   1.00
C21    C     0.83754   0.31579   0.43992   0.00000  Uiso   1.00
C22    C     0.75086   0.34415   0.46785   0.00000  Uiso   1.00
C23    C     0.85631   0.38012   0.49091   0.00000  Uiso   1.00
H24    H     0.23408   0.29362   0.39919   0.00000  Uiso   1.00
H25    H     0.28803   0.16217   0.40028   0.00000  Uiso   1.00
H26    H     0.19397   0.35612   0.34143   0.00000  Uiso   1.00
H27    H     0.27208   0.36465   0.45453   0.00000  Uiso   1.00
H28    H     0.26605   0.01321   0.40355   0.00000  Uiso   1.00
H29    H     0.06773   0.42219   0.27948   0.00000  Uiso   1.00
H30    H     0.23245   0.44018   0.51797   0.00000  Uiso   1.00
H31    H     0.60392   0.26884   0.41529   0.00000  Uiso   1.00
H32    H     0.62329   0.13602   0.41726   0.00000  Uiso   1.00
H33    H     0.52924   0.32997   0.35841   0.00000  Uiso   1.00
H34    H     0.60735   0.33850   0.47151   0.00000  Uiso   1.00
H35    H     0.72653   0.99199   0.41733   0.00000  Uiso   1.00
H36    H     0.52821   0.40097   0.29326   0.00000  Uiso   1.00
H37    H     0.69292   0.41895   0.53175   0.00000  Uiso   1.00
O38    O     0.02039   0.91568   0.41144   0.00000  Uiso   1.00
O39    O     0.76021   0.45225   0.24867   0.00000  Uiso   1.00
O40    O     0.97632   0.47584   0.56155   0.00000  Uiso   1.00
N41    N     0.13642   0.02645   0.40653   0.00000  Uiso   1.00
N42    N     0.95100   0.40881   0.29053   0.00000  Uiso   1.00
N43    N     0.10500   0.42564   0.51349   0.00000  Uiso   1.00
N44    N     0.84611   0.01503   0.41395   0.00000  Uiso   1.00
N45    N     0.66069   0.39739   0.29795   0.00000  Uiso   1.00
N46    N     0.81468   0.41422   0.52091   0.00000  Uiso   1.00
C47    C     0.41029   0.21206   0.90288   0.00000  Uiso   1.00
C48    C     0.46836   0.28692   0.90571   0.00000  Uiso   1.00
C49    C     0.35547   0.34350   0.90395   0.00000  Uiso   1.00
C50    C     0.43468   0.40771   0.90709   0.00000  Uiso   1.00
C51    C     0.49665   0.52284   0.91074   0.00000  Uiso   1.00
C52    C     0.51947   0.18154   0.87373   0.00000  Uiso   1.00
C53    C     0.44954   0.14952   0.84509   0.00000  Uiso   1.00
C54    C     0.57178   0.12502   0.82132   0.00000  Uiso   1.00
C55    C     0.71309   0.07651   0.77534   0.00000  Uiso   1.00
C56    C     0.47702   0.17692   0.93518   0.00000  Uiso   1.00
C57    C     0.37141   0.14098   0.95820   0.00000  Uiso   1.00
C58    C     0.45792   0.11258   0.98617   0.00000  Uiso   1.00
C59    C     0.53332   0.05688   0.03559   0.00000  Uiso   1.00
C60    C     0.75170   0.22549   0.91160   0.00000  Uiso   1.00
C61    C     0.65380   0.29421   0.91044   0.00000  Uiso   1.00
C62    C     0.73320   0.35835   0.91359   0.00000  Uiso   1.00
C63    C     0.62045   0.41502   0.91184   0.00000  Uiso   1.00
C64    C     0.70490   0.18884   0.87847   0.00000  Uiso   1.00
C65    C     0.82727   0.16438   0.85474   0.00000  Uiso   1.00
C66    C     0.75755   0.13233   0.82607   0.00000  Uiso   1.00
C67    C     0.66246   0.18421   0.93992   0.00000  Uiso   1.00
C68    C     0.74914   0.15585   0.96785   0.00000  Uiso   1.00
C69    C     0.64369   0.11988   0.99091   0.00000  Uiso   1.00
H70    H     0.26592   0.20638   0.89919   0.00000  Uiso   1.00
H71    H     0.21197   0.33783   0.90028   0.00000  Uiso   1.00
H72    H     0.30603   0.14388   0.84143   0.00000  Uiso   1.00
H73    H     0.22792   0.13535   0.95453   0.00000  Uiso   1.00
H74    H     0.23395   0.48679   0.90355   0.00000  Uiso   1.00
H75    H     0.43227   0.07781   0.77948   0.00000  Uiso   1.00
H76    H     0.26755   0.05982   0.01797   0.00000  Uiso   1.00
H77    H     0.89608   0.23116   0.91529   0.00000  Uiso   1.00
H78    H     0.87671   0.36398   0.91726   0.00000  Uiso   1.00
H79    H     0.97076   0.17003   0.85841   0.00000  Uiso   1.00
H80    H     0.89265   0.16150   0.97151   0.00000  Uiso   1.00
H81    H     0.77347   0.50801   0.91733   0.00000  Uiso   1.00
H82    H     0.97179   0.09903   0.79326   0.00000  Uiso   1.00
H83    H     0.80708   0.08105   0.03175   0.00000  Uiso   1.00
O84    O     0.47961   0.58432   0.91144   0.00000  Uiso   1.00
O85    O     0.73979   0.04775   0.74867   0.00000  Uiso   1.00
O86    O     0.52368   0.02416   0.06155   0.00000  Uiso   1.00
N87    N     0.36358   0.47355   0.90653   0.00000  Uiso   1.00
N88    N     0.54900   0.09119   0.79053   0.00000  Uiso   1.00
N89    N     0.39500   0.07436   0.01349   0.00000  Uiso   1.00
N90    N     0.65389   0.48497   0.91395   0.00000  Uiso   1.00
N91    N     0.83931   0.10261   0.79795   0.00000  Uiso   1.00
N92    N     0.68532   0.08578   0.02091   0.00000  Uiso   1.00
C93    C     0.91029   0.28794   0.09712   0.00000  Uiso   1.00
C94    C     0.96836   0.21308   0.09429   0.00000  Uiso   1.00
C95    C     0.85547   0.15650   0.09605   0.00000  Uiso   1.00
C96    C     0.93468   0.09229   0.09291   0.00000  Uiso   1.00
C97    C     0.99665   0.97716   0.08926   0.00000  Uiso   1.00
C98    C     0.01947   0.31846   0.12627   0.00000  Uiso   1.00
C99    C     0.94954   0.35048   0.15491   0.00000  Uiso   1.00
C100   C     0.07178   0.37498   0.17868   0.00000  Uiso   1.00
C101   C     0.21309   0.42349   0.22466   0.00000  Uiso   1.00
C102   C     0.97702   0.32308   0.06482   0.00000  Uiso   1.00
C103   C     0.87141   0.35902   0.04180   0.00000  Uiso   1.00
C104   C     0.95792   0.38742   0.01383   0.00000  Uiso   1.00
C105   C     0.03332   0.44312   0.96441   0.00000  Uiso   1.00
C106   C     0.25170   0.27451   0.08840   0.00000  Uiso   1.00
C107   C     0.15380   0.20579   0.08956   0.00000  Uiso   1.00
C108   C     0.23320   0.14165   0.08641   0.00000  Uiso   1.00
C109   C     0.12045   0.08498   0.08816   0.00000  Uiso   1.00
C110   C     0.20490   0.31116   0.12153   0.00000  Uiso   1.00
C111   C     0.32727   0.33562   0.14526   0.00000  Uiso   1.00
C112   C     0.25755   0.36767   0.17393   0.00000  Uiso   1.00
C113   C     0.16246   0.31579   0.06008   0.00000  Uiso   1.00
C114   C     0.24914   0.34415   0.03215   0.00000  Uiso   1.00
C115   C     0.14369   0.38012   0.00909   0.00000  Uiso   1.00
H116   H     0.76592   0.29362   0.10081   0.00000  Uiso   1.00
H117   H     0.71197   0.16217   0.09972   0.00000  Uiso   1.00
H118   H     0.80603   0.35612   0.15857   0.00000  Uiso   1.00
H119   H     0.72792   0.36465   0.04547   0.00000  Uiso   1.00
H120   H     0.73395   0.01321   0.09645   0.00000  Uiso   1.00
H121   H     0.93227   0.42219   0.22052   0.00000  Uiso   1.00
H122   H     0.76755   0.44018   0.98203   0.00000  Uiso   1.00
H123   H     0.39608   0.26884   0.08471   0.00000  Uiso   1.00
H124   H     0.37671   0.13602   0.08274   0.00000  Uiso   1.00
H125   H     0.47076   0.32997   0.14159   0.00000  Uiso   1.00
H126   H     0.39265   0.33850   0.02849   0.00000  Uiso   1.00
H127   H     0.27347   0.99199   0.08267   0.00000  Uiso   1.00
H128   H     0.47179   0.40097   0.20674   0.00000  Uiso   1.00
H129   H     0.30708   0.41895   0.96825   0.00000  Uiso   1.00
O130   O     0.97961   0.91568   0.08856   0.00000  Uiso   1.00
O131   O     0.23979   0.45225   0.25133   0.00000  Uiso   1.00
O132   O     0.02368   0.47584   0.93845   0.00000  Uiso   1.00
N133   N     0.86358   0.02645   0.09347   0.00000  Uiso   1.00
N134   N     0.04900   0.40881   0.20947   0.00000  Uiso   1.00
N135   N     0.89500   0.42564   0.98651   0.00000  Uiso   1.00
N136   N     0.15389   0.01503   0.08605   0.00000  Uiso   1.00
N137   N     0.33931   0.39739   0.20205   0.00000  Uiso   1.00
N138   N     0.18532   0.41422   0.97909   0.00000  Uiso   1.00
C139   C     0.58971   0.21206   0.59712   0.00000  Uiso   1.00
C140   C     0.53164   0.28692   0.59429   0.00000  Uiso   1.00
C141   C     0.64453   0.34350   0.59605   0.00000  Uiso   1.00
C142   C     0.56532   0.40771   0.59291   0.00000  Uiso   1.00
C143   C     0.50335   0.52284   0.58926   0.00000  Uiso   1.00
C144   C     0.48053   0.18154   0.62627   0.00000  Uiso   1.00
C145   C     0.55046   0.14952   0.65491   0.00000  Uiso   1.00
C146   C     0.42822   0.12502   0.67868   0.00000  Uiso   1.00
C147   C     0.28691   0.07651   0.72466   0.00000  Uiso   1.00
C148   C     0.52298   0.17692   0.56482   0.00000  Uiso   1.00
C149   C     0.62859   0.14098   0.54180   0.00000  Uiso   1.00
C150   C     0.54208   0.11258   0.51383   0.00000  Uiso   1.00
C151   C     0.46668   0.05688   0.46441   0.00000  Uiso   1.00
C152   C     0.24830   0.22549   0.58840   0.00000  Uiso   1.00
C153   C     0.34620   0.29421   0.58956   0.00000  Uiso   1.00
C154   C     0.26680   0.35835   0.58641   0.00000  Uiso   1.00
C155   C     0.37955   0.41502   0.58816   0.00000  Uiso   1.00
C156   C     0.29510   0.18884   0.62153   0.00000  Uiso   1.00
C157   C     0.17273   0.16438   0.64526   0.00000  Uiso   1.00
C158   C     0.24245   0.13233   0.67393   0.00000  Uiso   1.00
C159   C     0.33754   0.18421   0.56008   0.00000  Uiso   1.00
C160   C     0.25086   0.15585   0.53215   0.00000  Uiso   1.00
C161   C     0.35631   0.11988   0.50909   0.00000  Uiso   1.00
H162   H     0.73408   0.20638   0.60081   0.00000  Uiso   1.00
H163   H     0.78803   0.33783   0.59972   0.00000  Uiso   1.00
H164   H     0.69397   0.14388   0.65857   0.00000  Uiso   1.00
H165   H     0.77208   0.13535   0.54547   0.00000  Uiso   1.00
H166   H     0.76605   0.48679   0.59645   0.00000  Uiso   1.00
H167   H     0.56773   0.07781   0.72052   0.00000  Uiso   1.00
H168   H     0.73245   0.05982   0.48203   0.00000  Uiso   1.00
H169   H     0.10392   0.23116   0.58471   0.00000  Uiso   1.00
H170   H     0.12329   0.36398   0.58274   0.00000  Uiso   1.00
H171   H     0.02924   0.17003   0.64159   0.00000  Uiso   1.00
H172   H     0.10735   0.16150   0.52849   0.00000  Uiso   1.00
H173   H     0.22653   0.50801   0.58267   0.00000  Uiso   1.00
H174   H     0.02821   0.09903   0.70674   0.00000  Uiso   1.00
H175   H     0.19292   0.08105   0.46825   0.00000  Uiso   1.00
O176   O     0.52039   0.58432   0.58856   0.00000  Uiso   1.00
O177   O     0.26021   0.04775   0.75133   0.00000  Uiso   1.00
O178   O     0.47632   0.02416   0.43845   0.00000  Uiso   1.00
N179   N     0.63642   0.47355   0.59347   0.00000  Uiso   1.00
N180   N     0.45100   0.09119   0.70947   0.00000  Uiso   1.00
N181   N     0.60500   0.07436   0.48651   0.00000  Uiso   1.00
N182   N     0.34611   0.48497   0.58605   0.00000  Uiso   1.00
N183   N     0.16069   0.10261   0.70205   0.00000  Uiso   1.00
N184   N     0.31468   0.08578   0.47909   0.00000  Uiso   1.00
C185   C     0.91029   0.71206   0.59712   0.00000  Uiso   1.00
C186   C     0.96836   0.78692   0.59429   0.00000  Uiso   1.00
C187   C     0.85547   0.84350   0.59605   0.00000  Uiso   1.00
C188   C     0.93468   0.90771   0.59291   0.00000  Uiso   1.00
C189   C     0.99665   0.02284   0.58926   0.00000  Uiso   1.00
C190   C     0.01947   0.68154   0.62627   0.00000  Uiso   1.00
C191   C     0.94954   0.64952   0.65491   0.00000  Uiso   1.00
C192   C     0.07178   0.62502   0.67868   0.00000  Uiso   1.00
C193   C     0.21309   0.57651   0.72466   0.00000  Uiso   1.00
C194   C     0.97702   0.67692   0.56482   0.00000  Uiso   1.00
C195   C     0.87141   0.64098   0.54180   0.00000  Uiso   1.00
C196   C     0.95792   0.61258   0.51383   0.00000  Uiso   1.00
C197   C     0.03332   0.55688   0.46441   0.00000  Uiso   1.00
C198   C     0.25170   0.72549   0.58840   0.00000  Uiso   1.00
C199   C     0.15380   0.79421   0.58956   0.00000  Uiso   1.00
C200   C     0.23320   0.85835   0.58641   0.00000  Uiso   1.00
C201   C     0.12045   0.91502   0.58816   0.00000  Uiso   1.00
C202   C     0.20490   0.68884   0.62153   0.00000  Uiso   1.00
C203   C     0.32727   0.66438   0.64526   0.00000  Uiso   1.00
C204   C     0.25755   0.63233   0.67393   0.00000  Uiso   1.00
C205   C     0.16246   0.68421   0.56008   0.00000  Uiso   1.00
C206   C     0.24914   0.65585   0.53215   0.00000  Uiso   1.00
C207   C     0.14369   0.61988   0.50909   0.00000  Uiso   1.00
H208   H     0.76592   0.70638   0.60081   0.00000  Uiso   1.00
H209   H     0.71197   0.83783   0.59972   0.00000  Uiso   1.00
H210   H     0.80603   0.64388   0.65857   0.00000  Uiso   1.00
H211   H     0.72792   0.63535   0.54547   0.00000  Uiso   1.00
H212   H     0.73395   0.98679   0.59645   0.00000  Uiso   1.00
H213   H     0.93227   0.57781   0.72052   0.00000  Uiso   1.00
H214   H     0.76755   0.55982   0.48203   0.00000  Uiso   1.00
H215   H     0.39608   0.73116   0.58471   0.00000  Uiso   1.00
H216   H     0.37671   0.86398   0.58274   0.00000  Uiso   1.00
H217   H     0.47076   0.67003   0.64159   0.00000  Uiso   1.00
H218   H     0.39265   0.66150   0.52849   0.00000  Uiso   1.00
H219   H     0.27347   0.00801   0.58267   0.00000  Uiso   1.00
H220   H     0.47179   0.59903   0.70674   0.00000  Uiso   1.00
H221   H     0.30708   0.58105   0.46825   0.00000  Uiso   1.00
O222   O     0.97961   0.08432   0.58856   0.00000  Uiso   1.00
O223   O     0.23979   0.54775   0.75133   0.00000  Uiso   1.00
O224   O     0.02368   0.52416   0.43845   0.00000  Uiso   1.00
N225   N     0.86358   0.97355   0.59347   0.00000  Uiso   1.00
N226   N     0.04900   0.59119   0.70947   0.00000  Uiso   1.00
N227   N     0.89500   0.57436   0.48651   0.00000  Uiso   1.00
N228   N     0.15389   0.98497   0.58605   0.00000  Uiso   1.00
N229   N     0.33931   0.60261   0.70205   0.00000  Uiso   1.00
N230   N     0.18532   0.58578   0.47909   0.00000  Uiso   1.00
C231   C     0.58971   0.78794   0.09712   0.00000  Uiso   1.00
C232   C     0.53164   0.71308   0.09429   0.00000  Uiso   1.00
C233   C     0.64453   0.65650   0.09605   0.00000  Uiso   1.00
C234   C     0.56532   0.59229   0.09291   0.00000  Uiso   1.00
C235   C     0.50335   0.47716   0.08926   0.00000  Uiso   1.00
C236   C     0.48053   0.81846   0.12627   0.00000  Uiso   1.00
C237   C     0.55046   0.85048   0.15491   0.00000  Uiso   1.00
C238   C     0.42822   0.87498   0.17868   0.00000  Uiso   1.00
C239   C     0.28691   0.92349   0.22466   0.00000  Uiso   1.00
C240   C     0.52298   0.82308   0.06482   0.00000  Uiso   1.00
C241   C     0.62859   0.85902   0.04180   0.00000  Uiso   1.00
C242   C     0.54208   0.88742   0.01383   0.00000  Uiso   1.00
C243   C     0.46668   0.94312   0.96441   0.00000  Uiso   1.00
C244   C     0.24830   0.77451   0.08840   0.00000  Uiso   1.00
C245   C     0.34620   0.70579   0.08956   0.00000  Uiso   1.00
C246   C     0.26680   0.64165   0.08641   0.00000  Uiso   1.00
C247   C     0.37955   0.58498   0.08816   0.00000  Uiso   1.00
C248   C     0.29510   0.81116   0.12153   0.00000  Uiso   1.00
C249   C     0.17273   0.83562   0.14526   0.00000  Uiso   1.00
C250   C     0.24245   0.86767   0.17393   0.00000  Uiso   1.00
C251   C     0.33754   0.81579   0.06008   0.00000  Uiso   1.00
C252   C     0.25086   0.84415   0.03215   0.00000  Uiso   1.00
C253   C     0.35631   0.88012   0.00909   0.00000  Uiso   1.00
H254   H     0.73408   0.79362   0.10081   0.00000  Uiso   1.00
H255   H     0.78803   0.66217   0.09972   0.00000  Uiso   1.00
H256   H     0.69397   0.85612   0.15857   0.00000  Uiso   1.00
H257   H     0.77208   0.86465   0.04547   0.00000  Uiso   1.00
H258   H     0.76605   0.51321   0.09645   0.00000  Uiso   1.00
H259   H     0.56773   0.92219   0.22052   0.00000  Uiso   1.00
H260   H     0.73245   0.94018   0.98203   0.00000  Uiso   1.00
H261   H     0.10392   0.76884   0.08471   0.00000  Uiso   1.00
H262   H     0.12329   0.63602   0.08274   0.00000  Uiso   1.00
H263   H     0.02924   0.82997   0.14159   0.00000  Uiso   1.00
H264   H     0.10735   0.83850   0.02849   0.00000  Uiso   1.00
H265   H     0.22653   0.49199   0.08267   0.00000  Uiso   1.00
H266   H     0.02821   0.90097   0.20674   0.00000  Uiso   1.00
H267   H     0.19292   0.91895   0.96825   0.00000  Uiso   1.00
O268   O     0.52039   0.41568   0.08856   0.00000  Uiso   1.00
O269   O     0.26021   0.95225   0.25133   0.00000  Uiso   1.00
O270   O     0.47632   0.97584   0.93845   0.00000  Uiso   1.00
N271   N     0.63642   0.52645   0.09347   0.00000  Uiso   1.00
N272   N     0.45100   0.90881   0.20947   0.00000  Uiso   1.00
N273   N     0.60500   0.92564   0.98651   0.00000  Uiso   1.00
N274   N     0.34611   0.51503   0.08605   0.00000  Uiso   1.00
N275   N     0.16069   0.89739   0.20205   0.00000  Uiso   1.00
N276   N     0.31468   0.91422   0.97909   0.00000  Uiso   1.00
C277   C     0.08971   0.71206   0.90288   0.00000  Uiso   1.00
C278   C     0.03164   0.78692   0.90571   0.00000  Uiso   1.00
C279   C     0.14453   0.84350   0.90395   0.00000  Uiso   1.00
C280   C     0.06532   0.90771   0.90709   0.00000  Uiso   1.00
C281   C     0.00335   0.02284   0.91074   0.00000  Uiso   1.00
C282   C     0.98053   0.68154   0.87373   0.00000  Uiso   1.00
C283   C     0.05046   0.64952   0.84509   0.00000  Uiso   1.00
C284   C     0.92822   0.62502   0.82132   0.00000  Uiso   1.00
C285   C     0.78691   0.57651   0.77534   0.00000  Uiso   1.00
C286   C     0.02298   0.67692   0.93518   0.00000  Uiso   1.00
C287   C     0.12859   0.64098   0.95820   0.00000  Uiso   1.00
C288   C     0.04208   0.61258   0.98617   0.00000  Uiso   1.00
C289   C     0.96668   0.55688   0.03559   0.00000  Uiso   1.00
C290   C     0.74830   0.72549   0.91160   0.00000  Uiso   1.00
C291   C     0.84620   0.79421   0.91044   0.00000  Uiso   1.00
C292   C     0.76680   0.85835   0.91359   0.00000  Uiso   1.00
C293   C     0.87955   0.91502   0.91184   0.00000  Uiso   1.00
C294   C     0.79510   0.68884   0.87847   0.00000  Uiso   1.00
C295   C     0.67273   0.66438   0.85474   0.00000  Uiso   1.00
C296   C     0.74245   0.63233   0.82607   0.00000  Uiso   1.00
C297   C     0.83754   0.68421   0.93992   0.00000  Uiso   1.00
C298   C     0.75086   0.65585   0.96785   0.00000  Uiso   1.00
C299   C     0.85631   0.61988   0.99091   0.00000  Uiso   1.00
H300   H     0.23408   0.70638   0.89919   0.00000  Uiso   1.00
H301   H     0.28803   0.83783   0.90028   0.00000  Uiso   1.00
H302   H     0.19397   0.64388   0.84143   0.00000  Uiso   1.00
H303   H     0.27208   0.63535   0.95453   0.00000  Uiso   1.00
H304   H     0.26605   0.98679   0.90355   0.00000  Uiso   1.00
H305   H     0.06773   0.57781   0.77948   0.00000  Uiso   1.00
H306   H     0.23245   0.55982   0.01797   0.00000  Uiso   1.00
H307   H     0.60392   0.73116   0.91529   0.00000  Uiso   1.00
H308   H     0.62329   0.86398   0.91726   0.00000  Uiso   1.00
H309   H     0.52924   0.67003   0.85841   0.00000  Uiso   1.00
H310   H     0.60735   0.66150   0.97151   0.00000  Uiso   1.00
H311   H     0.72653   0.00801   0.91733   0.00000  Uiso   1.00
H312   H     0.52821   0.59903   0.79326   0.00000  Uiso   1.00
H313   H     0.69292   0.58105   0.03175   0.00000  Uiso   1.00
O314   O     0.02039   0.08432   0.91144   0.00000  Uiso   1.00
O315   O     0.76021   0.54775   0.74867   0.00000  Uiso   1.00
O316   O     0.97632   0.52416   0.06155   0.00000  Uiso   1.00
N317   N     0.13642   0.97355   0.90653   0.00000  Uiso   1.00
N318   N     0.95100   0.59119   0.79053   0.00000  Uiso   1.00
N319   N     0.10500   0.57436   0.01349   0.00000  Uiso   1.00
N320   N     0.84611   0.98497   0.91395   0.00000  Uiso   1.00
N321   N     0.66069   0.60261   0.79795   0.00000  Uiso   1.00
N322   N     0.81468   0.58578   0.02091   0.00000  Uiso   1.00
C323   C     0.41029   0.78794   0.40288   0.00000  Uiso   1.00
C324   C     0.46836   0.71308   0.40571   0.00000  Uiso   1.00
C325   C     0.35547   0.65650   0.40395   0.00000  Uiso   1.00
C326   C     0.43468   0.59229   0.40709   0.00000  Uiso   1.00
C327   C     0.49665   0.47716   0.41074   0.00000  Uiso   1.00
C328   C     0.51947   0.81846   0.37373   0.00000  Uiso   1.00
C329   C     0.44954   0.85048   0.34509   0.00000  Uiso   1.00
C330   C     0.57178   0.87498   0.32132   0.00000  Uiso   1.00
C331   C     0.71309   0.92349   0.27534   0.00000  Uiso   1.00
C332   C     0.47702   0.82308   0.43518   0.00000  Uiso   1.00
C333   C     0.37141   0.85902   0.45820   0.00000  Uiso   1.00
C334   C     0.45792   0.88742   0.48617   0.00000  Uiso   1.00
C335   C     0.53332   0.94312   0.53559   0.00000  Uiso   1.00
C336   C     0.75170   0.77451   0.41160   0.00000  Uiso   1.00
C337   C     0.65380   0.70579   0.41044   0.00000  Uiso   1.00
C338   C     0.73320   0.64165   0.41359   0.00000  Uiso   1.00
C339   C     0.62045   0.58498   0.41184   0.00000  Uiso   1.00
C340   C     0.70490   0.81116   0.37847   0.00000  Uiso   1.00
C341   C     0.82727   0.83562   0.35474   0.00000  Uiso   1.00
C342   C     0.75755   0.86767   0.32607   0.00000  Uiso   1.00
C343   C     0.66246   0.81579   0.43992   0.00000  Uiso   1.00
C344   C     0.74914   0.84415   0.46785   0.00000  Uiso   1.00
C345   C     0.64369   0.88012   0.49091   0.00000  Uiso   1.00
H346   H     0.26592   0.79362   0.39919   0.00000  Uiso   1.00
H347   H     0.21197   0.66217   0.40028   0.00000  Uiso   1.00
H348   H     0.30603   0.85612   0.34143   0.00000  Uiso   1.00
H349   H     0.22792   0.86465   0.45453   0.00000  Uiso   1.00
H350   H     0.23395   0.51321   0.40355   0.00000  Uiso   1.00
H351   H     0.43227   0.92219   0.27948   0.00000  Uiso   1.00
H352   H     0.26755   0.94018   0.51797   0.00000  Uiso   1.00
H353   H     0.89608   0.76884   0.41529   0.00000  Uiso   1.00
H354   H     0.87671   0.63602   0.41726   0.00000  Uiso   1.00
H355   H     0.97076   0.82997   0.35841   0.00000  Uiso   1.00
H356   H     0.89265   0.83850   0.47151   0.00000  Uiso   1.00
H357   H     0.77347   0.49199   0.41733   0.00000  Uiso   1.00
H358   H     0.97179   0.90097   0.29326   0.00000  Uiso   1.00
H359   H     0.80708   0.91895   0.53175   0.00000  Uiso   1.00
O360   O     0.47961   0.41568   0.41144   0.00000  Uiso   1.00
O361   O     0.73979   0.95225   0.24867   0.00000  Uiso   1.00
O362   O     0.52368   0.97584   0.56155   0.00000  Uiso   1.00
N363   N     0.36358   0.52645   0.40653   0.00000  Uiso   1.00
N364   N     0.54900   0.90881   0.29053   0.00000  Uiso   1.00
N365   N     0.39500   0.92564   0.51349   0.00000  Uiso   1.00
N366   N     0.65389   0.51503   0.41395   0.00000  Uiso   1.00
N367   N     0.83931   0.89739   0.29795   0.00000  Uiso   1.00
N368   N     0.68532   0.91422   0.52091   0.00000  Uiso   1.00
