data_job_00992
_audit_creation_date              2018-12-19
_audit_creation_method            'Materials Studio'
_symmetry_space_group_name_H-M    'P1'
_symmetry_Int_Tables_number       1
_symmetry_cell_setting            triclinic
loop_
_symmetry_equiv_pos_as_xyz
  x,y,z
_cell_length_a                    15.9284
_cell_length_b                    26.6839
_cell_length_c                    13.1051
_cell_angle_alpha                 90.0000
_cell_angle_beta                  90.0000
_cell_angle_gamma                 90.0000
loop_
_atom_site_label
_atom_site_type_symbol
_atom_site_fract_x
_atom_site_fract_y
_atom_site_fract_z
_atom_site_U_iso_or_equiv
_atom_site_adp_type
_atom_site_occupancy
C1     C     0.48176   0.64247   0.23315   0.00000  Uiso   1.00
C2     C     0.47365   0.62963   0.12019   0.00000  Uiso   1.00
C3     C     0.51537   0.65341   0.04084   0.00000  Uiso   1.00
C4     C     0.49943   0.63612   0.94282   0.00000  Uiso   1.00
C5     C     0.49527   0.62223   0.77015   0.00000  Uiso   1.00
C6     C     0.39301   0.65360   0.27043   0.00000  Uiso   1.00
C7     C     0.36694   0.69754   0.31741   0.00000  Uiso   1.00
C8     C     0.28312   0.70043   0.34586   0.00000  Uiso   1.00
C9     C     0.15378   0.72374   0.40651   0.00000  Uiso   1.00
C10    C     0.50837   0.59416   0.28622   0.00000  Uiso   1.00
C11    C     0.57929   0.58812   0.34650   0.00000  Uiso   1.00
C12    C     0.59258   0.54096   0.38828   0.00000  Uiso   1.00
C13    C     0.64236   0.47198   0.47344   0.00000  Uiso   1.00
C14    C     0.37925   0.56947   0.20017   0.00000  Uiso   1.00
C15    C     0.41797   0.58997   0.10228   0.00000  Uiso   1.00
C16    C     0.40196   0.57264   0.00435   0.00000  Uiso   1.00
C17    C     0.44365   0.59640   0.92487   0.00000  Uiso   1.00
C18    C     0.33733   0.61395   0.25252   0.00000  Uiso   1.00
C19    C     0.25353   0.61677   0.28092   0.00000  Uiso   1.00
C20    C     0.22734   0.66070   0.32792   0.00000  Uiso   1.00
C21    C     0.45270   0.55451   0.26831   0.00000  Uiso   1.00
C22    C     0.46588   0.50735   0.31001   0.00000  Uiso   1.00
C23    C     0.53680   0.50124   0.37033   0.00000  Uiso   1.00
H24    H     0.52511   0.67334   0.24710   0.00000  Uiso   1.00
H25    H     0.55845   0.68410   0.05474   0.00000  Uiso   1.00
H26    H     0.41005   0.72822   0.33127   0.00000  Uiso   1.00
H27    H     0.62236   0.61881   0.36035   0.00000  Uiso   1.00
H28    H     0.57084   0.67855   0.83356   0.00000  Uiso   1.00
H29    H     0.25793   0.77157   0.41668   0.00000  Uiso   1.00
H30    H     0.70564   0.54087   0.47801   0.00000  Uiso   1.00
H31    H     0.33590   0.53860   0.18622   0.00000  Uiso   1.00
H32    H     0.35886   0.54196   0.99051   0.00000  Uiso   1.00
H33    H     0.21046   0.58608   0.26705   0.00000  Uiso   1.00
H34    H     0.42277   0.47667   0.29613   0.00000  Uiso   1.00
H35    H     0.40885   0.56318   0.78144   0.00000  Uiso   1.00
H36    H     0.09593   0.65620   0.36456   0.00000  Uiso   1.00
H37    H     0.54364   0.42551   0.42588   0.00000  Uiso   1.00
O38    O     0.50834   0.62552   0.67985   0.00000  Uiso   1.00
O39    O     0.09782   0.74755   0.44489   0.00000  Uiso   1.00
O40    O     0.68521   0.44489   0.52535   0.00000  Uiso   1.00
N41    N     0.52958   0.65093   0.84816   0.00000  Uiso   1.00
N42    N     0.23702   0.73790   0.39332   0.00000  Uiso   1.00
N43    N     0.65558   0.52222   0.45068   0.00000  Uiso   1.00
N44    N     0.44241   0.58885   0.82011   0.00000  Uiso   1.00
N45    N     0.14985   0.67582   0.36527   0.00000  Uiso   1.00
N46    N     0.56841   0.46015   0.42263   0.00000  Uiso   1.00
C47    C     0.01824   0.35753   0.23315   0.00000  Uiso   1.00
C48    C     0.02635   0.37037   0.12019   0.00000  Uiso   1.00
C49    C     0.98463   0.34659   0.04084   0.00000  Uiso   1.00
C50    C     0.00057   0.36388   0.94282   0.00000  Uiso   1.00
C51    C     0.00473   0.37777   0.77015   0.00000  Uiso   1.00
C52    C     0.10699   0.34640   0.27043   0.00000  Uiso   1.00
C53    C     0.13306   0.30246   0.31741   0.00000  Uiso   1.00
C54    C     0.21688   0.29957   0.34586   0.00000  Uiso   1.00
C55    C     0.34622   0.27626   0.40651   0.00000  Uiso   1.00
C56    C     0.99163   0.40584   0.28622   0.00000  Uiso   1.00
C57    C     0.92071   0.41188   0.34650   0.00000  Uiso   1.00
C58    C     0.90742   0.45904   0.38828   0.00000  Uiso   1.00
C59    C     0.85764   0.52802   0.47344   0.00000  Uiso   1.00
C60    C     0.12075   0.43053   0.20017   0.00000  Uiso   1.00
C61    C     0.08203   0.41003   0.10228   0.00000  Uiso   1.00
C62    C     0.09804   0.42736   0.00435   0.00000  Uiso   1.00
C63    C     0.05635   0.40360   0.92487   0.00000  Uiso   1.00
C64    C     0.16267   0.38605   0.25252   0.00000  Uiso   1.00
C65    C     0.24647   0.38323   0.28092   0.00000  Uiso   1.00
C66    C     0.27266   0.33930   0.32792   0.00000  Uiso   1.00
C67    C     0.04730   0.44549   0.26831   0.00000  Uiso   1.00
C68    C     0.03412   0.49265   0.31001   0.00000  Uiso   1.00
C69    C     0.96320   0.49876   0.37033   0.00000  Uiso   1.00
H70    H     0.97489   0.32666   0.24710   0.00000  Uiso   1.00
H71    H     0.94155   0.31590   0.05474   0.00000  Uiso   1.00
H72    H     0.08995   0.27178   0.33127   0.00000  Uiso   1.00
H73    H     0.87764   0.38119   0.36035   0.00000  Uiso   1.00
H74    H     0.92916   0.32145   0.83356   0.00000  Uiso   1.00
H75    H     0.24207   0.22843   0.41668   0.00000  Uiso   1.00
H76    H     0.79436   0.45913   0.47801   0.00000  Uiso   1.00
H77    H     0.16410   0.46140   0.18622   0.00000  Uiso   1.00
H78    H     0.14114   0.45804   0.99051   0.00000  Uiso   1.00
H79    H     0.28954   0.41392   0.26705   0.00000  Uiso   1.00
H80    H     0.07723   0.52333   0.29613   0.00000  Uiso   1.00
H81    H     0.09115   0.43682   0.78144   0.00000  Uiso   1.00
H82    H     0.40407   0.34380   0.36456   0.00000  Uiso   1.00
H83    H     0.95636   0.57449   0.42588   0.00000  Uiso   1.00
O84    O     0.99166   0.37448   0.67985   0.00000  Uiso   1.00
O85    O     0.40218   0.25245   0.44489   0.00000  Uiso   1.00
O86    O     0.81479   0.55511   0.52535   0.00000  Uiso   1.00
N87    N     0.97042   0.34907   0.84816   0.00000  Uiso   1.00
N88    N     0.26298   0.26210   0.39332   0.00000  Uiso   1.00
N89    N     0.84442   0.47778   0.45068   0.00000  Uiso   1.00
N90    N     0.05759   0.41115   0.82011   0.00000  Uiso   1.00
N91    N     0.35015   0.32418   0.36527   0.00000  Uiso   1.00
N92    N     0.93159   0.53985   0.42263   0.00000  Uiso   1.00
C93    C     0.01824   0.14247   0.26685   0.00000  Uiso   1.00
C94    C     0.02635   0.12963   0.37981   0.00000  Uiso   1.00
C95    C     0.98463   0.15341   0.45916   0.00000  Uiso   1.00
C96    C     0.00057   0.13612   0.55718   0.00000  Uiso   1.00
C97    C     0.00473   0.12223   0.72985   0.00000  Uiso   1.00
C98    C     0.10699   0.15360   0.22957   0.00000  Uiso   1.00
C99    C     0.13306   0.19754   0.18259   0.00000  Uiso   1.00
C100   C     0.21688   0.20043   0.15414   0.00000  Uiso   1.00
C101   C     0.34622   0.22374   0.09349   0.00000  Uiso   1.00
C102   C     0.99163   0.09416   0.21378   0.00000  Uiso   1.00
C103   C     0.92071   0.08812   0.15350   0.00000  Uiso   1.00
C104   C     0.90742   0.04096   0.11172   0.00000  Uiso   1.00
C105   C     0.85764   0.97198   0.02656   0.00000  Uiso   1.00
C106   C     0.12075   0.06947   0.29983   0.00000  Uiso   1.00
C107   C     0.08203   0.08997   0.39772   0.00000  Uiso   1.00
C108   C     0.09804   0.07264   0.49565   0.00000  Uiso   1.00
C109   C     0.05635   0.09640   0.57513   0.00000  Uiso   1.00
C110   C     0.16267   0.11395   0.24748   0.00000  Uiso   1.00
C111   C     0.24647   0.11677   0.21908   0.00000  Uiso   1.00
C112   C     0.27266   0.16070   0.17208   0.00000  Uiso   1.00
C113   C     0.04730   0.05451   0.23169   0.00000  Uiso   1.00
C114   C     0.03412   0.00735   0.18999   0.00000  Uiso   1.00
C115   C     0.96320   0.00124   0.12967   0.00000  Uiso   1.00
H116   H     0.97489   0.17334   0.25290   0.00000  Uiso   1.00
H117   H     0.94155   0.18410   0.44526   0.00000  Uiso   1.00
H118   H     0.08995   0.22822   0.16873   0.00000  Uiso   1.00
H119   H     0.87764   0.11881   0.13965   0.00000  Uiso   1.00
H120   H     0.92916   0.17855   0.66644   0.00000  Uiso   1.00
H121   H     0.24207   0.27157   0.08332   0.00000  Uiso   1.00
H122   H     0.79436   0.04087   0.02199   0.00000  Uiso   1.00
H123   H     0.16410   0.03860   0.31378   0.00000  Uiso   1.00
H124   H     0.14114   0.04196   0.50949   0.00000  Uiso   1.00
H125   H     0.28954   0.08608   0.23295   0.00000  Uiso   1.00
H126   H     0.07723   0.97667   0.20387   0.00000  Uiso   1.00
H127   H     0.09115   0.06318   0.71856   0.00000  Uiso   1.00
H128   H     0.40407   0.15620   0.13544   0.00000  Uiso   1.00
H129   H     0.95636   0.92551   0.07412   0.00000  Uiso   1.00
O130   O     0.99166   0.12552   0.82015   0.00000  Uiso   1.00
O131   O     0.40218   0.24755   0.05511   0.00000  Uiso   1.00
O132   O     0.81479   0.94489   0.97465   0.00000  Uiso   1.00
N133   N     0.97042   0.15093   0.65184   0.00000  Uiso   1.00
N134   N     0.26298   0.23790   0.10668   0.00000  Uiso   1.00
N135   N     0.84442   0.02222   0.04932   0.00000  Uiso   1.00
N136   N     0.05759   0.08885   0.67989   0.00000  Uiso   1.00
N137   N     0.35015   0.17582   0.13473   0.00000  Uiso   1.00
N138   N     0.93159   0.96015   0.07737   0.00000  Uiso   1.00
C139   C     0.48176   0.85753   0.26685   0.00000  Uiso   1.00
C140   C     0.47365   0.87037   0.37981   0.00000  Uiso   1.00
C141   C     0.51537   0.84659   0.45916   0.00000  Uiso   1.00
C142   C     0.49943   0.86388   0.55718   0.00000  Uiso   1.00
C143   C     0.49527   0.87777   0.72985   0.00000  Uiso   1.00
C144   C     0.39301   0.84640   0.22957   0.00000  Uiso   1.00
C145   C     0.36694   0.80246   0.18259   0.00000  Uiso   1.00
C146   C     0.28312   0.79957   0.15414   0.00000  Uiso   1.00
C147   C     0.15378   0.77626   0.09349   0.00000  Uiso   1.00
C148   C     0.50837   0.90584   0.21378   0.00000  Uiso   1.00
C149   C     0.57929   0.91188   0.15350   0.00000  Uiso   1.00
C150   C     0.59258   0.95904   0.11172   0.00000  Uiso   1.00
C151   C     0.64236   0.02802   0.02656   0.00000  Uiso   1.00
C152   C     0.37925   0.93053   0.29983   0.00000  Uiso   1.00
C153   C     0.41797   0.91003   0.39772   0.00000  Uiso   1.00
C154   C     0.40196   0.92736   0.49565   0.00000  Uiso   1.00
C155   C     0.44365   0.90360   0.57513   0.00000  Uiso   1.00
C156   C     0.33733   0.88605   0.24748   0.00000  Uiso   1.00
C157   C     0.25353   0.88323   0.21908   0.00000  Uiso   1.00
C158   C     0.22734   0.83930   0.17208   0.00000  Uiso   1.00
C159   C     0.45270   0.94549   0.23169   0.00000  Uiso   1.00
C160   C     0.46588   0.99265   0.18999   0.00000  Uiso   1.00
C161   C     0.53680   0.99876   0.12967   0.00000  Uiso   1.00
H162   H     0.52511   0.82666   0.25290   0.00000  Uiso   1.00
H163   H     0.55845   0.81590   0.44526   0.00000  Uiso   1.00
H164   H     0.41005   0.77178   0.16873   0.00000  Uiso   1.00
H165   H     0.62236   0.88119   0.13965   0.00000  Uiso   1.00
H166   H     0.57084   0.82145   0.66644   0.00000  Uiso   1.00
H167   H     0.25793   0.72843   0.08332   0.00000  Uiso   1.00
H168   H     0.70564   0.95913   0.02199   0.00000  Uiso   1.00
H169   H     0.33590   0.96140   0.31378   0.00000  Uiso   1.00
H170   H     0.35886   0.95804   0.50949   0.00000  Uiso   1.00
H171   H     0.21046   0.91392   0.23295   0.00000  Uiso   1.00
H172   H     0.42277   0.02333   0.20387   0.00000  Uiso   1.00
H173   H     0.40885   0.93682   0.71856   0.00000  Uiso   1.00
H174   H     0.09593   0.84380   0.13544   0.00000  Uiso   1.00
H175   H     0.54364   0.07449   0.07412   0.00000  Uiso   1.00
O176   O     0.50834   0.87448   0.82015   0.00000  Uiso   1.00
O177   O     0.09782   0.75245   0.05511   0.00000  Uiso   1.00
O178   O     0.68521   0.05511   0.97465   0.00000  Uiso   1.00
N179   N     0.52958   0.84907   0.65184   0.00000  Uiso   1.00
N180   N     0.23702   0.76210   0.10668   0.00000  Uiso   1.00
N181   N     0.65558   0.97778   0.04932   0.00000  Uiso   1.00
N182   N     0.44241   0.91115   0.67989   0.00000  Uiso   1.00
N183   N     0.14985   0.82418   0.13473   0.00000  Uiso   1.00
N184   N     0.56841   0.03985   0.07737   0.00000  Uiso   1.00
C185   C     0.51824   0.35753   0.76685   0.00000  Uiso   1.00
C186   C     0.52635   0.37037   0.87981   0.00000  Uiso   1.00
C187   C     0.48463   0.34659   0.95916   0.00000  Uiso   1.00
C188   C     0.50057   0.36388   0.05718   0.00000  Uiso   1.00
C189   C     0.50473   0.37777   0.22985   0.00000  Uiso   1.00
C190   C     0.60699   0.34640   0.72957   0.00000  Uiso   1.00
C191   C     0.63306   0.30246   0.68259   0.00000  Uiso   1.00
C192   C     0.71688   0.29957   0.65414   0.00000  Uiso   1.00
C193   C     0.84622   0.27626   0.59349   0.00000  Uiso   1.00
C194   C     0.49163   0.40584   0.71378   0.00000  Uiso   1.00
C195   C     0.42071   0.41188   0.65350   0.00000  Uiso   1.00
C196   C     0.40742   0.45904   0.61172   0.00000  Uiso   1.00
C197   C     0.35764   0.52802   0.52656   0.00000  Uiso   1.00
C198   C     0.62075   0.43053   0.79983   0.00000  Uiso   1.00
C199   C     0.58203   0.41003   0.89772   0.00000  Uiso   1.00
C200   C     0.59804   0.42736   0.99565   0.00000  Uiso   1.00
C201   C     0.55635   0.40360   0.07513   0.00000  Uiso   1.00
C202   C     0.66267   0.38605   0.74748   0.00000  Uiso   1.00
C203   C     0.74647   0.38323   0.71908   0.00000  Uiso   1.00
C204   C     0.77266   0.33930   0.67208   0.00000  Uiso   1.00
C205   C     0.54730   0.44549   0.73169   0.00000  Uiso   1.00
C206   C     0.53412   0.49265   0.68999   0.00000  Uiso   1.00
C207   C     0.46320   0.49876   0.62967   0.00000  Uiso   1.00
H208   H     0.47489   0.32666   0.75290   0.00000  Uiso   1.00
H209   H     0.44155   0.31590   0.94526   0.00000  Uiso   1.00
H210   H     0.58995   0.27178   0.66873   0.00000  Uiso   1.00
H211   H     0.37764   0.38119   0.63965   0.00000  Uiso   1.00
H212   H     0.42916   0.32145   0.16644   0.00000  Uiso   1.00
H213   H     0.74207   0.22843   0.58332   0.00000  Uiso   1.00
H214   H     0.29436   0.45913   0.52199   0.00000  Uiso   1.00
H215   H     0.66410   0.46140   0.81378   0.00000  Uiso   1.00
H216   H     0.64114   0.45804   0.00949   0.00000  Uiso   1.00
H217   H     0.78954   0.41392   0.73295   0.00000  Uiso   1.00
H218   H     0.57723   0.52333   0.70387   0.00000  Uiso   1.00
H219   H     0.59115   0.43682   0.21856   0.00000  Uiso   1.00
H220   H     0.90407   0.34380   0.63544   0.00000  Uiso   1.00
H221   H     0.45636   0.57449   0.57412   0.00000  Uiso   1.00
O222   O     0.49166   0.37448   0.32015   0.00000  Uiso   1.00
O223   O     0.90218   0.25245   0.55511   0.00000  Uiso   1.00
O224   O     0.31479   0.55511   0.47465   0.00000  Uiso   1.00
N225   N     0.47042   0.34907   0.15184   0.00000  Uiso   1.00
N226   N     0.76298   0.26210   0.60668   0.00000  Uiso   1.00
N227   N     0.34442   0.47778   0.54932   0.00000  Uiso   1.00
N228   N     0.55759   0.41115   0.17989   0.00000  Uiso   1.00
N229   N     0.85015   0.32418   0.63473   0.00000  Uiso   1.00
N230   N     0.43159   0.53985   0.57737   0.00000  Uiso   1.00
C231   C     0.98176   0.64247   0.76685   0.00000  Uiso   1.00
C232   C     0.97365   0.62963   0.87981   0.00000  Uiso   1.00
C233   C     0.01537   0.65341   0.95916   0.00000  Uiso   1.00
C234   C     0.99943   0.63612   0.05718   0.00000  Uiso   1.00
C235   C     0.99527   0.62223   0.22985   0.00000  Uiso   1.00
C236   C     0.89301   0.65360   0.72957   0.00000  Uiso   1.00
C237   C     0.86694   0.69754   0.68259   0.00000  Uiso   1.00
C238   C     0.78312   0.70043   0.65414   0.00000  Uiso   1.00
C239   C     0.65378   0.72374   0.59349   0.00000  Uiso   1.00
C240   C     0.00837   0.59416   0.71378   0.00000  Uiso   1.00
C241   C     0.07929   0.58812   0.65350   0.00000  Uiso   1.00
C242   C     0.09258   0.54096   0.61172   0.00000  Uiso   1.00
C243   C     0.14236   0.47198   0.52656   0.00000  Uiso   1.00
C244   C     0.87925   0.56947   0.79983   0.00000  Uiso   1.00
C245   C     0.91797   0.58997   0.89772   0.00000  Uiso   1.00
C246   C     0.90196   0.57264   0.99565   0.00000  Uiso   1.00
C247   C     0.94365   0.59640   0.07513   0.00000  Uiso   1.00
C248   C     0.83733   0.61395   0.74748   0.00000  Uiso   1.00
C249   C     0.75353   0.61677   0.71908   0.00000  Uiso   1.00
C250   C     0.72734   0.66070   0.67208   0.00000  Uiso   1.00
C251   C     0.95270   0.55451   0.73169   0.00000  Uiso   1.00
C252   C     0.96588   0.50735   0.68999   0.00000  Uiso   1.00
C253   C     0.03680   0.50124   0.62967   0.00000  Uiso   1.00
H254   H     0.02511   0.67334   0.75290   0.00000  Uiso   1.00
H255   H     0.05845   0.68410   0.94526   0.00000  Uiso   1.00
H256   H     0.91005   0.72822   0.66873   0.00000  Uiso   1.00
H257   H     0.12236   0.61881   0.63965   0.00000  Uiso   1.00
H258   H     0.07084   0.67855   0.16644   0.00000  Uiso   1.00
H259   H     0.75793   0.77157   0.58332   0.00000  Uiso   1.00
H260   H     0.20564   0.54087   0.52199   0.00000  Uiso   1.00
H261   H     0.83590   0.53860   0.81378   0.00000  Uiso   1.00
H262   H     0.85886   0.54196   0.00949   0.00000  Uiso   1.00
H263   H     0.71046   0.58608   0.73295   0.00000  Uiso   1.00
H264   H     0.92277   0.47667   0.70387   0.00000  Uiso   1.00
H265   H     0.90885   0.56318   0.21856   0.00000  Uiso   1.00
H266   H     0.59593   0.65620   0.63544   0.00000  Uiso   1.00
H267   H     0.04364   0.42551   0.57412   0.00000  Uiso   1.00
O268   O     0.00834   0.62552   0.32015   0.00000  Uiso   1.00
O269   O     0.59782   0.74755   0.55511   0.00000  Uiso   1.00
O270   O     0.18521   0.44489   0.47465   0.00000  Uiso   1.00
N271   N     0.02958   0.65093   0.15184   0.00000  Uiso   1.00
N272   N     0.73702   0.73790   0.60668   0.00000  Uiso   1.00
N273   N     0.15558   0.52222   0.54932   0.00000  Uiso   1.00
N274   N     0.94241   0.58885   0.17989   0.00000  Uiso   1.00
N275   N     0.64985   0.67582   0.63473   0.00000  Uiso   1.00
N276   N     0.06841   0.46015   0.57737   0.00000  Uiso   1.00
C277   C     0.98176   0.85753   0.73315   0.00000  Uiso   1.00
C278   C     0.97365   0.87037   0.62019   0.00000  Uiso   1.00
C279   C     0.01537   0.84659   0.54084   0.00000  Uiso   1.00
C280   C     0.99943   0.86388   0.44282   0.00000  Uiso   1.00
C281   C     0.99527   0.87777   0.27015   0.00000  Uiso   1.00
C282   C     0.89301   0.84640   0.77043   0.00000  Uiso   1.00
C283   C     0.86694   0.80246   0.81741   0.00000  Uiso   1.00
C284   C     0.78312   0.79957   0.84586   0.00000  Uiso   1.00
C285   C     0.65378   0.77626   0.90651   0.00000  Uiso   1.00
C286   C     0.00837   0.90584   0.78622   0.00000  Uiso   1.00
C287   C     0.07929   0.91188   0.84650   0.00000  Uiso   1.00
C288   C     0.09258   0.95904   0.88828   0.00000  Uiso   1.00
C289   C     0.14236   0.02802   0.97344   0.00000  Uiso   1.00
C290   C     0.87925   0.93053   0.70017   0.00000  Uiso   1.00
C291   C     0.91797   0.91003   0.60228   0.00000  Uiso   1.00
C292   C     0.90196   0.92736   0.50435   0.00000  Uiso   1.00
C293   C     0.94365   0.90360   0.42487   0.00000  Uiso   1.00
C294   C     0.83733   0.88605   0.75252   0.00000  Uiso   1.00
C295   C     0.75353   0.88323   0.78092   0.00000  Uiso   1.00
C296   C     0.72734   0.83930   0.82792   0.00000  Uiso   1.00
C297   C     0.95270   0.94549   0.76831   0.00000  Uiso   1.00
C298   C     0.96588   0.99265   0.81001   0.00000  Uiso   1.00
C299   C     0.03680   0.99876   0.87033   0.00000  Uiso   1.00
H300   H     0.02511   0.82666   0.74710   0.00000  Uiso   1.00
H301   H     0.05845   0.81590   0.55474   0.00000  Uiso   1.00
H302   H     0.91005   0.77178   0.83127   0.00000  Uiso   1.00
H303   H     0.12236   0.88119   0.86035   0.00000  Uiso   1.00
H304   H     0.07084   0.82145   0.33356   0.00000  Uiso   1.00
H305   H     0.75793   0.72843   0.91668   0.00000  Uiso   1.00
H306   H     0.20564   0.95913   0.97801   0.00000  Uiso   1.00
H307   H     0.83590   0.96140   0.68622   0.00000  Uiso   1.00
H308   H     0.85886   0.95804   0.49051   0.00000  Uiso   1.00
H309   H     0.71046   0.91392   0.76705   0.00000  Uiso   1.00
H310   H     0.92277   0.02333   0.79613   0.00000  Uiso   1.00
H311   H     0.90885   0.93682   0.28144   0.00000  Uiso   1.00
H312   H     0.59593   0.84380   0.86456   0.00000  Uiso   1.00
H313   H     0.04364   0.07449   0.92588   0.00000  Uiso   1.00
O314   O     0.00834   0.87448   0.17985   0.00000  Uiso   1.00
O315   O     0.59782   0.75245   0.94489   0.00000  Uiso   1.00
O316   O     0.18521   0.05511   0.02535   0.00000  Uiso   1.00
N317   N     0.02958   0.84907   0.34816   0.00000  Uiso   1.00
N318   N     0.73702   0.76210   0.89332   0.00000  Uiso   1.00
N319   N     0.15558   0.97778   0.95068   0.00000  Uiso   1.00
N320   N     0.94241   0.91115   0.32011   0.00000  Uiso   1.00
N321   N     0.64985   0.82418   0.86527   0.00000  Uiso   1.00
N322   N     0.06841   0.03985   0.92263   0.00000  Uiso   1.00
C323   C     0.51824   0.14247   0.73315   0.00000  Uiso   1.00
C324   C     0.52635   0.12963   0.62019   0.00000  Uiso   1.00
C325   C     0.48463   0.15341   0.54084   0.00000  Uiso   1.00
C326   C     0.50057   0.13612   0.44282   0.00000  Uiso   1.00
C327   C     0.50473   0.12223   0.27015   0.00000  Uiso   1.00
C328   C     0.60699   0.15360   0.77043   0.00000  Uiso   1.00
C329   C     0.63306   0.19754   0.81741   0.00000  Uiso   1.00
C330   C     0.71688   0.20043   0.84586   0.00000  Uiso   1.00
C331   C     0.84622   0.22374   0.90651   0.00000  Uiso   1.00
C332   C     0.49163   0.09416   0.78622   0.00000  Uiso   1.00
C333   C     0.42071   0.08812   0.84650   0.00000  Uiso   1.00
C334   C     0.40742   0.04096   0.88828   0.00000  Uiso   1.00
C335   C     0.35764   0.97198   0.97344   0.00000  Uiso   1.00
C336   C     0.62075   0.06947   0.70017   0.00000  Uiso   1.00
C337   C     0.58203   0.08997   0.60228   0.00000  Uiso   1.00
C338   C     0.59804   0.07264   0.50435   0.00000  Uiso   1.00
C339   C     0.55635   0.09640   0.42487   0.00000  Uiso   1.00
C340   C     0.66267   0.11395   0.75252   0.00000  Uiso   1.00
C341   C     0.74647   0.11677   0.78092   0.00000  Uiso   1.00
C342   C     0.77266   0.16070   0.82792   0.00000  Uiso   1.00
C343   C     0.54730   0.05451   0.76831   0.00000  Uiso   1.00
C344   C     0.53412   0.00735   0.81001   0.00000  Uiso   1.00
C345   C     0.46320   0.00124   0.87033   0.00000  Uiso   1.00
H346   H     0.47489   0.17334   0.74710   0.00000  Uiso   1.00
H347   H     0.44155   0.18410   0.55474   0.00000  Uiso   1.00
H348   H     0.58995   0.22822   0.83127   0.00000  Uiso   1.00
H349   H     0.37764   0.11881   0.86035   0.00000  Uiso   1.00
H350   H     0.42916   0.17855   0.33356   0.00000  Uiso   1.00
H351   H     0.74207   0.27157   0.91668   0.00000  Uiso   1.00
H352   H     0.29436   0.04087   0.97801   0.00000  Uiso   1.00
H353   H     0.66410   0.03860   0.68622   0.00000  Uiso   1.00
H354   H     0.64114   0.04196   0.49051   0.00000  Uiso   1.00
H355   H     0.78954   0.08608   0.76705   0.00000  Uiso   1.00
H356   H     0.57723   0.97667   0.79613   0.00000  Uiso   1.00
H357   H     0.59115   0.06318   0.28144   0.00000  Uiso   1.00
H358   H     0.90407   0.15620   0.86456   0.00000  Uiso   1.00
H359   H     0.45636   0.92551   0.92588   0.00000  Uiso   1.00
O360   O     0.49166   0.12552   0.17985   0.00000  Uiso   1.00
O361   O     0.90218   0.24755   0.94489   0.00000  Uiso   1.00
O362   O     0.31479   0.94489   0.02535   0.00000  Uiso   1.00
N363   N     0.47042   0.15093   0.34816   0.00000  Uiso   1.00
N364   N     0.76298   0.23790   0.89332   0.00000  Uiso   1.00
N365   N     0.34442   0.02222   0.95068   0.00000  Uiso   1.00
N366   N     0.55759   0.08885   0.32011   0.00000  Uiso   1.00
N367   N     0.85015   0.17582   0.86527   0.00000  Uiso   1.00
N368   N     0.43159   0.96015   0.92263   0.00000  Uiso   1.00
