data_job_04008
_audit_creation_date              2018-12-19
_audit_creation_method            'Materials Studio'
_symmetry_space_group_name_H-M    'P1'
_symmetry_Int_Tables_number       1
_symmetry_cell_setting            triclinic
loop_
_symmetry_equiv_pos_as_xyz
  x,y,z
_cell_length_a                    20.9274
_cell_length_b                    13.8621
_cell_length_c                    40.0969
_cell_angle_alpha                 90.0000
_cell_angle_beta                  134.5523
_cell_angle_gamma                 90.0000
loop_
_atom_site_label
_atom_site_type_symbol
_atom_site_fract_x
_atom_site_fract_y
_atom_site_fract_z
_atom_site_U_iso_or_equiv
_atom_site_adp_type
_atom_site_occupancy
C1     C     0.08818   0.78856   0.58305   0.00000  Uiso   1.00
C2     C     0.10409   0.73360   0.62128   0.00000  Uiso   1.00
C3     C     0.06707   0.64491   0.61599   0.00000  Uiso   1.00
C4     C     0.08993   0.60659   0.65520   0.00000  Uiso   1.00
C5     C     0.10588   0.51381   0.70804   0.00000  Uiso   1.00
C6     C     0.18065   0.80603   0.60184   0.00000  Uiso   1.00
C7     C     0.20799   0.77825   0.58019   0.00000  Uiso   1.00
C8     C     0.29529   0.80091   0.60303   0.00000  Uiso   1.00
C9     C     0.43008   0.82064   0.62567   0.00000  Uiso   1.00
C10    C     0.05274   0.88750   0.58020   0.00000  Uiso   1.00
C11    C     0.97254   0.92824   0.54036   0.00000  Uiso   1.00
C12    C     0.95216   0.01951   0.54498   0.00000  Uiso   1.00
C13    C     0.88835   0.16574   0.53403   0.00000  Uiso   1.00
C14    C     0.19461   0.87822   0.66211   0.00000  Uiso   1.00
C15    C     0.16191   0.78230   0.66423   0.00000  Uiso   1.00
C16    C     0.18483   0.74410   0.70346   0.00000  Uiso   1.00
C17    C     0.14784   0.65537   0.69821   0.00000  Uiso   1.00
C18    C     0.23846   0.85472   0.64478   0.00000  Uiso   1.00
C19    C     0.32574   0.87744   0.66766   0.00000  Uiso   1.00
C20    C     0.35321   0.84970   0.64605   0.00000  Uiso   1.00
C21    C     0.11055   0.93620   0.62315   0.00000  Uiso   1.00
C22    C     0.09030   0.02743   0.62783   0.00000  Uiso   1.00
C23    C     0.01008   0.06830   0.58800   0.00000  Uiso   1.00
H24    H     0.04317   0.75065   0.54962   0.00000  Uiso   1.00
H25    H     0.02234   0.60724   0.58275   0.00000  Uiso   1.00
H26    H     0.16323   0.74057   0.54696   0.00000  Uiso   1.00
H27    H     0.92782   0.89054   0.50713   0.00000  Uiso   1.00
H28    H     0.02476   0.46971   0.63842   0.00000  Uiso   1.00
H29    H     0.32183   0.75087   0.56294   0.00000  Uiso   1.00
H30    H     0.82542   0.06710   0.47897   0.00000  Uiso   1.00
H31    H     0.23963   0.91613   0.69554   0.00000  Uiso   1.00
H32    H     0.22957   0.78180   0.73668   0.00000  Uiso   1.00
H33    H     0.37046   0.91513   0.70089   0.00000  Uiso   1.00
H34    H     0.13505   0.06509   0.66107   0.00000  Uiso   1.00
H35    H     0.19295   0.61138   0.76336   0.00000  Uiso   1.00
H36    H     0.49003   0.89254   0.68788   0.00000  Uiso   1.00
H37    H     0.99362   0.20877   0.60391   0.00000  Uiso   1.00
O38    O     0.09872   0.44918   0.72532   0.00000  Uiso   1.00
O39    O     0.48846   0.81806   0.62629   0.00000  Uiso   1.00
O40    O     0.83718   0.23295   0.51612   0.00000  Uiso   1.00
N41    N     0.06571   0.52149   0.66218   0.00000  Uiso   1.00
N42    N     0.34346   0.78435   0.59161   0.00000  Uiso   1.00
N43    N     0.87937   0.08001   0.51310   0.00000  Uiso   1.00
N44    N     0.15621   0.59773   0.72941   0.00000  Uiso   1.00
N45    N     0.43396   0.86058   0.65884   0.00000  Uiso   1.00
N46    N     0.96987   0.15624   0.58033   0.00000  Uiso   1.00
C47    C     0.58818   0.28856   0.58305   0.00000  Uiso   1.00
C48    C     0.60409   0.23360   0.62128   0.00000  Uiso   1.00
C49    C     0.56707   0.14491   0.61599   0.00000  Uiso   1.00
C50    C     0.58993   0.10659   0.65520   0.00000  Uiso   1.00
C51    C     0.60588   0.01381   0.70804   0.00000  Uiso   1.00
C52    C     0.68065   0.30603   0.60184   0.00000  Uiso   1.00
C53    C     0.70799   0.27825   0.58019   0.00000  Uiso   1.00
C54    C     0.79529   0.30091   0.60303   0.00000  Uiso   1.00
C55    C     0.93008   0.32064   0.62567   0.00000  Uiso   1.00
C56    C     0.55274   0.38750   0.58020   0.00000  Uiso   1.00
C57    C     0.47254   0.42824   0.54036   0.00000  Uiso   1.00
C58    C     0.45216   0.51951   0.54498   0.00000  Uiso   1.00
C59    C     0.38835   0.66574   0.53403   0.00000  Uiso   1.00
C60    C     0.69461   0.37822   0.66211   0.00000  Uiso   1.00
C61    C     0.66191   0.28230   0.66423   0.00000  Uiso   1.00
C62    C     0.68483   0.24410   0.70346   0.00000  Uiso   1.00
C63    C     0.64784   0.15537   0.69821   0.00000  Uiso   1.00
C64    C     0.73846   0.35472   0.64478   0.00000  Uiso   1.00
C65    C     0.82574   0.37744   0.66766   0.00000  Uiso   1.00
C66    C     0.85321   0.34970   0.64605   0.00000  Uiso   1.00
C67    C     0.61055   0.43620   0.62315   0.00000  Uiso   1.00
C68    C     0.59030   0.52743   0.62783   0.00000  Uiso   1.00
C69    C     0.51008   0.56830   0.58800   0.00000  Uiso   1.00
H70    H     0.54317   0.25065   0.54962   0.00000  Uiso   1.00
H71    H     0.52234   0.10724   0.58275   0.00000  Uiso   1.00
H72    H     0.66323   0.24057   0.54696   0.00000  Uiso   1.00
H73    H     0.42782   0.39054   0.50713   0.00000  Uiso   1.00
H74    H     0.52476   0.96971   0.63842   0.00000  Uiso   1.00
H75    H     0.82183   0.25087   0.56294   0.00000  Uiso   1.00
H76    H     0.32542   0.56710   0.47897   0.00000  Uiso   1.00
H77    H     0.73963   0.41613   0.69554   0.00000  Uiso   1.00
H78    H     0.72957   0.28180   0.73668   0.00000  Uiso   1.00
H79    H     0.87046   0.41513   0.70089   0.00000  Uiso   1.00
H80    H     0.63505   0.56509   0.66107   0.00000  Uiso   1.00
H81    H     0.69295   0.11138   0.76336   0.00000  Uiso   1.00
H82    H     0.99003   0.39254   0.68788   0.00000  Uiso   1.00
H83    H     0.49362   0.70877   0.60391   0.00000  Uiso   1.00
O84    O     0.59872   0.94918   0.72532   0.00000  Uiso   1.00
O85    O     0.98846   0.31806   0.62629   0.00000  Uiso   1.00
O86    O     0.33718   0.73295   0.51612   0.00000  Uiso   1.00
N87    N     0.56571   0.02149   0.66218   0.00000  Uiso   1.00
N88    N     0.84346   0.28435   0.59161   0.00000  Uiso   1.00
N89    N     0.37937   0.58001   0.51310   0.00000  Uiso   1.00
N90    N     0.65621   0.09773   0.72941   0.00000  Uiso   1.00
N91    N     0.93396   0.36058   0.65884   0.00000  Uiso   1.00
N92    N     0.46987   0.65624   0.58033   0.00000  Uiso   1.00
C93    C     0.91182   0.78856   0.91695   0.00000  Uiso   1.00
C94    C     0.89591   0.73360   0.87872   0.00000  Uiso   1.00
C95    C     0.93293   0.64491   0.88401   0.00000  Uiso   1.00
C96    C     0.91007   0.60659   0.84480   0.00000  Uiso   1.00
C97    C     0.89412   0.51381   0.79196   0.00000  Uiso   1.00
C98    C     0.81935   0.80603   0.89816   0.00000  Uiso   1.00
C99    C     0.79201   0.77825   0.91981   0.00000  Uiso   1.00
C100   C     0.70471   0.80091   0.89697   0.00000  Uiso   1.00
C101   C     0.56992   0.82064   0.87433   0.00000  Uiso   1.00
C102   C     0.94726   0.88750   0.91980   0.00000  Uiso   1.00
C103   C     0.02746   0.92824   0.95964   0.00000  Uiso   1.00
C104   C     0.04784   0.01951   0.95502   0.00000  Uiso   1.00
C105   C     0.11165   0.16574   0.96597   0.00000  Uiso   1.00
C106   C     0.80539   0.87822   0.83789   0.00000  Uiso   1.00
C107   C     0.83809   0.78230   0.83577   0.00000  Uiso   1.00
C108   C     0.81517   0.74410   0.79654   0.00000  Uiso   1.00
C109   C     0.85216   0.65537   0.80179   0.00000  Uiso   1.00
C110   C     0.76154   0.85472   0.85522   0.00000  Uiso   1.00
C111   C     0.67426   0.87744   0.83234   0.00000  Uiso   1.00
C112   C     0.64679   0.84970   0.85395   0.00000  Uiso   1.00
C113   C     0.88945   0.93620   0.87685   0.00000  Uiso   1.00
C114   C     0.90970   0.02743   0.87217   0.00000  Uiso   1.00
C115   C     0.98992   0.06830   0.91200   0.00000  Uiso   1.00
H116   H     0.95683   0.75065   0.95038   0.00000  Uiso   1.00
H117   H     0.97766   0.60724   0.91725   0.00000  Uiso   1.00
H118   H     0.83677   0.74057   0.95304   0.00000  Uiso   1.00
H119   H     0.07218   0.89054   0.99287   0.00000  Uiso   1.00
H120   H     0.97524   0.46971   0.86158   0.00000  Uiso   1.00
H121   H     0.67817   0.75087   0.93706   0.00000  Uiso   1.00
H122   H     0.17458   0.06710   0.02103   0.00000  Uiso   1.00
H123   H     0.76037   0.91613   0.80446   0.00000  Uiso   1.00
H124   H     0.77043   0.78180   0.76332   0.00000  Uiso   1.00
H125   H     0.62954   0.91513   0.79911   0.00000  Uiso   1.00
H126   H     0.86495   0.06509   0.83893   0.00000  Uiso   1.00
H127   H     0.80705   0.61138   0.73664   0.00000  Uiso   1.00
H128   H     0.50997   0.89254   0.81212   0.00000  Uiso   1.00
H129   H     0.00638   0.20877   0.89609   0.00000  Uiso   1.00
O130   O     0.90128   0.44918   0.77468   0.00000  Uiso   1.00
O131   O     0.51154   0.81806   0.87371   0.00000  Uiso   1.00
O132   O     0.16282   0.23295   0.98388   0.00000  Uiso   1.00
N133   N     0.93429   0.52149   0.83782   0.00000  Uiso   1.00
N134   N     0.65654   0.78435   0.90839   0.00000  Uiso   1.00
N135   N     0.12063   0.08001   0.98690   0.00000  Uiso   1.00
N136   N     0.84379   0.59773   0.77059   0.00000  Uiso   1.00
N137   N     0.56604   0.86058   0.84116   0.00000  Uiso   1.00
N138   N     0.03013   0.15624   0.91967   0.00000  Uiso   1.00
C139   C     0.41182   0.28856   0.91695   0.00000  Uiso   1.00
C140   C     0.39591   0.23360   0.87872   0.00000  Uiso   1.00
C141   C     0.43293   0.14491   0.88401   0.00000  Uiso   1.00
C142   C     0.41007   0.10659   0.84480   0.00000  Uiso   1.00
C143   C     0.39412   0.01381   0.79196   0.00000  Uiso   1.00
C144   C     0.31935   0.30603   0.89816   0.00000  Uiso   1.00
C145   C     0.29201   0.27825   0.91981   0.00000  Uiso   1.00
C146   C     0.20471   0.30091   0.89697   0.00000  Uiso   1.00
C147   C     0.06992   0.32064   0.87433   0.00000  Uiso   1.00
C148   C     0.44726   0.38750   0.91980   0.00000  Uiso   1.00
C149   C     0.52746   0.42824   0.95964   0.00000  Uiso   1.00
C150   C     0.54784   0.51951   0.95502   0.00000  Uiso   1.00
C151   C     0.61165   0.66574   0.96597   0.00000  Uiso   1.00
C152   C     0.30539   0.37822   0.83789   0.00000  Uiso   1.00
C153   C     0.33809   0.28230   0.83577   0.00000  Uiso   1.00
C154   C     0.31517   0.24410   0.79654   0.00000  Uiso   1.00
C155   C     0.35216   0.15537   0.80179   0.00000  Uiso   1.00
C156   C     0.26154   0.35472   0.85522   0.00000  Uiso   1.00
C157   C     0.17426   0.37744   0.83234   0.00000  Uiso   1.00
C158   C     0.14679   0.34970   0.85395   0.00000  Uiso   1.00
C159   C     0.38945   0.43620   0.87685   0.00000  Uiso   1.00
C160   C     0.40970   0.52743   0.87217   0.00000  Uiso   1.00
C161   C     0.48992   0.56830   0.91200   0.00000  Uiso   1.00
H162   H     0.45683   0.25065   0.95038   0.00000  Uiso   1.00
H163   H     0.47766   0.10724   0.91725   0.00000  Uiso   1.00
H164   H     0.33677   0.24057   0.95304   0.00000  Uiso   1.00
H165   H     0.57218   0.39054   0.99287   0.00000  Uiso   1.00
H166   H     0.47524   0.96971   0.86158   0.00000  Uiso   1.00
H167   H     0.17817   0.25087   0.93706   0.00000  Uiso   1.00
H168   H     0.67458   0.56710   0.02103   0.00000  Uiso   1.00
H169   H     0.26037   0.41613   0.80446   0.00000  Uiso   1.00
H170   H     0.27043   0.28180   0.76332   0.00000  Uiso   1.00
H171   H     0.12954   0.41513   0.79911   0.00000  Uiso   1.00
H172   H     0.36495   0.56509   0.83893   0.00000  Uiso   1.00
H173   H     0.30705   0.11138   0.73664   0.00000  Uiso   1.00
H174   H     0.00997   0.39254   0.81212   0.00000  Uiso   1.00
H175   H     0.50638   0.70877   0.89609   0.00000  Uiso   1.00
O176   O     0.40128   0.94918   0.77468   0.00000  Uiso   1.00
O177   O     0.01154   0.31806   0.87371   0.00000  Uiso   1.00
O178   O     0.66282   0.73295   0.98388   0.00000  Uiso   1.00
N179   N     0.43429   0.02149   0.83782   0.00000  Uiso   1.00
N180   N     0.15654   0.28435   0.90839   0.00000  Uiso   1.00
N181   N     0.62063   0.58001   0.98690   0.00000  Uiso   1.00
N182   N     0.34379   0.09773   0.77059   0.00000  Uiso   1.00
N183   N     0.06604   0.36058   0.84116   0.00000  Uiso   1.00
N184   N     0.53013   0.65624   0.91967   0.00000  Uiso   1.00
C185   C     0.91182   0.21144   0.41695   0.00000  Uiso   1.00
C186   C     0.89591   0.26640   0.37872   0.00000  Uiso   1.00
C187   C     0.93293   0.35509   0.38401   0.00000  Uiso   1.00
C188   C     0.91007   0.39341   0.34480   0.00000  Uiso   1.00
C189   C     0.89412   0.48619   0.29196   0.00000  Uiso   1.00
C190   C     0.81935   0.19397   0.39816   0.00000  Uiso   1.00
C191   C     0.79201   0.22175   0.41981   0.00000  Uiso   1.00
C192   C     0.70471   0.19909   0.39697   0.00000  Uiso   1.00
C193   C     0.56992   0.17936   0.37433   0.00000  Uiso   1.00
C194   C     0.94726   0.11250   0.41980   0.00000  Uiso   1.00
C195   C     0.02746   0.07176   0.45964   0.00000  Uiso   1.00
C196   C     0.04784   0.98049   0.45502   0.00000  Uiso   1.00
C197   C     0.11165   0.83426   0.46597   0.00000  Uiso   1.00
C198   C     0.80539   0.12178   0.33789   0.00000  Uiso   1.00
C199   C     0.83809   0.21770   0.33577   0.00000  Uiso   1.00
C200   C     0.81517   0.25590   0.29654   0.00000  Uiso   1.00
C201   C     0.85216   0.34463   0.30179   0.00000  Uiso   1.00
C202   C     0.76154   0.14528   0.35522   0.00000  Uiso   1.00
C203   C     0.67426   0.12256   0.33234   0.00000  Uiso   1.00
C204   C     0.64679   0.15030   0.35395   0.00000  Uiso   1.00
C205   C     0.88945   0.06380   0.37685   0.00000  Uiso   1.00
C206   C     0.90970   0.97257   0.37217   0.00000  Uiso   1.00
C207   C     0.98992   0.93170   0.41200   0.00000  Uiso   1.00
H208   H     0.95683   0.24935   0.45038   0.00000  Uiso   1.00
H209   H     0.97766   0.39276   0.41725   0.00000  Uiso   1.00
H210   H     0.83677   0.25943   0.45304   0.00000  Uiso   1.00
H211   H     0.07218   0.10946   0.49287   0.00000  Uiso   1.00
H212   H     0.97524   0.53029   0.36158   0.00000  Uiso   1.00
H213   H     0.67817   0.24913   0.43706   0.00000  Uiso   1.00
H214   H     0.17458   0.93290   0.52103   0.00000  Uiso   1.00
H215   H     0.76037   0.08387   0.30446   0.00000  Uiso   1.00
H216   H     0.77043   0.21820   0.26332   0.00000  Uiso   1.00
H217   H     0.62954   0.08487   0.29911   0.00000  Uiso   1.00
H218   H     0.86495   0.93491   0.33893   0.00000  Uiso   1.00
H219   H     0.80705   0.38862   0.23664   0.00000  Uiso   1.00
H220   H     0.50997   0.10746   0.31212   0.00000  Uiso   1.00
H221   H     0.00638   0.79123   0.39609   0.00000  Uiso   1.00
O222   O     0.90128   0.55082   0.27468   0.00000  Uiso   1.00
O223   O     0.51154   0.18194   0.37371   0.00000  Uiso   1.00
O224   O     0.16282   0.76705   0.48388   0.00000  Uiso   1.00
N225   N     0.93429   0.47851   0.33782   0.00000  Uiso   1.00
N226   N     0.65654   0.21565   0.40839   0.00000  Uiso   1.00
N227   N     0.12063   0.91999   0.48690   0.00000  Uiso   1.00
N228   N     0.84379   0.40227   0.27059   0.00000  Uiso   1.00
N229   N     0.56604   0.13942   0.34116   0.00000  Uiso   1.00
N230   N     0.03013   0.84376   0.41967   0.00000  Uiso   1.00
C231   C     0.41182   0.71144   0.41695   0.00000  Uiso   1.00
C232   C     0.39591   0.76640   0.37872   0.00000  Uiso   1.00
C233   C     0.43293   0.85509   0.38401   0.00000  Uiso   1.00
C234   C     0.41007   0.89341   0.34480   0.00000  Uiso   1.00
C235   C     0.39412   0.98619   0.29196   0.00000  Uiso   1.00
C236   C     0.31935   0.69397   0.39816   0.00000  Uiso   1.00
C237   C     0.29201   0.72175   0.41981   0.00000  Uiso   1.00
C238   C     0.20471   0.69909   0.39697   0.00000  Uiso   1.00
C239   C     0.06992   0.67936   0.37433   0.00000  Uiso   1.00
C240   C     0.44726   0.61250   0.41980   0.00000  Uiso   1.00
C241   C     0.52746   0.57176   0.45964   0.00000  Uiso   1.00
C242   C     0.54784   0.48049   0.45502   0.00000  Uiso   1.00
C243   C     0.61165   0.33426   0.46597   0.00000  Uiso   1.00
C244   C     0.30539   0.62178   0.33789   0.00000  Uiso   1.00
C245   C     0.33809   0.71770   0.33577   0.00000  Uiso   1.00
C246   C     0.31517   0.75590   0.29654   0.00000  Uiso   1.00
C247   C     0.35216   0.84463   0.30179   0.00000  Uiso   1.00
C248   C     0.26154   0.64528   0.35522   0.00000  Uiso   1.00
C249   C     0.17426   0.62256   0.33234   0.00000  Uiso   1.00
C250   C     0.14679   0.65030   0.35395   0.00000  Uiso   1.00
C251   C     0.38945   0.56380   0.37685   0.00000  Uiso   1.00
C252   C     0.40970   0.47257   0.37217   0.00000  Uiso   1.00
C253   C     0.48992   0.43170   0.41200   0.00000  Uiso   1.00
H254   H     0.45683   0.74935   0.45038   0.00000  Uiso   1.00
H255   H     0.47766   0.89276   0.41725   0.00000  Uiso   1.00
H256   H     0.33677   0.75943   0.45304   0.00000  Uiso   1.00
H257   H     0.57218   0.60946   0.49287   0.00000  Uiso   1.00
H258   H     0.47524   0.03029   0.36158   0.00000  Uiso   1.00
H259   H     0.17817   0.74913   0.43706   0.00000  Uiso   1.00
H260   H     0.67458   0.43290   0.52103   0.00000  Uiso   1.00
H261   H     0.26037   0.58387   0.30446   0.00000  Uiso   1.00
H262   H     0.27043   0.71820   0.26332   0.00000  Uiso   1.00
H263   H     0.12954   0.58487   0.29911   0.00000  Uiso   1.00
H264   H     0.36495   0.43491   0.33893   0.00000  Uiso   1.00
H265   H     0.30705   0.88862   0.23664   0.00000  Uiso   1.00
H266   H     0.00997   0.60746   0.31212   0.00000  Uiso   1.00
H267   H     0.50638   0.29123   0.39609   0.00000  Uiso   1.00
O268   O     0.40128   0.05082   0.27468   0.00000  Uiso   1.00
O269   O     0.01154   0.68194   0.37371   0.00000  Uiso   1.00
O270   O     0.66282   0.26705   0.48388   0.00000  Uiso   1.00
N271   N     0.43429   0.97851   0.33782   0.00000  Uiso   1.00
N272   N     0.15654   0.71565   0.40839   0.00000  Uiso   1.00
N273   N     0.62063   0.41999   0.48690   0.00000  Uiso   1.00
N274   N     0.34379   0.90227   0.27059   0.00000  Uiso   1.00
N275   N     0.06604   0.63942   0.34116   0.00000  Uiso   1.00
N276   N     0.53013   0.34376   0.41967   0.00000  Uiso   1.00
C277   C     0.08818   0.21144   0.08305   0.00000  Uiso   1.00
C278   C     0.10409   0.26640   0.12128   0.00000  Uiso   1.00
C279   C     0.06707   0.35509   0.11599   0.00000  Uiso   1.00
C280   C     0.08993   0.39341   0.15520   0.00000  Uiso   1.00
C281   C     0.10588   0.48619   0.20804   0.00000  Uiso   1.00
C282   C     0.18065   0.19397   0.10184   0.00000  Uiso   1.00
C283   C     0.20799   0.22175   0.08019   0.00000  Uiso   1.00
C284   C     0.29529   0.19909   0.10303   0.00000  Uiso   1.00
C285   C     0.43008   0.17936   0.12567   0.00000  Uiso   1.00
C286   C     0.05274   0.11250   0.08020   0.00000  Uiso   1.00
C287   C     0.97254   0.07176   0.04036   0.00000  Uiso   1.00
C288   C     0.95216   0.98049   0.04498   0.00000  Uiso   1.00
C289   C     0.88835   0.83426   0.03403   0.00000  Uiso   1.00
C290   C     0.19461   0.12178   0.16211   0.00000  Uiso   1.00
C291   C     0.16191   0.21770   0.16423   0.00000  Uiso   1.00
C292   C     0.18483   0.25590   0.20346   0.00000  Uiso   1.00
C293   C     0.14784   0.34463   0.19821   0.00000  Uiso   1.00
C294   C     0.23846   0.14528   0.14478   0.00000  Uiso   1.00
C295   C     0.32574   0.12256   0.16766   0.00000  Uiso   1.00
C296   C     0.35321   0.15030   0.14605   0.00000  Uiso   1.00
C297   C     0.11055   0.06380   0.12315   0.00000  Uiso   1.00
C298   C     0.09030   0.97257   0.12783   0.00000  Uiso   1.00
C299   C     0.01008   0.93170   0.08800   0.00000  Uiso   1.00
H300   H     0.04317   0.24935   0.04962   0.00000  Uiso   1.00
H301   H     0.02234   0.39276   0.08275   0.00000  Uiso   1.00
H302   H     0.16323   0.25943   0.04696   0.00000  Uiso   1.00
H303   H     0.92782   0.10946   0.00713   0.00000  Uiso   1.00
H304   H     0.02476   0.53029   0.13842   0.00000  Uiso   1.00
H305   H     0.32183   0.24913   0.06294   0.00000  Uiso   1.00
H306   H     0.82542   0.93290   0.97897   0.00000  Uiso   1.00
H307   H     0.23963   0.08387   0.19554   0.00000  Uiso   1.00
H308   H     0.22957   0.21820   0.23668   0.00000  Uiso   1.00
H309   H     0.37046   0.08487   0.20089   0.00000  Uiso   1.00
H310   H     0.13505   0.93491   0.16107   0.00000  Uiso   1.00
H311   H     0.19295   0.38862   0.26336   0.00000  Uiso   1.00
H312   H     0.49003   0.10746   0.18788   0.00000  Uiso   1.00
H313   H     0.99362   0.79123   0.10391   0.00000  Uiso   1.00
O314   O     0.09872   0.55082   0.22532   0.00000  Uiso   1.00
O315   O     0.48846   0.18194   0.12629   0.00000  Uiso   1.00
O316   O     0.83718   0.76705   0.01612   0.00000  Uiso   1.00
N317   N     0.06571   0.47851   0.16218   0.00000  Uiso   1.00
N318   N     0.34346   0.21565   0.09161   0.00000  Uiso   1.00
N319   N     0.87937   0.91999   0.01310   0.00000  Uiso   1.00
N320   N     0.15621   0.40227   0.22941   0.00000  Uiso   1.00
N321   N     0.43396   0.13942   0.15884   0.00000  Uiso   1.00
N322   N     0.96987   0.84376   0.08033   0.00000  Uiso   1.00
C323   C     0.58818   0.71144   0.08305   0.00000  Uiso   1.00
C324   C     0.60409   0.76640   0.12128   0.00000  Uiso   1.00
C325   C     0.56707   0.85509   0.11599   0.00000  Uiso   1.00
C326   C     0.58993   0.89341   0.15520   0.00000  Uiso   1.00
C327   C     0.60588   0.98619   0.20804   0.00000  Uiso   1.00
C328   C     0.68065   0.69397   0.10184   0.00000  Uiso   1.00
C329   C     0.70799   0.72175   0.08019   0.00000  Uiso   1.00
C330   C     0.79529   0.69909   0.10303   0.00000  Uiso   1.00
C331   C     0.93008   0.67936   0.12567   0.00000  Uiso   1.00
C332   C     0.55274   0.61250   0.08020   0.00000  Uiso   1.00
C333   C     0.47254   0.57176   0.04036   0.00000  Uiso   1.00
C334   C     0.45216   0.48049   0.04498   0.00000  Uiso   1.00
C335   C     0.38835   0.33426   0.03403   0.00000  Uiso   1.00
C336   C     0.69461   0.62178   0.16211   0.00000  Uiso   1.00
C337   C     0.66191   0.71770   0.16423   0.00000  Uiso   1.00
C338   C     0.68483   0.75590   0.20346   0.00000  Uiso   1.00
C339   C     0.64784   0.84463   0.19821   0.00000  Uiso   1.00
C340   C     0.73846   0.64528   0.14478   0.00000  Uiso   1.00
C341   C     0.82574   0.62256   0.16766   0.00000  Uiso   1.00
C342   C     0.85321   0.65030   0.14605   0.00000  Uiso   1.00
C343   C     0.61055   0.56380   0.12315   0.00000  Uiso   1.00
C344   C     0.59030   0.47257   0.12783   0.00000  Uiso   1.00
C345   C     0.51008   0.43170   0.08800   0.00000  Uiso   1.00
H346   H     0.54317   0.74935   0.04962   0.00000  Uiso   1.00
H347   H     0.52234   0.89276   0.08275   0.00000  Uiso   1.00
H348   H     0.66323   0.75943   0.04696   0.00000  Uiso   1.00
H349   H     0.42782   0.60946   0.00713   0.00000  Uiso   1.00
H350   H     0.52476   0.03029   0.13842   0.00000  Uiso   1.00
H351   H     0.82183   0.74913   0.06294   0.00000  Uiso   1.00
H352   H     0.32542   0.43290   0.97897   0.00000  Uiso   1.00
H353   H     0.73963   0.58387   0.19554   0.00000  Uiso   1.00
H354   H     0.72957   0.71820   0.23668   0.00000  Uiso   1.00
H355   H     0.87046   0.58487   0.20089   0.00000  Uiso   1.00
H356   H     0.63505   0.43491   0.16107   0.00000  Uiso   1.00
H357   H     0.69295   0.88862   0.26336   0.00000  Uiso   1.00
H358   H     0.99003   0.60746   0.18788   0.00000  Uiso   1.00
H359   H     0.49362   0.29123   0.10391   0.00000  Uiso   1.00
O360   O     0.59872   0.05082   0.22532   0.00000  Uiso   1.00
O361   O     0.98846   0.68194   0.12629   0.00000  Uiso   1.00
O362   O     0.33718   0.26705   0.01612   0.00000  Uiso   1.00
N363   N     0.56571   0.97851   0.16218   0.00000  Uiso   1.00
N364   N     0.84346   0.71565   0.09161   0.00000  Uiso   1.00
N365   N     0.37937   0.41999   0.01310   0.00000  Uiso   1.00
N366   N     0.65621   0.90227   0.22941   0.00000  Uiso   1.00
N367   N     0.93396   0.63942   0.15884   0.00000  Uiso   1.00
N368   N     0.46987   0.34376   0.08033   0.00000  Uiso   1.00
