data_job_05097
_audit_creation_date              2018-12-19
_audit_creation_method            'Materials Studio'
_symmetry_space_group_name_H-M    'P1'
_symmetry_Int_Tables_number       1
_symmetry_cell_setting            triclinic
loop_
_symmetry_equiv_pos_as_xyz
  x,y,z
_cell_length_a                    22.6416
_cell_length_b                    12.5029
_cell_length_c                    22.8049
_cell_angle_alpha                 90.0000
_cell_angle_beta                  89.2267
_cell_angle_gamma                 90.0000
loop_
_atom_site_label
_atom_site_type_symbol
_atom_site_fract_x
_atom_site_fract_y
_atom_site_fract_z
_atom_site_U_iso_or_equiv
_atom_site_adp_type
_atom_site_occupancy
C1     C     0.49954   0.07201   0.92366   0.00000  Uiso   1.00
C2     C     0.45810   0.99594   0.89197   0.00000  Uiso   1.00
C3     C     0.43218   0.90503   0.91591   0.00000  Uiso   1.00
C4     C     0.39563   0.84602   0.87974   0.00000  Uiso   1.00
C5     C     0.33287   0.72317   0.83935   0.00000  Uiso   1.00
C6     C     0.55602   0.07641   0.88655   0.00000  Uiso   1.00
C7     C     0.61242   0.05318   0.90594   0.00000  Uiso   1.00
C8     C     0.65830   0.06194   0.86521   0.00000  Uiso   1.00
C9     C     0.74757   0.06411   0.81642   0.00000  Uiso   1.00
C10    C     0.47160   0.18265   0.91926   0.00000  Uiso   1.00
C11    C     0.45705   0.24876   0.96616   0.00000  Uiso   1.00
C12    C     0.43187   0.34697   0.95297   0.00000  Uiso   1.00
C13    C     0.39007   0.51408   0.95497   0.00000  Uiso   1.00
C14    C     0.48072   0.12889   0.81685   0.00000  Uiso   1.00
C15    C     0.44789   0.02683   0.83395   0.00000  Uiso   1.00
C16    C     0.41137   0.96795   0.79774   0.00000  Uiso   1.00
C17    C     0.38539   0.87697   0.82163   0.00000  Uiso   1.00
C18    C     0.54580   0.10731   0.82854   0.00000  Uiso   1.00
C19    C     0.59161   0.11611   0.78777   0.00000  Uiso   1.00
C20    C     0.64807   0.09289   0.80709   0.00000  Uiso   1.00
C21    C     0.46139   0.21354   0.86125   0.00000  Uiso   1.00
C22    C     0.43623   0.31168   0.84799   0.00000  Uiso   1.00
C23    C     0.42164   0.37792   0.89486   0.00000  Uiso   1.00
H24    H     0.50749   0.04796   0.96882   0.00000  Uiso   1.00
H25    H     0.44010   0.88114   0.96080   0.00000  Uiso   1.00
H26    H     0.62032   0.02929   0.95083   0.00000  Uiso   1.00
H27    H     0.46496   0.22482   0.01104   0.00000  Uiso   1.00
H28    H     0.36089   0.70979   0.92633   0.00000  Uiso   1.00
H29    H     0.74089   0.02221   0.90531   0.00000  Uiso   1.00
H30    H     0.41330   0.43454   0.03228   0.00000  Uiso   1.00
H31    H     0.47277   0.15294   0.77168   0.00000  Uiso   1.00
H32    H     0.40347   0.99188   0.75285   0.00000  Uiso   1.00
H33    H     0.58369   0.14002   0.74288   0.00000  Uiso   1.00
H34    H     0.42833   0.33556   0.80309   0.00000  Uiso   1.00
H35    H     0.33116   0.79967   0.75754   0.00000  Uiso   1.00
H36    H     0.71116   0.11209   0.73653   0.00000  Uiso   1.00
H37    H     0.38357   0.52441   0.86349   0.00000  Uiso   1.00
O38    O     0.30108   0.64686   0.83309   0.00000  Uiso   1.00
O39    O     0.79962   0.05676   0.80553   0.00000  Uiso   1.00
O40    O     0.36983   0.59772   0.97210   0.00000  Uiso   1.00
N41    N     0.36340   0.75306   0.88919   0.00000  Uiso   1.00
N42    N     0.71867   0.04513   0.86954   0.00000  Uiso   1.00
N43    N     0.41241   0.43064   0.98824   0.00000  Uiso   1.00
N44    N     0.34740   0.80142   0.79837   0.00000  Uiso   1.00
N45    N     0.70267   0.09349   0.77872   0.00000  Uiso   1.00
N46    N     0.39642   0.47900   0.89742   0.00000  Uiso   1.00
C47    C     0.00404   0.83404   0.57404   0.00000  Uiso   1.00
C48    C     0.96208   0.91061   0.60582   0.00000  Uiso   1.00
C49    C     0.93721   0.00198   0.58199   0.00000  Uiso   1.00
C50    C     0.89995   0.06139   0.61823   0.00000  Uiso   1.00
C51    C     0.83665   0.18501   0.65877   0.00000  Uiso   1.00
C52    C     0.05949   0.82868   0.61113   0.00000  Uiso   1.00
C53    C     0.11652   0.85115   0.59176   0.00000  Uiso   1.00
C54    C     0.16126   0.84158   0.63247   0.00000  Uiso   1.00
C55    C     0.24920   0.83793   0.68124   0.00000  Uiso   1.00
C56    C     0.97550   0.72380   0.57831   0.00000  Uiso   1.00
C57    C     0.96191   0.65807   0.53134   0.00000  Uiso   1.00
C58    C     0.93595   0.56018   0.54442   0.00000  Uiso   1.00
C59    C     0.89346   0.39370   0.54223   0.00000  Uiso   1.00
C60    C     0.98209   0.77706   0.68078   0.00000  Uiso   1.00
C61    C     0.95016   0.87965   0.66380   0.00000  Uiso   1.00
C62    C     0.91293   0.93893   0.70009   0.00000  Uiso   1.00
C63    C     0.88801   0.03038   0.67631   0.00000  Uiso   1.00
C64    C     0.04757   0.79773   0.66911   0.00000  Uiso   1.00
C65    C     0.09224   0.78811   0.70986   0.00000  Uiso   1.00
C66    C     0.14932   0.81057   0.69055   0.00000  Uiso   1.00
C67    C     0.96357   0.69285   0.63629   0.00000  Uiso   1.00
C68    C     0.93763   0.59504   0.64944   0.00000  Uiso   1.00
C69    C     0.92400   0.52918   0.60250   0.00000  Uiso   1.00
H70    H     0.01332   0.85814   0.52890   0.00000  Uiso   1.00
H71    H     0.94646   0.02591   0.53712   0.00000  Uiso   1.00
H72    H     0.12574   0.87509   0.54689   0.00000  Uiso   1.00
H73    H     0.97115   0.68205   0.48648   0.00000  Uiso   1.00
H74    H     0.86708   0.19829   0.57180   0.00000  Uiso   1.00
H75    H     0.24511   0.88025   0.59240   0.00000  Uiso   1.00
H76    H     0.91913   0.47318   0.46502   0.00000  Uiso   1.00
H77    H     0.97281   0.75296   0.72592   0.00000  Uiso   1.00
H78    H     0.90371   0.91496   0.74495   0.00000  Uiso   1.00
H79    H     0.08300   0.76415   0.75472   0.00000  Uiso   1.00
H80    H     0.92841   0.57111   0.69431   0.00000  Uiso   1.00
H81    H     0.83239   0.10824   0.74049   0.00000  Uiso   1.00
H82    H     0.21042   0.79020   0.76108   0.00000  Uiso   1.00
H83    H     0.88444   0.38314   0.63370   0.00000  Uiso   1.00
O84    O     0.80503   0.26175   0.66512   0.00000  Uiso   1.00
O85    O     0.30099   0.84448   0.69213   0.00000  Uiso   1.00
O86    O     0.87331   0.31042   0.52501   0.00000  Uiso   1.00
N87    N     0.86839   0.15485   0.60889   0.00000  Uiso   1.00
N88    N     0.22182   0.85752   0.62814   0.00000  Uiso   1.00
N89    N     0.91707   0.47693   0.50906   0.00000  Uiso   1.00
N90    N     0.84972   0.10640   0.69966   0.00000  Uiso   1.00
N91    N     0.20316   0.80907   0.71891   0.00000  Uiso   1.00
N92    N     0.89840   0.42848   0.59983   0.00000  Uiso   1.00
C93    C     0.50046   0.57201   0.57634   0.00000  Uiso   1.00
C94    C     0.54190   0.49594   0.60803   0.00000  Uiso   1.00
C95    C     0.56782   0.40503   0.58409   0.00000  Uiso   1.00
C96    C     0.60437   0.34602   0.62026   0.00000  Uiso   1.00
C97    C     0.66713   0.22317   0.66065   0.00000  Uiso   1.00
C98    C     0.44398   0.57641   0.61345   0.00000  Uiso   1.00
C99    C     0.38758   0.55318   0.59406   0.00000  Uiso   1.00
C100   C     0.34170   0.56194   0.63479   0.00000  Uiso   1.00
C101   C     0.25243   0.56411   0.68358   0.00000  Uiso   1.00
C102   C     0.52840   0.68265   0.58074   0.00000  Uiso   1.00
C103   C     0.54295   0.74876   0.53384   0.00000  Uiso   1.00
C104   C     0.56813   0.84697   0.54703   0.00000  Uiso   1.00
C105   C     0.60993   0.01408   0.54503   0.00000  Uiso   1.00
C106   C     0.51928   0.62889   0.68315   0.00000  Uiso   1.00
C107   C     0.55211   0.52683   0.66605   0.00000  Uiso   1.00
C108   C     0.58863   0.46795   0.70226   0.00000  Uiso   1.00
C109   C     0.61461   0.37697   0.67837   0.00000  Uiso   1.00
C110   C     0.45420   0.60731   0.67146   0.00000  Uiso   1.00
C111   C     0.40839   0.61611   0.71223   0.00000  Uiso   1.00
C112   C     0.35193   0.59289   0.69291   0.00000  Uiso   1.00
C113   C     0.53861   0.71354   0.63875   0.00000  Uiso   1.00
C114   C     0.56377   0.81168   0.65201   0.00000  Uiso   1.00
C115   C     0.57836   0.87792   0.60514   0.00000  Uiso   1.00
H116   H     0.49251   0.54796   0.53118   0.00000  Uiso   1.00
H117   H     0.55990   0.38114   0.53920   0.00000  Uiso   1.00
H118   H     0.37968   0.52929   0.54917   0.00000  Uiso   1.00
H119   H     0.53504   0.72482   0.48896   0.00000  Uiso   1.00
H120   H     0.63911   0.20979   0.57367   0.00000  Uiso   1.00
H121   H     0.25911   0.52221   0.59469   0.00000  Uiso   1.00
H122   H     0.58670   0.93454   0.46772   0.00000  Uiso   1.00
H123   H     0.52723   0.65294   0.72832   0.00000  Uiso   1.00
H124   H     0.59653   0.49188   0.74715   0.00000  Uiso   1.00
H125   H     0.41631   0.64002   0.75712   0.00000  Uiso   1.00
H126   H     0.57167   0.83556   0.69691   0.00000  Uiso   1.00
H127   H     0.66884   0.29967   0.74246   0.00000  Uiso   1.00
H128   H     0.28884   0.61209   0.76347   0.00000  Uiso   1.00
H129   H     0.61643   0.02441   0.63651   0.00000  Uiso   1.00
O130   O     0.69892   0.14686   0.66691   0.00000  Uiso   1.00
O131   O     0.20038   0.55676   0.69447   0.00000  Uiso   1.00
O132   O     0.63017   0.09772   0.52790   0.00000  Uiso   1.00
N133   N     0.63660   0.25306   0.61081   0.00000  Uiso   1.00
N134   N     0.28133   0.54513   0.63046   0.00000  Uiso   1.00
N135   N     0.58759   0.93064   0.51176   0.00000  Uiso   1.00
N136   N     0.65260   0.30142   0.70163   0.00000  Uiso   1.00
N137   N     0.29733   0.59349   0.72128   0.00000  Uiso   1.00
N138   N     0.60358   0.97900   0.60258   0.00000  Uiso   1.00
C139   C     0.99596   0.33404   0.92596   0.00000  Uiso   1.00
C140   C     0.03792   0.41061   0.89418   0.00000  Uiso   1.00
C141   C     0.06279   0.50198   0.91801   0.00000  Uiso   1.00
C142   C     0.10005   0.56139   0.88177   0.00000  Uiso   1.00
C143   C     0.16335   0.68501   0.84123   0.00000  Uiso   1.00
C144   C     0.94051   0.32868   0.88887   0.00000  Uiso   1.00
C145   C     0.88348   0.35115   0.90824   0.00000  Uiso   1.00
C146   C     0.83874   0.34158   0.86753   0.00000  Uiso   1.00
C147   C     0.75080   0.33793   0.81876   0.00000  Uiso   1.00
C148   C     0.02450   0.22380   0.92169   0.00000  Uiso   1.00
C149   C     0.03809   0.15807   0.96866   0.00000  Uiso   1.00
C150   C     0.06405   0.06018   0.95558   0.00000  Uiso   1.00
C151   C     0.10654   0.89370   0.95777   0.00000  Uiso   1.00
C152   C     0.01791   0.27706   0.81922   0.00000  Uiso   1.00
C153   C     0.04984   0.37965   0.83620   0.00000  Uiso   1.00
C154   C     0.08707   0.43893   0.79991   0.00000  Uiso   1.00
C155   C     0.11199   0.53038   0.82369   0.00000  Uiso   1.00
C156   C     0.95243   0.29773   0.83089   0.00000  Uiso   1.00
C157   C     0.90776   0.28811   0.79014   0.00000  Uiso   1.00
C158   C     0.85068   0.31057   0.80945   0.00000  Uiso   1.00
C159   C     0.03643   0.19285   0.86371   0.00000  Uiso   1.00
C160   C     0.06237   0.09504   0.85056   0.00000  Uiso   1.00
C161   C     0.07600   0.02918   0.89750   0.00000  Uiso   1.00
H162   H     0.98668   0.35814   0.97110   0.00000  Uiso   1.00
H163   H     0.05354   0.52591   0.96288   0.00000  Uiso   1.00
H164   H     0.87426   0.37509   0.95311   0.00000  Uiso   1.00
H165   H     0.02885   0.18205   0.01352   0.00000  Uiso   1.00
H166   H     0.13292   0.69829   0.92820   0.00000  Uiso   1.00
H167   H     0.75489   0.38025   0.90760   0.00000  Uiso   1.00
H168   H     0.08087   0.97318   0.03498   0.00000  Uiso   1.00
H169   H     0.02719   0.25296   0.77408   0.00000  Uiso   1.00
H170   H     0.09629   0.41496   0.75505   0.00000  Uiso   1.00
H171   H     0.91700   0.26415   0.74528   0.00000  Uiso   1.00
H172   H     0.07159   0.07111   0.80569   0.00000  Uiso   1.00
H173   H     0.16761   0.60824   0.75951   0.00000  Uiso   1.00
H174   H     0.78958   0.29020   0.73892   0.00000  Uiso   1.00
H175   H     0.11556   0.88314   0.86630   0.00000  Uiso   1.00
O176   O     0.19497   0.76175   0.83488   0.00000  Uiso   1.00
O177   O     0.69901   0.34448   0.80787   0.00000  Uiso   1.00
O178   O     0.12669   0.81042   0.97499   0.00000  Uiso   1.00
N179   N     0.13161   0.65485   0.89111   0.00000  Uiso   1.00
N180   N     0.77818   0.35752   0.87186   0.00000  Uiso   1.00
N181   N     0.08293   0.97693   0.99094   0.00000  Uiso   1.00
N182   N     0.15028   0.60640   0.80034   0.00000  Uiso   1.00
N183   N     0.79684   0.30907   0.78109   0.00000  Uiso   1.00
N184   N     0.10160   0.92848   0.90017   0.00000  Uiso   1.00
C185   C     0.50046   0.92799   0.07634   0.00000  Uiso   1.00
C186   C     0.54190   0.00406   0.10803   0.00000  Uiso   1.00
C187   C     0.56782   0.09497   0.08409   0.00000  Uiso   1.00
C188   C     0.60437   0.15398   0.12026   0.00000  Uiso   1.00
C189   C     0.66713   0.27683   0.16065   0.00000  Uiso   1.00
C190   C     0.44398   0.92359   0.11345   0.00000  Uiso   1.00
C191   C     0.38758   0.94682   0.09406   0.00000  Uiso   1.00
C192   C     0.34170   0.93806   0.13479   0.00000  Uiso   1.00
C193   C     0.25243   0.93589   0.18358   0.00000  Uiso   1.00
C194   C     0.52840   0.81735   0.08074   0.00000  Uiso   1.00
C195   C     0.54295   0.75124   0.03384   0.00000  Uiso   1.00
C196   C     0.56813   0.65303   0.04703   0.00000  Uiso   1.00
C197   C     0.60993   0.48592   0.04503   0.00000  Uiso   1.00
C198   C     0.51928   0.87111   0.18315   0.00000  Uiso   1.00
C199   C     0.55211   0.97317   0.16605   0.00000  Uiso   1.00
C200   C     0.58863   0.03205   0.20226   0.00000  Uiso   1.00
C201   C     0.61461   0.12303   0.17837   0.00000  Uiso   1.00
C202   C     0.45420   0.89269   0.17146   0.00000  Uiso   1.00
C203   C     0.40839   0.88389   0.21223   0.00000  Uiso   1.00
C204   C     0.35193   0.90711   0.19291   0.00000  Uiso   1.00
C205   C     0.53861   0.78646   0.13875   0.00000  Uiso   1.00
C206   C     0.56377   0.68832   0.15201   0.00000  Uiso   1.00
C207   C     0.57836   0.62208   0.10514   0.00000  Uiso   1.00
H208   H     0.49251   0.95204   0.03118   0.00000  Uiso   1.00
H209   H     0.55990   0.11886   0.03920   0.00000  Uiso   1.00
H210   H     0.37968   0.97071   0.04917   0.00000  Uiso   1.00
H211   H     0.53504   0.77518   0.98896   0.00000  Uiso   1.00
H212   H     0.63911   0.29021   0.07367   0.00000  Uiso   1.00
H213   H     0.25911   0.97779   0.09469   0.00000  Uiso   1.00
H214   H     0.58670   0.56546   0.96772   0.00000  Uiso   1.00
H215   H     0.52723   0.84706   0.22832   0.00000  Uiso   1.00
H216   H     0.59653   0.00812   0.24715   0.00000  Uiso   1.00
H217   H     0.41631   0.85998   0.25712   0.00000  Uiso   1.00
H218   H     0.57167   0.66444   0.19691   0.00000  Uiso   1.00
H219   H     0.66884   0.20033   0.24246   0.00000  Uiso   1.00
H220   H     0.28884   0.88791   0.26347   0.00000  Uiso   1.00
H221   H     0.61643   0.47559   0.13651   0.00000  Uiso   1.00
O222   O     0.69892   0.35314   0.16691   0.00000  Uiso   1.00
O223   O     0.20038   0.94324   0.19447   0.00000  Uiso   1.00
O224   O     0.63017   0.40228   0.02790   0.00000  Uiso   1.00
N225   N     0.63660   0.24694   0.11081   0.00000  Uiso   1.00
N226   N     0.28133   0.95487   0.13046   0.00000  Uiso   1.00
N227   N     0.58759   0.56936   0.01176   0.00000  Uiso   1.00
N228   N     0.65260   0.19858   0.20163   0.00000  Uiso   1.00
N229   N     0.29733   0.90651   0.22128   0.00000  Uiso   1.00
N230   N     0.60358   0.52100   0.10258   0.00000  Uiso   1.00
C231   C     0.99596   0.16596   0.42596   0.00000  Uiso   1.00
C232   C     0.03792   0.08939   0.39418   0.00000  Uiso   1.00
C233   C     0.06279   0.99802   0.41801   0.00000  Uiso   1.00
C234   C     0.10005   0.93861   0.38177   0.00000  Uiso   1.00
C235   C     0.16335   0.81499   0.34123   0.00000  Uiso   1.00
C236   C     0.94051   0.17132   0.38887   0.00000  Uiso   1.00
C237   C     0.88348   0.14885   0.40824   0.00000  Uiso   1.00
C238   C     0.83874   0.15842   0.36753   0.00000  Uiso   1.00
C239   C     0.75080   0.16207   0.31876   0.00000  Uiso   1.00
C240   C     0.02450   0.27620   0.42169   0.00000  Uiso   1.00
C241   C     0.03809   0.34193   0.46866   0.00000  Uiso   1.00
C242   C     0.06405   0.43982   0.45558   0.00000  Uiso   1.00
C243   C     0.10654   0.60630   0.45777   0.00000  Uiso   1.00
C244   C     0.01791   0.22294   0.31922   0.00000  Uiso   1.00
C245   C     0.04984   0.12035   0.33620   0.00000  Uiso   1.00
C246   C     0.08707   0.06107   0.29991   0.00000  Uiso   1.00
C247   C     0.11199   0.96962   0.32369   0.00000  Uiso   1.00
C248   C     0.95243   0.20227   0.33089   0.00000  Uiso   1.00
C249   C     0.90776   0.21189   0.29014   0.00000  Uiso   1.00
C250   C     0.85068   0.18943   0.30945   0.00000  Uiso   1.00
C251   C     0.03643   0.30715   0.36371   0.00000  Uiso   1.00
C252   C     0.06237   0.40496   0.35056   0.00000  Uiso   1.00
C253   C     0.07600   0.47082   0.39750   0.00000  Uiso   1.00
H254   H     0.98668   0.14186   0.47110   0.00000  Uiso   1.00
H255   H     0.05354   0.97409   0.46288   0.00000  Uiso   1.00
H256   H     0.87426   0.12491   0.45311   0.00000  Uiso   1.00
H257   H     0.02885   0.31795   0.51352   0.00000  Uiso   1.00
H258   H     0.13292   0.80171   0.42820   0.00000  Uiso   1.00
H259   H     0.75489   0.11975   0.40760   0.00000  Uiso   1.00
H260   H     0.08087   0.52682   0.53498   0.00000  Uiso   1.00
H261   H     0.02719   0.24704   0.27408   0.00000  Uiso   1.00
H262   H     0.09629   0.08504   0.25505   0.00000  Uiso   1.00
H263   H     0.91700   0.23585   0.24528   0.00000  Uiso   1.00
H264   H     0.07159   0.42889   0.30569   0.00000  Uiso   1.00
H265   H     0.16761   0.89176   0.25951   0.00000  Uiso   1.00
H266   H     0.78958   0.20980   0.23892   0.00000  Uiso   1.00
H267   H     0.11556   0.61686   0.36630   0.00000  Uiso   1.00
O268   O     0.19497   0.73825   0.33488   0.00000  Uiso   1.00
O269   O     0.69901   0.15552   0.30787   0.00000  Uiso   1.00
O270   O     0.12669   0.68958   0.47499   0.00000  Uiso   1.00
N271   N     0.13161   0.84515   0.39111   0.00000  Uiso   1.00
N272   N     0.77818   0.14248   0.37186   0.00000  Uiso   1.00
N273   N     0.08293   0.52307   0.49094   0.00000  Uiso   1.00
N274   N     0.15028   0.89360   0.30034   0.00000  Uiso   1.00
N275   N     0.79684   0.19093   0.28109   0.00000  Uiso   1.00
N276   N     0.10160   0.57152   0.40017   0.00000  Uiso   1.00
C277   C     0.49954   0.42799   0.42366   0.00000  Uiso   1.00
C278   C     0.45810   0.50406   0.39197   0.00000  Uiso   1.00
C279   C     0.43218   0.59497   0.41591   0.00000  Uiso   1.00
C280   C     0.39563   0.65398   0.37974   0.00000  Uiso   1.00
C281   C     0.33287   0.77683   0.33935   0.00000  Uiso   1.00
C282   C     0.55602   0.42359   0.38655   0.00000  Uiso   1.00
C283   C     0.61242   0.44682   0.40594   0.00000  Uiso   1.00
C284   C     0.65830   0.43806   0.36521   0.00000  Uiso   1.00
C285   C     0.74757   0.43589   0.31642   0.00000  Uiso   1.00
C286   C     0.47160   0.31735   0.41926   0.00000  Uiso   1.00
C287   C     0.45705   0.25124   0.46616   0.00000  Uiso   1.00
C288   C     0.43187   0.15303   0.45297   0.00000  Uiso   1.00
C289   C     0.39007   0.98592   0.45497   0.00000  Uiso   1.00
C290   C     0.48072   0.37111   0.31685   0.00000  Uiso   1.00
C291   C     0.44789   0.47317   0.33395   0.00000  Uiso   1.00
C292   C     0.41137   0.53205   0.29774   0.00000  Uiso   1.00
C293   C     0.38539   0.62303   0.32163   0.00000  Uiso   1.00
C294   C     0.54580   0.39269   0.32854   0.00000  Uiso   1.00
C295   C     0.59161   0.38389   0.28777   0.00000  Uiso   1.00
C296   C     0.64807   0.40711   0.30709   0.00000  Uiso   1.00
C297   C     0.46139   0.28646   0.36125   0.00000  Uiso   1.00
C298   C     0.43623   0.18832   0.34799   0.00000  Uiso   1.00
C299   C     0.42164   0.12208   0.39486   0.00000  Uiso   1.00
H300   H     0.50749   0.45204   0.46882   0.00000  Uiso   1.00
H301   H     0.44010   0.61886   0.46080   0.00000  Uiso   1.00
H302   H     0.62032   0.47071   0.45083   0.00000  Uiso   1.00
H303   H     0.46496   0.27518   0.51104   0.00000  Uiso   1.00
H304   H     0.36089   0.79021   0.42633   0.00000  Uiso   1.00
H305   H     0.74089   0.47779   0.40531   0.00000  Uiso   1.00
H306   H     0.41330   0.06546   0.53228   0.00000  Uiso   1.00
H307   H     0.47277   0.34706   0.27168   0.00000  Uiso   1.00
H308   H     0.40347   0.50812   0.25285   0.00000  Uiso   1.00
H309   H     0.58369   0.35998   0.24288   0.00000  Uiso   1.00
H310   H     0.42833   0.16444   0.30309   0.00000  Uiso   1.00
H311   H     0.33116   0.70033   0.25754   0.00000  Uiso   1.00
H312   H     0.71116   0.38791   0.23653   0.00000  Uiso   1.00
H313   H     0.38357   0.97559   0.36349   0.00000  Uiso   1.00
O314   O     0.30108   0.85314   0.33309   0.00000  Uiso   1.00
O315   O     0.79962   0.44324   0.30553   0.00000  Uiso   1.00
O316   O     0.36983   0.90228   0.47210   0.00000  Uiso   1.00
N317   N     0.36340   0.74694   0.38919   0.00000  Uiso   1.00
N318   N     0.71867   0.45487   0.36954   0.00000  Uiso   1.00
N319   N     0.41241   0.06936   0.48824   0.00000  Uiso   1.00
N320   N     0.34740   0.69858   0.29837   0.00000  Uiso   1.00
N321   N     0.70267   0.40651   0.27872   0.00000  Uiso   1.00
N322   N     0.39642   0.02100   0.39742   0.00000  Uiso   1.00
C323   C     0.00404   0.66596   0.07404   0.00000  Uiso   1.00
C324   C     0.96208   0.58939   0.10582   0.00000  Uiso   1.00
C325   C     0.93721   0.49802   0.08199   0.00000  Uiso   1.00
C326   C     0.89995   0.43861   0.11823   0.00000  Uiso   1.00
C327   C     0.83665   0.31499   0.15877   0.00000  Uiso   1.00
C328   C     0.05949   0.67132   0.11113   0.00000  Uiso   1.00
C329   C     0.11652   0.64885   0.09176   0.00000  Uiso   1.00
C330   C     0.16126   0.65842   0.13247   0.00000  Uiso   1.00
C331   C     0.24920   0.66207   0.18124   0.00000  Uiso   1.00
C332   C     0.97550   0.77620   0.07831   0.00000  Uiso   1.00
C333   C     0.96191   0.84193   0.03134   0.00000  Uiso   1.00
C334   C     0.93595   0.93982   0.04442   0.00000  Uiso   1.00
C335   C     0.89346   0.10630   0.04223   0.00000  Uiso   1.00
C336   C     0.98209   0.72294   0.18078   0.00000  Uiso   1.00
C337   C     0.95016   0.62035   0.16380   0.00000  Uiso   1.00
C338   C     0.91293   0.56107   0.20009   0.00000  Uiso   1.00
C339   C     0.88801   0.46962   0.17631   0.00000  Uiso   1.00
C340   C     0.04757   0.70227   0.16911   0.00000  Uiso   1.00
C341   C     0.09224   0.71189   0.20986   0.00000  Uiso   1.00
C342   C     0.14932   0.68943   0.19055   0.00000  Uiso   1.00
C343   C     0.96357   0.80715   0.13629   0.00000  Uiso   1.00
C344   C     0.93763   0.90496   0.14944   0.00000  Uiso   1.00
C345   C     0.92400   0.97082   0.10250   0.00000  Uiso   1.00
H346   H     0.01332   0.64186   0.02890   0.00000  Uiso   1.00
H347   H     0.94646   0.47409   0.03712   0.00000  Uiso   1.00
H348   H     0.12574   0.62491   0.04689   0.00000  Uiso   1.00
H349   H     0.97115   0.81795   0.98648   0.00000  Uiso   1.00
H350   H     0.86708   0.30171   0.07180   0.00000  Uiso   1.00
H351   H     0.24511   0.61975   0.09240   0.00000  Uiso   1.00
H352   H     0.91913   0.02682   0.96502   0.00000  Uiso   1.00
H353   H     0.97281   0.74704   0.22592   0.00000  Uiso   1.00
H354   H     0.90371   0.58504   0.24495   0.00000  Uiso   1.00
H355   H     0.08300   0.73585   0.25472   0.00000  Uiso   1.00
H356   H     0.92841   0.92889   0.19431   0.00000  Uiso   1.00
H357   H     0.83239   0.39176   0.24049   0.00000  Uiso   1.00
H358   H     0.21042   0.70980   0.26108   0.00000  Uiso   1.00
H359   H     0.88444   0.11686   0.13370   0.00000  Uiso   1.00
O360   O     0.80503   0.23825   0.16512   0.00000  Uiso   1.00
O361   O     0.30099   0.65552   0.19213   0.00000  Uiso   1.00
O362   O     0.87331   0.18958   0.02501   0.00000  Uiso   1.00
N363   N     0.86839   0.34515   0.10889   0.00000  Uiso   1.00
N364   N     0.22182   0.64248   0.12814   0.00000  Uiso   1.00
N365   N     0.91707   0.02307   0.00906   0.00000  Uiso   1.00
N366   N     0.84972   0.39360   0.19966   0.00000  Uiso   1.00
N367   N     0.20316   0.69093   0.21891   0.00000  Uiso   1.00
N368   N     0.89840   0.07152   0.09983   0.00000  Uiso   1.00
