data_job_04745
_audit_creation_date              2018-12-19
_audit_creation_method            'Materials Studio'
_symmetry_space_group_name_H-M    'P1'
_symmetry_Int_Tables_number       1
_symmetry_cell_setting            triclinic
loop_
_symmetry_equiv_pos_as_xyz
  x,y,z
_cell_length_a                    12.5504
_cell_length_b                    12.5952
_cell_length_c                    15.5631
_cell_angle_alpha                 88.8317
_cell_angle_beta                  71.1471
_cell_angle_gamma                 73.7952
loop_
_atom_site_label
_atom_site_type_symbol
_atom_site_fract_x
_atom_site_fract_y
_atom_site_fract_z
_atom_site_U_iso_or_equiv
_atom_site_adp_type
_atom_site_occupancy
C1     C     0.79193   0.47575   0.15898   0.00000  Uiso   1.00
C2     C     0.76878   0.58576   0.11554   0.00000  Uiso   1.00
C3     C     0.85300   0.62488   0.05237   0.00000  Uiso   1.00
C4     C     0.81408   0.72751   0.02080   0.00000  Uiso   1.00
C5     C     0.79624   0.88904   0.94873   0.00000  Uiso   1.00
C6     C     0.74383   0.50457   0.26161   0.00000  Uiso   1.00
C7     C     0.80708   0.47542   0.32125   0.00000  Uiso   1.00
C8     C     0.74715   0.50970   0.41265   0.00000  Uiso   1.00
C9     C     0.69055   0.54512   0.56736   0.00000  Uiso   1.00
C10    C     0.71317   0.41415   0.13836   0.00000  Uiso   1.00
C11    C     0.75062   0.30895   0.09441   0.00000  Uiso   1.00
C12    C     0.66486   0.26708   0.08206   0.00000  Uiso   1.00
C13    C     0.56065   0.16210   0.04542   0.00000  Uiso   1.00
C14    C     0.57304   0.58844   0.21525   0.00000  Uiso   1.00
C15    C     0.64989   0.64696   0.14610   0.00000  Uiso   1.00
C16    C     0.61083   0.74956   0.11462   0.00000  Uiso   1.00
C17    C     0.69498   0.78883   0.05141   0.00000  Uiso   1.00
C18    C     0.62495   0.56578   0.29217   0.00000  Uiso   1.00
C19    C     0.56491   0.60010   0.38350   0.00000  Uiso   1.00
C20    C     0.62805   0.57102   0.44327   0.00000  Uiso   1.00
C21    C     0.59428   0.47535   0.16892   0.00000  Uiso   1.00
C22    C     0.50845   0.43363   0.15665   0.00000  Uiso   1.00
C23    C     0.54576   0.32840   0.11268   0.00000  Uiso   1.00
H24    H     0.88449   0.42810   0.13520   0.00000  Uiso   1.00
H25    H     0.94500   0.57749   0.02874   0.00000  Uiso   1.00
H26    H     0.89908   0.42805   0.29758   0.00000  Uiso   1.00
H27    H     0.84263   0.26161   0.07077   0.00000  Uiso   1.00
H28    H     0.95967   0.77013   0.92422   0.00000  Uiso   1.00
H29    H     0.86283   0.45499   0.49109   0.00000  Uiso   1.00
H30    H     0.74379   0.10402   0.01281   0.00000  Uiso   1.00
H31    H     0.48048   0.63609   0.23904   0.00000  Uiso   1.00
H32    H     0.51882   0.79691   0.13828   0.00000  Uiso   1.00
H33    H     0.47290   0.64746   0.40713   0.00000  Uiso   1.00
H34    H     0.41645   0.48102   0.18031   0.00000  Uiso   1.00
H35    H     0.61377   0.94822   0.01313   0.00000  Uiso   1.00
H36    H     0.51693   0.63307   0.58000   0.00000  Uiso   1.00
H37    H     0.39789   0.28211   0.10172   0.00000  Uiso   1.00
O38    O     0.81924   0.96123   0.90054   0.00000  Uiso   1.00
O39    O     0.69219   0.54775   0.64426   0.00000  Uiso   1.00
O40    O     0.53601   0.08729   0.01676   0.00000  Uiso   1.00
N41    N     0.87300   0.78997   0.95896   0.00000  Uiso   1.00
N42    N     0.78246   0.49534   0.48895   0.00000  Uiso   1.00
N43    N     0.67117   0.16720   0.04182   0.00000  Uiso   1.00
N44    N     0.68687   0.88580   0.00680   0.00000  Uiso   1.00
N45    N     0.59634   0.59117   0.53679   0.00000  Uiso   1.00
N46    N     0.48504   0.26303   0.08966   0.00000  Uiso   1.00
C47    C     0.87159   0.91656   0.22483   0.00000  Uiso   1.00
C48    C     0.93777   0.79798   0.23474   0.00000  Uiso   1.00
C49    C     0.01862   0.72248   0.16409   0.00000  Uiso   1.00
C50    C     0.06960   0.61811   0.18724   0.00000  Uiso   1.00
C51    C     0.17672   0.43819   0.18884   0.00000  Uiso   1.00
C52    C     0.74129   0.92592   0.26814   0.00000  Uiso   1.00
C53    C     0.65695   0.95803   0.22558   0.00000  Uiso   1.00
C54    C     0.54253   0.96137   0.27685   0.00000  Uiso   1.00
C55    C     0.34461   0.98017   0.33034   0.00000  Uiso   1.00
C56    C     0.89919   0.99073   0.28588   0.00000  Uiso   1.00
C57    C     0.94759   0.07735   0.25823   0.00000  Uiso   1.00
C58    C     0.96608   0.13528   0.32444   0.00000  Uiso   1.00
C59    C     0.01332   0.25470   0.40546   0.00000  Uiso   1.00
C60    C     0.81834   0.86544   0.39159   0.00000  Uiso   1.00
C61    C     0.90884   0.77021   0.32532   0.00000  Uiso   1.00
C62    C     0.95971   0.66592   0.34858   0.00000  Uiso   1.00
C63    C     0.04063   0.59029   0.27797   0.00000  Uiso   1.00
C64    C     0.71237   0.89816   0.35872   0.00000  Uiso   1.00
C65    C     0.59805   0.90146   0.41007   0.00000  Uiso   1.00
C66    C     0.51356   0.93355   0.36759   0.00000  Uiso   1.00
C67    C     0.87027   0.96297   0.37645   0.00000  Uiso   1.00
C68    C     0.88869   0.02078   0.44272   0.00000  Uiso   1.00
C69    C     0.93711   0.10746   0.41518   0.00000  Uiso   1.00
H70    H     0.89409   0.93818   0.15431   0.00000  Uiso   1.00
H71    H     0.04097   0.74400   0.09400   0.00000  Uiso   1.00
H72    H     0.67936   0.97952   0.15549   0.00000  Uiso   1.00
H73    H     0.96996   0.09881   0.18813   0.00000  Uiso   1.00
H74    H     0.19103   0.51646   0.06707   0.00000  Uiso   1.00
H75    H     0.42854   0.01310   0.19673   0.00000  Uiso   1.00
H76    H     0.04132   0.26466   0.26556   0.00000  Uiso   1.00
H77    H     0.79582   0.84382   0.46211   0.00000  Uiso   1.00
H78    H     0.93731   0.64446   0.41868   0.00000  Uiso   1.00
H79    H     0.57570   0.87998   0.48016   0.00000  Uiso   1.00
H80    H     0.86629   0.99927   0.51281   0.00000  Uiso   1.00
H81    H     0.10689   0.43567   0.33059   0.00000  Uiso   1.00
H82    H     0.34440   0.93231   0.46025   0.00000  Uiso   1.00
H83    H     0.95718   0.18387   0.52908   0.00000  Uiso   1.00
O84    O     0.24378   0.34661   0.16471   0.00000  Uiso   1.00
O85    O     0.24343   0.99820   0.33482   0.00000  Uiso   1.00
O86    O     0.04739   0.32824   0.42512   0.00000  Uiso   1.00
N87    N     0.15183   0.52482   0.13505   0.00000  Uiso   1.00
N88    N     0.43895   0.98912   0.25627   0.00000  Uiso   1.00
N89    N     0.01182   0.22433   0.32063   0.00000  Uiso   1.00
N90    N     0.10656   0.48134   0.27685   0.00000  Uiso   1.00
N91    N     0.39368   0.94565   0.39807   0.00000  Uiso   1.00
N92    N     0.96655   0.18086   0.46243   0.00000  Uiso   1.00
C93    C     0.20807   0.52425   0.84102   0.00000  Uiso   1.00
C94    C     0.23122   0.41424   0.88446   0.00000  Uiso   1.00
C95    C     0.14700   0.37512   0.94763   0.00000  Uiso   1.00
C96    C     0.18592   0.27249   0.97920   0.00000  Uiso   1.00
C97    C     0.20376   0.11096   0.05127   0.00000  Uiso   1.00
C98    C     0.25617   0.49543   0.73839   0.00000  Uiso   1.00
C99    C     0.19292   0.52458   0.67875   0.00000  Uiso   1.00
C100   C     0.25285   0.49030   0.58735   0.00000  Uiso   1.00
C101   C     0.30945   0.45488   0.43264   0.00000  Uiso   1.00
C102   C     0.28683   0.58585   0.86164   0.00000  Uiso   1.00
C103   C     0.24938   0.69105   0.90559   0.00000  Uiso   1.00
C104   C     0.33514   0.73292   0.91794   0.00000  Uiso   1.00
C105   C     0.43935   0.83790   0.95458   0.00000  Uiso   1.00
C106   C     0.42696   0.41156   0.78475   0.00000  Uiso   1.00
C107   C     0.35011   0.35304   0.85390   0.00000  Uiso   1.00
C108   C     0.38917   0.25044   0.88538   0.00000  Uiso   1.00
C109   C     0.30502   0.21117   0.94859   0.00000  Uiso   1.00
C110   C     0.37505   0.43422   0.70783   0.00000  Uiso   1.00
C111   C     0.43509   0.39990   0.61650   0.00000  Uiso   1.00
C112   C     0.37195   0.42898   0.55673   0.00000  Uiso   1.00
C113   C     0.40572   0.52465   0.83108   0.00000  Uiso   1.00
C114   C     0.49155   0.56637   0.84335   0.00000  Uiso   1.00
C115   C     0.45424   0.67160   0.88732   0.00000  Uiso   1.00
H116   H     0.11551   0.57190   0.86480   0.00000  Uiso   1.00
H117   H     0.05500   0.42251   0.97126   0.00000  Uiso   1.00
H118   H     0.10092   0.57195   0.70242   0.00000  Uiso   1.00
H119   H     0.15737   0.73839   0.92923   0.00000  Uiso   1.00
H120   H     0.04033   0.22987   0.07578   0.00000  Uiso   1.00
H121   H     0.13717   0.54501   0.50891   0.00000  Uiso   1.00
H122   H     0.25621   0.89598   0.98719   0.00000  Uiso   1.00
H123   H     0.51952   0.36391   0.76096   0.00000  Uiso   1.00
H124   H     0.48118   0.20309   0.86172   0.00000  Uiso   1.00
H125   H     0.52710   0.35254   0.59287   0.00000  Uiso   1.00
H126   H     0.58355   0.51898   0.81969   0.00000  Uiso   1.00
H127   H     0.38623   0.05178   0.98687   0.00000  Uiso   1.00
H128   H     0.48307   0.36693   0.42000   0.00000  Uiso   1.00
H129   H     0.60211   0.71789   0.89828   0.00000  Uiso   1.00
O130   O     0.18076   0.03877   0.09946   0.00000  Uiso   1.00
O131   O     0.30781   0.45225   0.35574   0.00000  Uiso   1.00
O132   O     0.46399   0.91271   0.98324   0.00000  Uiso   1.00
N133   N     0.12700   0.21003   0.04104   0.00000  Uiso   1.00
N134   N     0.21754   0.50466   0.51105   0.00000  Uiso   1.00
N135   N     0.32883   0.83280   0.95818   0.00000  Uiso   1.00
N136   N     0.31313   0.11420   0.99320   0.00000  Uiso   1.00
N137   N     0.40366   0.40883   0.46321   0.00000  Uiso   1.00
N138   N     0.51496   0.73697   0.91034   0.00000  Uiso   1.00
C139   C     0.12841   0.08344   0.77517   0.00000  Uiso   1.00
C140   C     0.06223   0.20202   0.76526   0.00000  Uiso   1.00
C141   C     0.98138   0.27752   0.83591   0.00000  Uiso   1.00
C142   C     0.93040   0.38189   0.81276   0.00000  Uiso   1.00
C143   C     0.82328   0.56181   0.81116   0.00000  Uiso   1.00
C144   C     0.25871   0.07408   0.73186   0.00000  Uiso   1.00
C145   C     0.34305   0.04197   0.77442   0.00000  Uiso   1.00
C146   C     0.45747   0.03863   0.72315   0.00000  Uiso   1.00
C147   C     0.65539   0.01983   0.66966   0.00000  Uiso   1.00
C148   C     0.10081   0.00927   0.71412   0.00000  Uiso   1.00
C149   C     0.05241   0.92265   0.74177   0.00000  Uiso   1.00
C150   C     0.03392   0.86472   0.67556   0.00000  Uiso   1.00
C151   C     0.98668   0.74530   0.59454   0.00000  Uiso   1.00
C152   C     0.18166   0.13456   0.60841   0.00000  Uiso   1.00
C153   C     0.09116   0.22979   0.67468   0.00000  Uiso   1.00
C154   C     0.04029   0.33408   0.65142   0.00000  Uiso   1.00
C155   C     0.95937   0.40971   0.72203   0.00000  Uiso   1.00
C156   C     0.28763   0.10184   0.64128   0.00000  Uiso   1.00
C157   C     0.40195   0.09854   0.58993   0.00000  Uiso   1.00
C158   C     0.48644   0.06645   0.63241   0.00000  Uiso   1.00
C159   C     0.12973   0.03703   0.62355   0.00000  Uiso   1.00
C160   C     0.11131   0.97922   0.55728   0.00000  Uiso   1.00
C161   C     0.06289   0.89254   0.58482   0.00000  Uiso   1.00
H162   H     0.10591   0.06182   0.84569   0.00000  Uiso   1.00
H163   H     0.95903   0.25600   0.90600   0.00000  Uiso   1.00
H164   H     0.32064   0.02048   0.84451   0.00000  Uiso   1.00
H165   H     0.03004   0.90119   0.81187   0.00000  Uiso   1.00
H166   H     0.80897   0.48354   0.93293   0.00000  Uiso   1.00
H167   H     0.57146   0.98690   0.80327   0.00000  Uiso   1.00
H168   H     0.95868   0.73534   0.73444   0.00000  Uiso   1.00
H169   H     0.20418   0.15618   0.53789   0.00000  Uiso   1.00
H170   H     0.06269   0.35554   0.58132   0.00000  Uiso   1.00
H171   H     0.42430   0.12002   0.51984   0.00000  Uiso   1.00
H172   H     0.13371   0.00073   0.48719   0.00000  Uiso   1.00
H173   H     0.89311   0.56433   0.66941   0.00000  Uiso   1.00
H174   H     0.65560   0.06769   0.53975   0.00000  Uiso   1.00
H175   H     0.04282   0.81613   0.47092   0.00000  Uiso   1.00
O176   O     0.75622   0.65339   0.83529   0.00000  Uiso   1.00
O177   O     0.75657   0.00180   0.66518   0.00000  Uiso   1.00
O178   O     0.95261   0.67176   0.57488   0.00000  Uiso   1.00
N179   N     0.84817   0.47518   0.86495   0.00000  Uiso   1.00
N180   N     0.56105   0.01088   0.74373   0.00000  Uiso   1.00
N181   N     0.98818   0.77567   0.67937   0.00000  Uiso   1.00
N182   N     0.89344   0.51866   0.72315   0.00000  Uiso   1.00
N183   N     0.60632   0.05435   0.60193   0.00000  Uiso   1.00
N184   N     0.03345   0.81914   0.53757   0.00000  Uiso   1.00
