data_job_01638
_audit_creation_date              2018-12-19
_audit_creation_method            'Materials Studio'
_symmetry_space_group_name_H-M    'P1'
_symmetry_Int_Tables_number       1
_symmetry_cell_setting            triclinic
loop_
_symmetry_equiv_pos_as_xyz
  x,y,z
_cell_length_a                    19.1783
_cell_length_b                    19.1783
_cell_length_c                    12.7771
_cell_angle_alpha                 90.0000
_cell_angle_beta                  90.0000
_cell_angle_gamma                 90.0000
loop_
_atom_site_label
_atom_site_type_symbol
_atom_site_fract_x
_atom_site_fract_y
_atom_site_fract_z
_atom_site_U_iso_or_equiv
_atom_site_adp_type
_atom_site_occupancy
C1     C     0.74200   0.77712   0.61228   0.00000  Uiso   1.00
C2     C     0.68325   0.80469   0.54332   0.00000  Uiso   1.00
C3     C     0.67967   0.79891   0.43519   0.00000  Uiso   1.00
C4     C     0.62163   0.82756   0.38653   0.00000  Uiso   1.00
C5     C     0.53841   0.86535   0.27071   0.00000  Uiso   1.00
C6     C     0.76886   0.83962   0.67407   0.00000  Uiso   1.00
C7     C     0.83727   0.86320   0.67588   0.00000  Uiso   1.00
C8     C     0.85129   0.92125   0.73731   0.00000  Uiso   1.00
C9     C     0.90100   0.01323   0.82453   0.00000  Uiso   1.00
C10    C     0.70761   0.72898   0.69200   0.00000  Uiso   1.00
C11    C     0.72453   0.65953   0.70891   0.00000  Uiso   1.00
C12    C     0.68699   0.62443   0.78545   0.00000  Uiso   1.00
C13    C     0.64160   0.54462   0.90052   0.00000  Uiso   1.00
C14    C     0.64528   0.83829   0.71816   0.00000  Uiso   1.00
C15    C     0.63072   0.83792   0.60084   0.00000  Uiso   1.00
C16    C     0.57266   0.86658   0.55234   0.00000  Uiso   1.00
C17    C     0.56900   0.86084   0.44415   0.00000  Uiso   1.00
C18    C     0.71633   0.87284   0.73158   0.00000  Uiso   1.00
C19    C     0.73025   0.93087   0.79303   0.00000  Uiso   1.00
C20    C     0.79866   0.95453   0.79492   0.00000  Uiso   1.00
C21    C     0.65507   0.76220   0.74952   0.00000  Uiso   1.00
C22    C     0.61751   0.72720   0.82606   0.00000  Uiso   1.00
C23    C     0.63436   0.65771   0.84307   0.00000  Uiso   1.00
H24    H     0.78291   0.75126   0.56750   0.00000  Uiso   1.00
H25    H     0.72035   0.77320   0.39070   0.00000  Uiso   1.00
H26    H     0.87792   0.83747   0.63137   0.00000  Uiso   1.00
H27    H     0.76519   0.63384   0.66439   0.00000  Uiso   1.00
H28    H     0.62783   0.81220   0.22005   0.00000  Uiso   1.00
H29    H     0.96008   0.94770   0.72753   0.00000  Uiso   1.00
H30    H     0.72237   0.51829   0.79716   0.00000  Uiso   1.00
H31    H     0.60437   0.86416   0.76294   0.00000  Uiso   1.00
H32    H     0.53201   0.89229   0.59687   0.00000  Uiso   1.00
H33    H     0.68959   0.95656   0.83753   0.00000  Uiso   1.00
H34    H     0.57686   0.75293   0.87055   0.00000  Uiso   1.00
H35    H     0.47497   0.90886   0.38738   0.00000  Uiso   1.00
H36    H     0.80722   0.04436   0.89486   0.00000  Uiso   1.00
H37    H     0.56952   0.61496   0.96449   0.00000  Uiso   1.00
O38    O     0.50703   0.87703   0.19093   0.00000  Uiso   1.00
O39    O     0.94293   0.05479   0.85674   0.00000  Uiso   1.00
O40    O     0.63107   0.49141   0.94809   0.00000  Uiso   1.00
N41    N     0.60178   0.83108   0.28223   0.00000  Uiso   1.00
N42    N     0.91241   0.95777   0.75668   0.00000  Uiso   1.00
N43    N     0.69019   0.55631   0.82180   0.00000  Uiso   1.00
N44    N     0.51952   0.88309   0.37226   0.00000  Uiso   1.00
N45    N     0.83016   0.00978   0.84671   0.00000  Uiso   1.00
N46    N     0.60794   0.60833   0.91183   0.00000  Uiso   1.00
C47    C     0.24200   0.27712   0.11228   0.00000  Uiso   1.00
C48    C     0.18325   0.30469   0.04332   0.00000  Uiso   1.00
C49    C     0.17967   0.29891   0.93519   0.00000  Uiso   1.00
C50    C     0.12163   0.32756   0.88653   0.00000  Uiso   1.00
C51    C     0.03841   0.36535   0.77071   0.00000  Uiso   1.00
C52    C     0.26886   0.33962   0.17407   0.00000  Uiso   1.00
C53    C     0.33727   0.36320   0.17588   0.00000  Uiso   1.00
C54    C     0.35129   0.42125   0.23731   0.00000  Uiso   1.00
C55    C     0.40100   0.51323   0.32453   0.00000  Uiso   1.00
C56    C     0.20761   0.22898   0.19200   0.00000  Uiso   1.00
C57    C     0.22453   0.15953   0.20891   0.00000  Uiso   1.00
C58    C     0.18699   0.12443   0.28545   0.00000  Uiso   1.00
C59    C     0.14160   0.04462   0.40052   0.00000  Uiso   1.00
C60    C     0.14528   0.33829   0.21816   0.00000  Uiso   1.00
C61    C     0.13072   0.33792   0.10084   0.00000  Uiso   1.00
C62    C     0.07266   0.36658   0.05234   0.00000  Uiso   1.00
C63    C     0.06900   0.36084   0.94415   0.00000  Uiso   1.00
C64    C     0.21633   0.37284   0.23158   0.00000  Uiso   1.00
C65    C     0.23025   0.43087   0.29303   0.00000  Uiso   1.00
C66    C     0.29866   0.45453   0.29492   0.00000  Uiso   1.00
C67    C     0.15507   0.26220   0.24952   0.00000  Uiso   1.00
C68    C     0.11751   0.22720   0.32606   0.00000  Uiso   1.00
C69    C     0.13436   0.15771   0.34307   0.00000  Uiso   1.00
H70    H     0.28291   0.25126   0.06750   0.00000  Uiso   1.00
H71    H     0.22035   0.27320   0.89070   0.00000  Uiso   1.00
H72    H     0.37792   0.33747   0.13137   0.00000  Uiso   1.00
H73    H     0.26519   0.13384   0.16439   0.00000  Uiso   1.00
H74    H     0.12783   0.31220   0.72005   0.00000  Uiso   1.00
H75    H     0.46008   0.44770   0.22753   0.00000  Uiso   1.00
H76    H     0.22237   0.01829   0.29716   0.00000  Uiso   1.00
H77    H     0.10437   0.36416   0.26294   0.00000  Uiso   1.00
H78    H     0.03201   0.39229   0.09687   0.00000  Uiso   1.00
H79    H     0.18959   0.45656   0.33753   0.00000  Uiso   1.00
H80    H     0.07686   0.25293   0.37055   0.00000  Uiso   1.00
H81    H     0.97497   0.40886   0.88738   0.00000  Uiso   1.00
H82    H     0.30722   0.54436   0.39486   0.00000  Uiso   1.00
H83    H     0.06952   0.11496   0.46449   0.00000  Uiso   1.00
O84    O     0.00703   0.37703   0.69093   0.00000  Uiso   1.00
O85    O     0.44293   0.55479   0.35674   0.00000  Uiso   1.00
O86    O     0.13107   0.99141   0.44809   0.00000  Uiso   1.00
N87    N     0.10178   0.33108   0.78223   0.00000  Uiso   1.00
N88    N     0.41241   0.45777   0.25668   0.00000  Uiso   1.00
N89    N     0.19019   0.05631   0.32180   0.00000  Uiso   1.00
N90    N     0.01952   0.38309   0.87226   0.00000  Uiso   1.00
N91    N     0.33016   0.50978   0.34671   0.00000  Uiso   1.00
N92    N     0.10794   0.10833   0.41183   0.00000  Uiso   1.00
C93    C     0.25800   0.22288   0.61228   0.00000  Uiso   1.00
C94    C     0.31675   0.19531   0.54332   0.00000  Uiso   1.00
C95    C     0.32033   0.20109   0.43519   0.00000  Uiso   1.00
C96    C     0.37837   0.17244   0.38653   0.00000  Uiso   1.00
C97    C     0.46159   0.13465   0.27071   0.00000  Uiso   1.00
C98    C     0.23114   0.16038   0.67407   0.00000  Uiso   1.00
C99    C     0.16273   0.13680   0.67588   0.00000  Uiso   1.00
C100   C     0.14871   0.07875   0.73731   0.00000  Uiso   1.00
C101   C     0.09900   0.98677   0.82453   0.00000  Uiso   1.00
C102   C     0.29239   0.27102   0.69200   0.00000  Uiso   1.00
C103   C     0.27547   0.34047   0.70891   0.00000  Uiso   1.00
C104   C     0.31301   0.37557   0.78545   0.00000  Uiso   1.00
C105   C     0.35840   0.45538   0.90052   0.00000  Uiso   1.00
C106   C     0.35472   0.16171   0.71816   0.00000  Uiso   1.00
C107   C     0.36928   0.16208   0.60084   0.00000  Uiso   1.00
C108   C     0.42734   0.13342   0.55234   0.00000  Uiso   1.00
C109   C     0.43100   0.13916   0.44415   0.00000  Uiso   1.00
C110   C     0.28367   0.12716   0.73158   0.00000  Uiso   1.00
C111   C     0.26975   0.06913   0.79303   0.00000  Uiso   1.00
C112   C     0.20134   0.04547   0.79492   0.00000  Uiso   1.00
C113   C     0.34493   0.23780   0.74952   0.00000  Uiso   1.00
C114   C     0.38249   0.27280   0.82606   0.00000  Uiso   1.00
C115   C     0.36564   0.34229   0.84307   0.00000  Uiso   1.00
H116   H     0.21709   0.24874   0.56750   0.00000  Uiso   1.00
H117   H     0.27965   0.22680   0.39070   0.00000  Uiso   1.00
H118   H     0.12208   0.16253   0.63137   0.00000  Uiso   1.00
H119   H     0.23481   0.36616   0.66439   0.00000  Uiso   1.00
H120   H     0.37217   0.18780   0.22005   0.00000  Uiso   1.00
H121   H     0.03992   0.05230   0.72753   0.00000  Uiso   1.00
H122   H     0.27763   0.48171   0.79716   0.00000  Uiso   1.00
H123   H     0.39563   0.13584   0.76294   0.00000  Uiso   1.00
H124   H     0.46799   0.10771   0.59687   0.00000  Uiso   1.00
H125   H     0.31041   0.04344   0.83753   0.00000  Uiso   1.00
H126   H     0.42314   0.24707   0.87055   0.00000  Uiso   1.00
H127   H     0.52503   0.09114   0.38738   0.00000  Uiso   1.00
H128   H     0.19278   0.95564   0.89486   0.00000  Uiso   1.00
H129   H     0.43048   0.38504   0.96449   0.00000  Uiso   1.00
O130   O     0.49297   0.12297   0.19093   0.00000  Uiso   1.00
O131   O     0.05707   0.94521   0.85674   0.00000  Uiso   1.00
O132   O     0.36893   0.50859   0.94809   0.00000  Uiso   1.00
N133   N     0.39822   0.16892   0.28223   0.00000  Uiso   1.00
N134   N     0.08759   0.04223   0.75668   0.00000  Uiso   1.00
N135   N     0.30981   0.44369   0.82180   0.00000  Uiso   1.00
N136   N     0.48048   0.11691   0.37226   0.00000  Uiso   1.00
N137   N     0.16984   0.99022   0.84671   0.00000  Uiso   1.00
N138   N     0.39206   0.39167   0.91183   0.00000  Uiso   1.00
C139   C     0.75800   0.72288   0.11228   0.00000  Uiso   1.00
C140   C     0.81675   0.69531   0.04332   0.00000  Uiso   1.00
C141   C     0.82033   0.70109   0.93519   0.00000  Uiso   1.00
C142   C     0.87837   0.67244   0.88653   0.00000  Uiso   1.00
C143   C     0.96159   0.63465   0.77071   0.00000  Uiso   1.00
C144   C     0.73114   0.66038   0.17407   0.00000  Uiso   1.00
C145   C     0.66273   0.63680   0.17588   0.00000  Uiso   1.00
C146   C     0.64871   0.57875   0.23731   0.00000  Uiso   1.00
C147   C     0.59900   0.48677   0.32453   0.00000  Uiso   1.00
C148   C     0.79239   0.77102   0.19200   0.00000  Uiso   1.00
C149   C     0.77547   0.84047   0.20891   0.00000  Uiso   1.00
C150   C     0.81301   0.87557   0.28545   0.00000  Uiso   1.00
C151   C     0.85840   0.95538   0.40052   0.00000  Uiso   1.00
C152   C     0.85472   0.66171   0.21816   0.00000  Uiso   1.00
C153   C     0.86928   0.66208   0.10084   0.00000  Uiso   1.00
C154   C     0.92734   0.63342   0.05234   0.00000  Uiso   1.00
C155   C     0.93100   0.63916   0.94415   0.00000  Uiso   1.00
C156   C     0.78367   0.62716   0.23158   0.00000  Uiso   1.00
C157   C     0.76975   0.56913   0.29303   0.00000  Uiso   1.00
C158   C     0.70134   0.54547   0.29492   0.00000  Uiso   1.00
C159   C     0.84493   0.73780   0.24952   0.00000  Uiso   1.00
C160   C     0.88249   0.77280   0.32606   0.00000  Uiso   1.00
C161   C     0.86564   0.84229   0.34307   0.00000  Uiso   1.00
H162   H     0.71709   0.74874   0.06750   0.00000  Uiso   1.00
H163   H     0.77965   0.72680   0.89070   0.00000  Uiso   1.00
H164   H     0.62208   0.66253   0.13137   0.00000  Uiso   1.00
H165   H     0.73481   0.86616   0.16439   0.00000  Uiso   1.00
H166   H     0.87217   0.68780   0.72005   0.00000  Uiso   1.00
H167   H     0.53992   0.55230   0.22753   0.00000  Uiso   1.00
H168   H     0.77763   0.98171   0.29716   0.00000  Uiso   1.00
H169   H     0.89563   0.63584   0.26294   0.00000  Uiso   1.00
H170   H     0.96799   0.60771   0.09687   0.00000  Uiso   1.00
H171   H     0.81041   0.54344   0.33753   0.00000  Uiso   1.00
H172   H     0.92314   0.74707   0.37055   0.00000  Uiso   1.00
H173   H     0.02503   0.59114   0.88738   0.00000  Uiso   1.00
H174   H     0.69278   0.45564   0.39486   0.00000  Uiso   1.00
H175   H     0.93048   0.88504   0.46449   0.00000  Uiso   1.00
O176   O     0.99297   0.62297   0.69093   0.00000  Uiso   1.00
O177   O     0.55707   0.44521   0.35674   0.00000  Uiso   1.00
O178   O     0.86893   0.00859   0.44809   0.00000  Uiso   1.00
N179   N     0.89822   0.66892   0.78223   0.00000  Uiso   1.00
N180   N     0.58759   0.54223   0.25668   0.00000  Uiso   1.00
N181   N     0.80981   0.94369   0.32180   0.00000  Uiso   1.00
N182   N     0.98048   0.61691   0.87226   0.00000  Uiso   1.00
N183   N     0.66984   0.49022   0.34671   0.00000  Uiso   1.00
N184   N     0.89206   0.89167   0.41183   0.00000  Uiso   1.00
C185   C     0.77712   0.25800   0.38772   0.00000  Uiso   1.00
C186   C     0.80469   0.31675   0.45668   0.00000  Uiso   1.00
C187   C     0.79891   0.32033   0.56481   0.00000  Uiso   1.00
C188   C     0.82756   0.37837   0.61347   0.00000  Uiso   1.00
C189   C     0.86535   0.46159   0.72929   0.00000  Uiso   1.00
C190   C     0.83962   0.23114   0.32593   0.00000  Uiso   1.00
C191   C     0.86320   0.16273   0.32412   0.00000  Uiso   1.00
C192   C     0.92125   0.14871   0.26269   0.00000  Uiso   1.00
C193   C     0.01323   0.09900   0.17547   0.00000  Uiso   1.00
C194   C     0.72898   0.29239   0.30800   0.00000  Uiso   1.00
C195   C     0.65953   0.27547   0.29109   0.00000  Uiso   1.00
C196   C     0.62443   0.31301   0.21455   0.00000  Uiso   1.00
C197   C     0.54462   0.35840   0.09948   0.00000  Uiso   1.00
C198   C     0.83829   0.35472   0.28184   0.00000  Uiso   1.00
C199   C     0.83792   0.36928   0.39916   0.00000  Uiso   1.00
C200   C     0.86658   0.42734   0.44766   0.00000  Uiso   1.00
C201   C     0.86084   0.43100   0.55585   0.00000  Uiso   1.00
C202   C     0.87284   0.28367   0.26842   0.00000  Uiso   1.00
C203   C     0.93087   0.26975   0.20697   0.00000  Uiso   1.00
C204   C     0.95453   0.20134   0.20508   0.00000  Uiso   1.00
C205   C     0.76220   0.34493   0.25048   0.00000  Uiso   1.00
C206   C     0.72720   0.38249   0.17394   0.00000  Uiso   1.00
C207   C     0.65771   0.36564   0.15693   0.00000  Uiso   1.00
H208   H     0.75126   0.21709   0.43250   0.00000  Uiso   1.00
H209   H     0.77320   0.27965   0.60930   0.00000  Uiso   1.00
H210   H     0.83747   0.12208   0.36863   0.00000  Uiso   1.00
H211   H     0.63384   0.23481   0.33561   0.00000  Uiso   1.00
H212   H     0.81220   0.37217   0.77995   0.00000  Uiso   1.00
H213   H     0.94770   0.03992   0.27247   0.00000  Uiso   1.00
H214   H     0.51829   0.27763   0.20284   0.00000  Uiso   1.00
H215   H     0.86416   0.39563   0.23706   0.00000  Uiso   1.00
H216   H     0.89229   0.46799   0.40313   0.00000  Uiso   1.00
H217   H     0.95656   0.31041   0.16247   0.00000  Uiso   1.00
H218   H     0.75293   0.42314   0.12945   0.00000  Uiso   1.00
H219   H     0.90886   0.52503   0.61262   0.00000  Uiso   1.00
H220   H     0.04436   0.19278   0.10514   0.00000  Uiso   1.00
H221   H     0.61496   0.43048   0.03551   0.00000  Uiso   1.00
O222   O     0.87703   0.49297   0.80907   0.00000  Uiso   1.00
O223   O     0.05479   0.05707   0.14326   0.00000  Uiso   1.00
O224   O     0.49141   0.36893   0.05191   0.00000  Uiso   1.00
N225   N     0.83108   0.39822   0.71777   0.00000  Uiso   1.00
N226   N     0.95777   0.08759   0.24332   0.00000  Uiso   1.00
N227   N     0.55631   0.30981   0.17820   0.00000  Uiso   1.00
N228   N     0.88309   0.48048   0.62774   0.00000  Uiso   1.00
N229   N     0.00978   0.16984   0.15329   0.00000  Uiso   1.00
N230   N     0.60833   0.39206   0.08817   0.00000  Uiso   1.00
C231   C     0.27712   0.75800   0.88772   0.00000  Uiso   1.00
C232   C     0.30469   0.81675   0.95668   0.00000  Uiso   1.00
C233   C     0.29891   0.82033   0.06481   0.00000  Uiso   1.00
C234   C     0.32756   0.87837   0.11347   0.00000  Uiso   1.00
C235   C     0.36535   0.96159   0.22929   0.00000  Uiso   1.00
C236   C     0.33962   0.73114   0.82593   0.00000  Uiso   1.00
C237   C     0.36320   0.66273   0.82412   0.00000  Uiso   1.00
C238   C     0.42125   0.64871   0.76269   0.00000  Uiso   1.00
C239   C     0.51323   0.59900   0.67547   0.00000  Uiso   1.00
C240   C     0.22898   0.79239   0.80800   0.00000  Uiso   1.00
C241   C     0.15953   0.77547   0.79109   0.00000  Uiso   1.00
C242   C     0.12443   0.81301   0.71455   0.00000  Uiso   1.00
C243   C     0.04462   0.85840   0.59948   0.00000  Uiso   1.00
C244   C     0.33829   0.85472   0.78184   0.00000  Uiso   1.00
C245   C     0.33792   0.86928   0.89916   0.00000  Uiso   1.00
C246   C     0.36658   0.92734   0.94766   0.00000  Uiso   1.00
C247   C     0.36084   0.93100   0.05585   0.00000  Uiso   1.00
C248   C     0.37284   0.78367   0.76842   0.00000  Uiso   1.00
C249   C     0.43087   0.76975   0.70697   0.00000  Uiso   1.00
C250   C     0.45453   0.70134   0.70508   0.00000  Uiso   1.00
C251   C     0.26220   0.84493   0.75048   0.00000  Uiso   1.00
C252   C     0.22720   0.88249   0.67394   0.00000  Uiso   1.00
C253   C     0.15771   0.86564   0.65693   0.00000  Uiso   1.00
H254   H     0.25126   0.71709   0.93250   0.00000  Uiso   1.00
H255   H     0.27320   0.77965   0.10930   0.00000  Uiso   1.00
H256   H     0.33747   0.62208   0.86863   0.00000  Uiso   1.00
H257   H     0.13384   0.73481   0.83561   0.00000  Uiso   1.00
H258   H     0.31220   0.87217   0.27995   0.00000  Uiso   1.00
H259   H     0.44770   0.53992   0.77247   0.00000  Uiso   1.00
H260   H     0.01829   0.77763   0.70284   0.00000  Uiso   1.00
H261   H     0.36416   0.89563   0.73706   0.00000  Uiso   1.00
H262   H     0.39229   0.96799   0.90313   0.00000  Uiso   1.00
H263   H     0.45656   0.81041   0.66247   0.00000  Uiso   1.00
H264   H     0.25293   0.92314   0.62945   0.00000  Uiso   1.00
H265   H     0.40886   0.02503   0.11262   0.00000  Uiso   1.00
H266   H     0.54436   0.69278   0.60514   0.00000  Uiso   1.00
H267   H     0.11496   0.93048   0.53551   0.00000  Uiso   1.00
O268   O     0.37703   0.99297   0.30907   0.00000  Uiso   1.00
O269   O     0.55479   0.55707   0.64326   0.00000  Uiso   1.00
O270   O     0.99141   0.86893   0.55191   0.00000  Uiso   1.00
N271   N     0.33108   0.89822   0.21777   0.00000  Uiso   1.00
N272   N     0.45777   0.58759   0.74332   0.00000  Uiso   1.00
N273   N     0.05631   0.80981   0.67820   0.00000  Uiso   1.00
N274   N     0.38309   0.98048   0.12774   0.00000  Uiso   1.00
N275   N     0.50978   0.66984   0.65329   0.00000  Uiso   1.00
N276   N     0.10833   0.89206   0.58817   0.00000  Uiso   1.00
C277   C     0.22288   0.74200   0.38772   0.00000  Uiso   1.00
C278   C     0.19531   0.68325   0.45668   0.00000  Uiso   1.00
C279   C     0.20109   0.67967   0.56481   0.00000  Uiso   1.00
C280   C     0.17244   0.62163   0.61347   0.00000  Uiso   1.00
C281   C     0.13465   0.53841   0.72929   0.00000  Uiso   1.00
C282   C     0.16038   0.76886   0.32593   0.00000  Uiso   1.00
C283   C     0.13680   0.83727   0.32412   0.00000  Uiso   1.00
C284   C     0.07875   0.85129   0.26269   0.00000  Uiso   1.00
C285   C     0.98677   0.90100   0.17547   0.00000  Uiso   1.00
C286   C     0.27102   0.70761   0.30800   0.00000  Uiso   1.00
C287   C     0.34047   0.72453   0.29109   0.00000  Uiso   1.00
C288   C     0.37557   0.68699   0.21455   0.00000  Uiso   1.00
C289   C     0.45538   0.64160   0.09948   0.00000  Uiso   1.00
C290   C     0.16171   0.64528   0.28184   0.00000  Uiso   1.00
C291   C     0.16208   0.63072   0.39916   0.00000  Uiso   1.00
C292   C     0.13342   0.57266   0.44766   0.00000  Uiso   1.00
C293   C     0.13916   0.56900   0.55585   0.00000  Uiso   1.00
C294   C     0.12716   0.71633   0.26842   0.00000  Uiso   1.00
C295   C     0.06913   0.73025   0.20697   0.00000  Uiso   1.00
C296   C     0.04547   0.79866   0.20508   0.00000  Uiso   1.00
C297   C     0.23780   0.65507   0.25048   0.00000  Uiso   1.00
C298   C     0.27280   0.61751   0.17394   0.00000  Uiso   1.00
C299   C     0.34229   0.63436   0.15693   0.00000  Uiso   1.00
H300   H     0.24874   0.78291   0.43250   0.00000  Uiso   1.00
H301   H     0.22680   0.72035   0.60930   0.00000  Uiso   1.00
H302   H     0.16253   0.87792   0.36863   0.00000  Uiso   1.00
H303   H     0.36616   0.76519   0.33561   0.00000  Uiso   1.00
H304   H     0.18780   0.62783   0.77995   0.00000  Uiso   1.00
H305   H     0.05230   0.96008   0.27247   0.00000  Uiso   1.00
H306   H     0.48171   0.72237   0.20284   0.00000  Uiso   1.00
H307   H     0.13584   0.60437   0.23706   0.00000  Uiso   1.00
H308   H     0.10771   0.53201   0.40313   0.00000  Uiso   1.00
H309   H     0.04344   0.68959   0.16247   0.00000  Uiso   1.00
H310   H     0.24707   0.57686   0.12945   0.00000  Uiso   1.00
H311   H     0.09114   0.47497   0.61262   0.00000  Uiso   1.00
H312   H     0.95564   0.80722   0.10514   0.00000  Uiso   1.00
H313   H     0.38504   0.56952   0.03551   0.00000  Uiso   1.00
O314   O     0.12297   0.50703   0.80907   0.00000  Uiso   1.00
O315   O     0.94521   0.94293   0.14326   0.00000  Uiso   1.00
O316   O     0.50859   0.63107   0.05191   0.00000  Uiso   1.00
N317   N     0.16892   0.60178   0.71777   0.00000  Uiso   1.00
N318   N     0.04223   0.91241   0.24332   0.00000  Uiso   1.00
N319   N     0.44369   0.69019   0.17820   0.00000  Uiso   1.00
N320   N     0.11691   0.51952   0.62774   0.00000  Uiso   1.00
N321   N     0.99022   0.83016   0.15329   0.00000  Uiso   1.00
N322   N     0.39167   0.60794   0.08817   0.00000  Uiso   1.00
C323   C     0.72288   0.24200   0.88772   0.00000  Uiso   1.00
C324   C     0.69531   0.18325   0.95668   0.00000  Uiso   1.00
C325   C     0.70109   0.17967   0.06481   0.00000  Uiso   1.00
C326   C     0.67244   0.12163   0.11347   0.00000  Uiso   1.00
C327   C     0.63465   0.03841   0.22929   0.00000  Uiso   1.00
C328   C     0.66038   0.26886   0.82593   0.00000  Uiso   1.00
C329   C     0.63680   0.33727   0.82412   0.00000  Uiso   1.00
C330   C     0.57875   0.35129   0.76269   0.00000  Uiso   1.00
C331   C     0.48677   0.40100   0.67547   0.00000  Uiso   1.00
C332   C     0.77102   0.20761   0.80800   0.00000  Uiso   1.00
C333   C     0.84047   0.22453   0.79109   0.00000  Uiso   1.00
C334   C     0.87557   0.18699   0.71455   0.00000  Uiso   1.00
C335   C     0.95538   0.14160   0.59948   0.00000  Uiso   1.00
C336   C     0.66171   0.14528   0.78184   0.00000  Uiso   1.00
C337   C     0.66208   0.13072   0.89916   0.00000  Uiso   1.00
C338   C     0.63342   0.07266   0.94766   0.00000  Uiso   1.00
C339   C     0.63916   0.06900   0.05585   0.00000  Uiso   1.00
C340   C     0.62716   0.21633   0.76842   0.00000  Uiso   1.00
C341   C     0.56913   0.23025   0.70697   0.00000  Uiso   1.00
C342   C     0.54547   0.29866   0.70508   0.00000  Uiso   1.00
C343   C     0.73780   0.15507   0.75048   0.00000  Uiso   1.00
C344   C     0.77280   0.11751   0.67394   0.00000  Uiso   1.00
C345   C     0.84229   0.13436   0.65693   0.00000  Uiso   1.00
H346   H     0.74874   0.28291   0.93250   0.00000  Uiso   1.00
H347   H     0.72680   0.22035   0.10930   0.00000  Uiso   1.00
H348   H     0.66253   0.37792   0.86863   0.00000  Uiso   1.00
H349   H     0.86616   0.26519   0.83561   0.00000  Uiso   1.00
H350   H     0.68780   0.12783   0.27995   0.00000  Uiso   1.00
H351   H     0.55230   0.46008   0.77247   0.00000  Uiso   1.00
H352   H     0.98171   0.22237   0.70284   0.00000  Uiso   1.00
H353   H     0.63584   0.10437   0.73706   0.00000  Uiso   1.00
H354   H     0.60771   0.03201   0.90313   0.00000  Uiso   1.00
H355   H     0.54344   0.18959   0.66247   0.00000  Uiso   1.00
H356   H     0.74707   0.07686   0.62945   0.00000  Uiso   1.00
H357   H     0.59114   0.97497   0.11262   0.00000  Uiso   1.00
H358   H     0.45564   0.30722   0.60514   0.00000  Uiso   1.00
H359   H     0.88504   0.06952   0.53551   0.00000  Uiso   1.00
O360   O     0.62297   0.00703   0.30907   0.00000  Uiso   1.00
O361   O     0.44521   0.44293   0.64326   0.00000  Uiso   1.00
O362   O     0.00859   0.13107   0.55191   0.00000  Uiso   1.00
N363   N     0.66892   0.10178   0.21777   0.00000  Uiso   1.00
N364   N     0.54223   0.41241   0.74332   0.00000  Uiso   1.00
N365   N     0.94369   0.19019   0.67820   0.00000  Uiso   1.00
N366   N     0.61691   0.01952   0.12774   0.00000  Uiso   1.00
N367   N     0.49022   0.33016   0.65329   0.00000  Uiso   1.00
N368   N     0.89167   0.10794   0.58817   0.00000  Uiso   1.00
