data_job_07053
_audit_creation_date              2018-12-19
_audit_creation_method            'Materials Studio'
_symmetry_space_group_name_H-M    'P1'
_symmetry_Int_Tables_number       1
_symmetry_cell_setting            triclinic
loop_
_symmetry_equiv_pos_as_xyz
  x,y,z
_cell_length_a                    23.6861
_cell_length_b                    18.9853
_cell_length_c                    20.1500
_cell_angle_alpha                 86.3547
_cell_angle_beta                  77.0447
_cell_angle_gamma                 78.1312
loop_
_atom_site_label
_atom_site_type_symbol
_atom_site_fract_x
_atom_site_fract_y
_atom_site_fract_z
_atom_site_U_iso_or_equiv
_atom_site_adp_type
_atom_site_occupancy
C1     C     0.08064   0.90528   0.61633   0.00000  Uiso   1.00
C2     C     0.02635   0.93394   0.58658   0.00000  Uiso   1.00
C3     C     0.01639   0.99783   0.54968   0.00000  Uiso   1.00
C4     C     0.96399   0.01450   0.52686   0.00000  Uiso   1.00
C5     C     0.88591   0.06595   0.47862   0.00000  Uiso   1.00
C6     C     0.05749   0.89393   0.69238   0.00000  Uiso   1.00
C7     C     0.07372   0.92417   0.74445   0.00000  Uiso   1.00
C8     C     0.04754   0.90716   0.81070   0.00000  Uiso   1.00
C9     C     0.01784   0.89645   0.92673   0.00000  Uiso   1.00
C10    C     0.10644   0.83042   0.58724   0.00000  Uiso   1.00
C11    C     0.16383   0.80725   0.55091   0.00000  Uiso   1.00
C12    C     0.17887   0.73675   0.52866   0.00000  Uiso   1.00
C13    C     0.22516   0.62744   0.48143   0.00000  Uiso   1.00
C14    C     0.00530   0.82128   0.64143   0.00000  Uiso   1.00
C15    C     0.98543   0.88831   0.60021   0.00000  Uiso   1.00
C16    C     0.93303   0.90489   0.57745   0.00000  Uiso   1.00
C17    C     0.92300   0.96879   0.54052   0.00000  Uiso   1.00
C18    C     0.01657   0.84831   0.70602   0.00000  Uiso   1.00
C19    C     0.99036   0.83123   0.77222   0.00000  Uiso   1.00
C20    C     0.00655   0.86145   0.82436   0.00000  Uiso   1.00
C21    C     0.06552   0.78479   0.60087   0.00000  Uiso   1.00
C22    C     0.08047   0.71431   0.57868   0.00000  Uiso   1.00
C23    C     0.13787   0.69104   0.54232   0.00000  Uiso   1.00
H24    H     0.11250   0.94081   0.60572   0.00000  Uiso   1.00
H25    H     0.04807   0.03313   0.53914   0.00000  Uiso   1.00
H26    H     0.10540   0.95948   0.73388   0.00000  Uiso   1.00
H27    H     0.19549   0.84257   0.54037   0.00000  Uiso   1.00
H28    H     0.95858   0.11537   0.47136   0.00000  Uiso   1.00
H29    H     0.07947   0.96006   0.88198   0.00000  Uiso   1.00
H30    H     0.26945   0.71355   0.47393   0.00000  Uiso   1.00
H31    H     0.97343   0.78576   0.65205   0.00000  Uiso   1.00
H32    H     0.90137   0.86957   0.58801   0.00000  Uiso   1.00
H33    H     0.95870   0.79592   0.78275   0.00000  Uiso   1.00
H34    H     0.04879   0.67902   0.58924   0.00000  Uiso   1.00
H35    H     0.83951   0.98262   0.51102   0.00000  Uiso   1.00
H36    H     0.96041   0.82731   0.92164   0.00000  Uiso   1.00
H37    H     0.15038   0.58080   0.51359   0.00000  Uiso   1.00
O38    O     0.85414   0.10694   0.44825   0.00000  Uiso   1.00
O39    O     0.01276   0.90316   0.98696   0.00000  Uiso   1.00
O40    O     0.26200   0.57975   0.45161   0.00000  Uiso   1.00
N41    N     0.94045   0.07262   0.48947   0.00000  Uiso   1.00
N42    N     0.05347   0.92742   0.87337   0.00000  Uiso   1.00
N43    N     0.23109   0.69695   0.49190   0.00000  Uiso   1.00
N44    N     0.87638   0.00119   0.51081   0.00000  Uiso   1.00
N45    N     0.98940   0.85599   0.89471   0.00000  Uiso   1.00
N46    N     0.16702   0.62552   0.51324   0.00000  Uiso   1.00
C47    C     0.79949   0.12360   0.82424   0.00000  Uiso   1.00
C48    C     0.79360   0.04581   0.84216   0.00000  Uiso   1.00
C49    C     0.76546   0.02103   0.90460   0.00000  Uiso   1.00
C50    C     0.76485   0.94792   0.91082   0.00000  Uiso   1.00
C51    C     0.75168   0.83422   0.94692   0.00000  Uiso   1.00
C52    C     0.86551   0.12224   0.80031   0.00000  Uiso   1.00
C53    C     0.89783   0.16174   0.82754   0.00000  Uiso   1.00
C54    C     0.95776   0.15297   0.79851   0.00000  Uiso   1.00
C55    C     0.05623   0.15797   0.76961   0.00000  Uiso   1.00
C56    C     0.77293   0.14396   0.76173   0.00000  Uiso   1.00
C57    C     0.72741   0.20174   0.75652   0.00000  Uiso   1.00
C58    C     0.70940   0.21128   0.69500   0.00000  Uiso   1.00
C59    C     0.66411   0.25000   0.60620   0.00000  Uiso   1.00
C60    C     0.84846   0.03783   0.72426   0.00000  Uiso   1.00
C61    C     0.82020   0.99922   0.78786   0.00000  Uiso   1.00
C62    C     0.81963   0.92613   0.79398   0.00000  Uiso   1.00
C63    C     0.79149   0.90125   0.85641   0.00000  Uiso   1.00
C64    C     0.89211   0.07566   0.74601   0.00000  Uiso   1.00
C65    C     0.95200   0.06684   0.71693   0.00000  Uiso   1.00
C66    C     0.98441   0.10630   0.74411   0.00000  Uiso   1.00
C67    C     0.79952   0.09738   0.70742   0.00000  Uiso   1.00
C68    C     0.78158   0.10683   0.64591   0.00000  Uiso   1.00
C69    C     0.73604   0.16460   0.64060   0.00000  Uiso   1.00
H70    H     0.77879   0.15987   0.86651   0.00000  Uiso   1.00
H71    H     0.74489   0.05710   0.94661   0.00000  Uiso   1.00
H72    H     0.87724   0.19779   0.86956   0.00000  Uiso   1.00
H73    H     0.70684   0.23778   0.79855   0.00000  Uiso   1.00
H74    H     0.71904   0.92261   0.01147   0.00000  Uiso   1.00
H75    H     0.99811   0.21928   0.84899   0.00000  Uiso   1.00
H76    H     0.63880   0.30361   0.69925   0.00000  Uiso   1.00
H77    H     0.86916   0.00156   0.68198   0.00000  Uiso   1.00
H78    H     0.84021   0.89010   0.75195   0.00000  Uiso   1.00
H79    H     0.97257   0.03078   0.67490   0.00000  Uiso   1.00
H80    H     0.80217   0.07077   0.60389   0.00000  Uiso   1.00
H81    H     0.79642   0.78706   0.85348   0.00000  Uiso   1.00
H82    H     0.07549   0.08373   0.69100   0.00000  Uiso   1.00
H83    H     0.71617   0.16806   0.54126   0.00000  Uiso   1.00
O84    O     0.73707   0.78437   0.98184   0.00000  Uiso   1.00
O85    O     0.10320   0.17359   0.76867   0.00000  Uiso   1.00
O86    O     0.63178   0.28423   0.57222   0.00000  Uiso   1.00
N87    N     0.74122   0.90601   0.96468   0.00000  Uiso   1.00
N88    N     0.00213   0.18337   0.81278   0.00000  Uiso   1.00
N89    N     0.66621   0.26222   0.67278   0.00000  Uiso   1.00
N90    N     0.78285   0.83307   0.87967   0.00000  Uiso   1.00
N91    N     0.04376   0.11043   0.72777   0.00000  Uiso   1.00
N92    N     0.70784   0.18928   0.58777   0.00000  Uiso   1.00
C93    C     0.00561   0.63496   0.03630   0.00000  Uiso   1.00
C94    C     0.02856   0.63534   0.95929   0.00000  Uiso   1.00
C95    C     0.08748   0.61941   0.92572   0.00000  Uiso   1.00
C96    C     0.09938   0.62279   0.85504   0.00000  Uiso   1.00
C97    C     0.14192   0.62058   0.74090   0.00000  Uiso   1.00
C98    C     0.96836   0.70974   0.05356   0.00000  Uiso   1.00
C99    C     0.97665   0.75636   0.09926   0.00000  Uiso   1.00
C100   C     0.93785   0.82237   0.10795   0.00000  Uiso   1.00
C101   C     0.88690   0.93565   0.14021   0.00000  Uiso   1.00
C102   C     0.96260   0.58333   0.05094   0.00000  Uiso   1.00
C103   C     0.96604   0.52367   0.09445   0.00000  Uiso   1.00
C104   C     0.92238   0.48326   0.10094   0.00000  Uiso   1.00
C105   C     0.86248   0.40027   0.12913   0.00000  Uiso   1.00
C106   C     0.92196   0.66930   0.97048   0.00000  Uiso   1.00
C107   C     0.98312   0.65399   0.92354   0.00000  Uiso   1.00
C108   C     0.99493   0.65740   0.85289   0.00000  Uiso   1.00
C109   C     0.05386   0.64147   0.81922   0.00000  Uiso   1.00
C110   C     0.92292   0.72840   0.01781   0.00000  Uiso   1.00
C111   C     0.88409   0.79435   0.02644   0.00000  Uiso   1.00
C112   C     0.89233   0.84106   0.07213   0.00000  Uiso   1.00
C113   C     0.91716   0.60198   0.01519   0.00000  Uiso   1.00
C114   C     0.87348   0.56166   0.02162   0.00000  Uiso   1.00
C115   C     0.87686   0.50195   0.06513   0.00000  Uiso   1.00
H116   H     0.04099   0.62044   0.06414   0.00000  Uiso   1.00
H117   H     0.12264   0.60498   0.95341   0.00000  Uiso   1.00
H118   H     0.01182   0.74191   0.12693   0.00000  Uiso   1.00
H119   H     0.00121   0.50926   0.12211   0.00000  Uiso   1.00
H120   H     0.19312   0.59609   0.81487   0.00000  Uiso   1.00
H121   H     0.95944   0.88480   0.18077   0.00000  Uiso   1.00
H122   H     0.93706   0.39421   0.17061   0.00000  Uiso   1.00
H123   H     0.88658   0.68382   0.94264   0.00000  Uiso   1.00
H124   H     0.95975   0.67183   0.82524   0.00000  Uiso   1.00
H125   H     0.84893   0.80876   0.99876   0.00000  Uiso   1.00
H126   H     0.83832   0.57611   0.99394   0.00000  Uiso   1.00
H127   H     0.06092   0.65035   0.71085   0.00000  Uiso   1.00
H128   H     0.82723   0.93906   0.07675   0.00000  Uiso   1.00
H129   H     0.80486   0.44847   0.06659   0.00000  Uiso   1.00
O130   O     0.17795   0.61422   0.68782   0.00000  Uiso   1.00
O131   O     0.87135   0.99298   0.16787   0.00000  Uiso   1.00
O132   O     0.84200   0.34934   0.15455   0.00000  Uiso   1.00
N133   N     0.15197   0.61049   0.80650   0.00000  Uiso   1.00
N134   N     0.93349   0.88042   0.14859   0.00000  Uiso   1.00
N135   N     0.91256   0.42177   0.13910   0.00000  Uiso   1.00
N136   N     0.08083   0.63969   0.75053   0.00000  Uiso   1.00
N137   N     0.86235   0.90962   0.09261   0.00000  Uiso   1.00
N138   N     0.84143   0.45097   0.08313   0.00000  Uiso   1.00
C139   C     0.64818   0.15993   0.40803   0.00000  Uiso   1.00
C140   C     0.60283   0.12394   0.45665   0.00000  Uiso   1.00
C141   C     0.61130   0.08618   0.51604   0.00000  Uiso   1.00
C142   C     0.56438   0.05730   0.55350   0.00000  Uiso   1.00
C143   C     0.50208   0.00013   0.63224   0.00000  Uiso   1.00
C144   C     0.61860   0.23874   0.40235   0.00000  Uiso   1.00
C145   C     0.64035   0.29750   0.41609   0.00000  Uiso   1.00
C146   C     0.60671   0.36526   0.40783   0.00000  Uiso   1.00
C147   C     0.56893   0.48632   0.40222   0.00000  Uiso   1.00
C148   C     0.65567   0.12798   0.33832   0.00000  Uiso   1.00
C149   C     0.70858   0.09363   0.29820   0.00000  Uiso   1.00
C150   C     0.70615   0.06815   0.23602   0.00000  Uiso   1.00
C151   C     0.72592   0.01725   0.13099   0.00000  Uiso   1.00
C152   C     0.54978   0.17577   0.36894   0.00000  Uiso   1.00
C153   C     0.54938   0.13255   0.43541   0.00000  Uiso   1.00
C154   C     0.50243   0.10371   0.47279   0.00000  Uiso   1.00
C155   C     0.51084   0.06591   0.53223   0.00000  Uiso   1.00
C156   C     0.56516   0.24735   0.38112   0.00000  Uiso   1.00
C157   C     0.53148   0.31503   0.37284   0.00000  Uiso   1.00
C158   C     0.55317   0.37388   0.38656   0.00000  Uiso   1.00
C159   C     0.60222   0.13658   0.31708   0.00000  Uiso   1.00
C160   C     0.59971   0.11116   0.25495   0.00000  Uiso   1.00
C161   C     0.65261   0.07677   0.21475   0.00000  Uiso   1.00
H162   H     0.68979   0.15324   0.42456   0.00000  Uiso   1.00
H163   H     0.65267   0.07954   0.53246   0.00000  Uiso   1.00
H164   H     0.68172   0.29083   0.43251   0.00000  Uiso   1.00
H165   H     0.74993   0.08698   0.31465   0.00000  Uiso   1.00
H166   H     0.58793   0.00165   0.64273   0.00000  Uiso   1.00
H167   H     0.64919   0.44716   0.43197   0.00000  Uiso   1.00
H168   H     0.79305   0.01732   0.18342   0.00000  Uiso   1.00
H169   H     0.50817   0.18248   0.35241   0.00000  Uiso   1.00
H170   H     0.46108   0.11038   0.45635   0.00000  Uiso   1.00
H171   H     0.49013   0.32167   0.35641   0.00000  Uiso   1.00
H172   H     0.55835   0.11783   0.23854   0.00000  Uiso   1.00
H173   H     0.43243   0.02668   0.58096   0.00000  Uiso   1.00
H174   H     0.49370   0.47220   0.37019   0.00000  Uiso   1.00
H175   H     0.63755   0.04235   0.12165   0.00000  Uiso   1.00
O176   O     0.48248   0.96623   0.68153   0.00000  Uiso   1.00
O177   O     0.56286   0.55072   0.40500   0.00000  Uiso   1.00
O178   O     0.75158   0.98678   0.07892   0.00000  Uiso   1.00
N179   N     0.55780   0.01742   0.61392   0.00000  Uiso   1.00
N180   N     0.61507   0.43395   0.41688   0.00000  Uiso   1.00
N181   N     0.74957   0.03210   0.18450   0.00000  Uiso   1.00
N182   N     0.47413   0.03089   0.58068   0.00000  Uiso   1.00
N183   N     0.53140   0.44742   0.38364   0.00000  Uiso   1.00
N184   N     0.66589   0.04557   0.15126   0.00000  Uiso   1.00
C185   C     0.28533   0.35080   0.56668   0.00000  Uiso   1.00
C186   C     0.28782   0.36613   0.49098   0.00000  Uiso   1.00
C187   C     0.25106   0.42123   0.46354   0.00000  Uiso   1.00
C188   C     0.26044   0.42624   0.39302   0.00000  Uiso   1.00
C189   C     0.25754   0.45743   0.28179   0.00000  Uiso   1.00
C190   C     0.34680   0.35226   0.57741   0.00000  Uiso   1.00
C191   C     0.35962   0.39569   0.62266   0.00000  Uiso   1.00
C192   C     0.41865   0.38901   0.62490   0.00000  Uiso   1.00
C193   C     0.50731   0.39863   0.64790   0.00000  Uiso   1.00
C194   C     0.27761   0.27294   0.57926   0.00000  Uiso   1.00
C195   C     0.23226   0.24969   0.62607   0.00000  Uiso   1.00
C196   C     0.23305   0.17622   0.62988   0.00000  Uiso   1.00
C197   C     0.21428   0.06269   0.65575   0.00000  Uiso   1.00
C198   C     0.36737   0.26169   0.49023   0.00000  Uiso   1.00
C199   C     0.33238   0.31773   0.44945   0.00000  Uiso   1.00
C200   C     0.34182   0.32265   0.37895   0.00000  Uiso   1.00
C201   C     0.30508   0.37775   0.35142   0.00000  Uiso   1.00
C202   C     0.39135   0.30386   0.53589   0.00000  Uiso   1.00
C203   C     0.45038   0.29711   0.53807   0.00000  Uiso   1.00
C204   C     0.46329   0.34052   0.58330   0.00000  Uiso   1.00
C205   C     0.32216   0.22454   0.53773   0.00000  Uiso   1.00
C206   C     0.32302   0.15110   0.54148   0.00000  Uiso   1.00
C207   C     0.27769   0.12774   0.58828   0.00000  Uiso   1.00
H208   H     0.25065   0.38848   0.59901   0.00000  Uiso   1.00
H209   H     0.21658   0.45868   0.49569   0.00000  Uiso   1.00
H210   H     0.32513   0.43314   0.65479   0.00000  Uiso   1.00
H211   H     0.19779   0.28716   0.65820   0.00000  Uiso   1.00
H212   H     0.19849   0.51519   0.36283   0.00000  Uiso   1.00
H213   H     0.42735   0.46131   0.69831   0.00000  Uiso   1.00
H214   H     0.15883   0.15348   0.70550   0.00000  Uiso   1.00
H215   H     0.40206   0.22401   0.45790   0.00000  Uiso   1.00
H216   H     0.37630   0.28519   0.34683   0.00000  Uiso   1.00
H217   H     0.48485   0.25964   0.50593   0.00000  Uiso   1.00
H218   H     0.35751   0.11366   0.50934   0.00000  Uiso   1.00
H219   H     0.32812   0.37438   0.24201   0.00000  Uiso   1.00
H220   H     0.55698   0.32049   0.57750   0.00000  Uiso   1.00
H221   H     0.28847   0.01266   0.58468   0.00000  Uiso   1.00
O222   O     0.24364   0.48801   0.23190   0.00000  Uiso   1.00
O223   O     0.54390   0.41731   0.67205   0.00000  Uiso   1.00
O224   O     0.19161   0.01345   0.68148   0.00000  Uiso   1.00
N225   N     0.23252   0.47364   0.34964   0.00000  Uiso   1.00
N226   N     0.44650   0.42328   0.66329   0.00000  Uiso   1.00
N227   N     0.19547   0.13548   0.67002   0.00000  Uiso   1.00
N228   N     0.30228   0.39787   0.28463   0.00000  Uiso   1.00
N229   N     0.51625   0.34751   0.59827   0.00000  Uiso   1.00
N230   N     0.26522   0.05971   0.60501   0.00000  Uiso   1.00
C231   C     0.55517   0.54905   0.15581   0.00000  Uiso   1.00
C232   C     0.58623   0.47385   0.17337   0.00000  Uiso   1.00
C233   C     0.64553   0.45349   0.17554   0.00000  Uiso   1.00
C234   C     0.66546   0.38214   0.19269   0.00000  Uiso   1.00
C235   C     0.71948   0.27286   0.21779   0.00000  Uiso   1.00
C236   C     0.50377   0.57121   0.21609   0.00000  Uiso   1.00
C237   C     0.49374   0.63270   0.25417   0.00000  Uiso   1.00
C238   C     0.44425   0.64332   0.30728   0.00000  Uiso   1.00
C239   C     0.37023   0.68521   0.39867   0.00000  Uiso   1.00
C240   C     0.52749   0.54009   0.09622   0.00000  Uiso   1.00
C241   C     0.53738   0.57544   0.03351   0.00000  Uiso   1.00
C242   C     0.50784   0.55988   0.98571   0.00000  Uiso   1.00
C243   C     0.47064   0.55346   0.89098   0.00000  Uiso   1.00
C244   C     0.48512   0.45857   0.18243   0.00000  Uiso   1.00
C245   C     0.54818   0.42471   0.18783   0.00000  Uiso   1.00
C246   C     0.56803   0.35337   0.20499   0.00000  Uiso   1.00
C247   C     0.62735   0.33290   0.20718   0.00000  Uiso   1.00
C248   C     0.46573   0.52206   0.23055   0.00000  Uiso   1.00
C249   C     0.41624   0.53259   0.28362   0.00000  Uiso   1.00
C250   C     0.40614   0.59408   0.32177   0.00000  Uiso   1.00
C251   C     0.48944   0.49095   0.11068   0.00000  Uiso   1.00
C252   C     0.45988   0.47533   0.06297   0.00000  Uiso   1.00
C253   C     0.46973   0.51064   0.00020   0.00000  Uiso   1.00
H254   H     0.58478   0.58732   0.14456   0.00000  Uiso   1.00
H255   H     0.67495   0.49154   0.16435   0.00000  Uiso   1.00
H256   H     0.52318   0.67073   0.24296   0.00000  Uiso   1.00
H257   H     0.56682   0.61347   0.02234   0.00000  Uiso   1.00
H258   H     0.75814   0.36368   0.19269   0.00000  Uiso   1.00
H259   H     0.43812   0.74153   0.35844   0.00000  Uiso   1.00
H260   H     0.53013   0.62080   0.89322   0.00000  Uiso   1.00
H261   H     0.45550   0.42030   0.19369   0.00000  Uiso   1.00
H262   H     0.53858   0.31535   0.21618   0.00000  Uiso   1.00
H263   H     0.38681   0.49455   0.29479   0.00000  Uiso   1.00
H264   H     0.43045   0.43729   0.07417   0.00000  Uiso   1.00
H265   H     0.64746   0.22068   0.23476   0.00000  Uiso   1.00
H266   H     0.32743   0.59853   0.40051   0.00000  Uiso   1.00
H267   H     0.41945   0.47780   0.93529   0.00000  Uiso   1.00
O268   O     0.75978   0.22616   0.22765   0.00000  Uiso   1.00
O269   O     0.33992   0.72189   0.44510   0.00000  Uiso   1.00
O270   O     0.46064   0.56349   0.83474   0.00000  Uiso   1.00
N271   N     0.72069   0.34442   0.19949   0.00000  Uiso   1.00
N272   N     0.42150   0.69768   0.35446   0.00000  Uiso   1.00
N273   N     0.50751   0.58482   0.91953   0.00000  Uiso   1.00
N274   N     0.66114   0.26748   0.22213   0.00000  Uiso   1.00
N275   N     0.36194   0.62074   0.37710   0.00000  Uiso   1.00
N276   N     0.44795   0.50788   0.94216   0.00000  Uiso   1.00
C277   C     0.95442   0.23746   0.26653   0.00000  Uiso   1.00
C278   C     0.00451   0.19016   0.29439   0.00000  Uiso   1.00
C279   C     0.00265   0.12382   0.32706   0.00000  Uiso   1.00
C280   C     0.05307   0.08898   0.34877   0.00000  Uiso   1.00
C281   C     0.12319   0.01090   0.39361   0.00000  Uiso   1.00
C282   C     0.97982   0.25053   0.19132   0.00000  Uiso   1.00
C283   C     0.95720   0.23494   0.13732   0.00000  Uiso   1.00
C284   C     0.98683   0.25093   0.07226   0.00000  Uiso   1.00
C285   C     0.01860   0.26661   0.95708   0.00000  Uiso   1.00
C286   C     0.94254   0.31012   0.30051   0.00000  Uiso   1.00
C287   C     0.88858   0.34466   0.33830   0.00000  Uiso   1.00
C288   C     0.88683   0.41084   0.36516   0.00000  Uiso   1.00
C289   C     0.86071   0.51905   0.41951   0.00000  Uiso   1.00
C290   C     0.04726   0.29356   0.24701   0.00000  Uiso   1.00
C291   C     0.05494   0.22064   0.28379   0.00000  Uiso   1.00
C292   C     0.10537   0.18590   0.30546   0.00000  Uiso   1.00
C293   C     0.10359   0.11951   0.33815   0.00000  Uiso   1.00
C294   C     0.03025   0.28100   0.18071   0.00000  Uiso   1.00
C295   C     0.05992   0.29702   0.11572   0.00000  Uiso   1.00
C296   C     0.03735   0.28146   0.06163   0.00000  Uiso   1.00
C297   C     0.99297   0.34060   0.28991   0.00000  Uiso   1.00
C298   C     0.99130   0.40674   0.31671   0.00000  Uiso   1.00
C299   C     0.93734   0.44137   0.35453   0.00000  Uiso   1.00
H300   H     0.91516   0.21373   0.27478   0.00000  Uiso   1.00
H301   H     0.96362   0.10025   0.33524   0.00000  Uiso   1.00
H302   H     0.91817   0.21137   0.14554   0.00000  Uiso   1.00
H303   H     0.84957   0.32106   0.34649   0.00000  Uiso   1.00
H304   H     0.03960   0.98787   0.39758   0.00000  Uiso   1.00
H305   H     0.94376   0.22218   0.99757   0.00000  Uiso   1.00
H306   H     0.79908   0.45350   0.42132   0.00000  Uiso   1.00
H307   H     0.08652   0.31729   0.23876   0.00000  Uiso   1.00
H308   H     0.14439   0.20949   0.29725   0.00000  Uiso   1.00
H309   H     0.09894   0.32061   0.10754   0.00000  Uiso   1.00
H310   H     0.03033   0.43030   0.30849   0.00000  Uiso   1.00
H311   H     0.18632   0.07653   0.36673   0.00000  Uiso   1.00
H312   H     0.09047   0.31084   0.96673   0.00000  Uiso   1.00
H313   H     0.94580   0.54216   0.39048   0.00000  Uiso   1.00
O314   O     0.14794   0.95941   0.42126   0.00000  Uiso   1.00
O315   O     0.02219   0.26683   0.89647   0.00000  Uiso   1.00
O316   O     0.83238   0.57031   0.45242   0.00000  Uiso   1.00
N317   N     0.06619   0.02353   0.38231   0.00000  Uiso   1.00
N318   N     0.97658   0.24259   0.00832   0.00000  Uiso   1.00
N319   N     0.84132   0.45887   0.40448   0.00000  Uiso   1.00
N320   N     0.14513   0.07124   0.36571   0.00000  Uiso   1.00
N321   N     0.05553   0.29030   0.99173   0.00000  Uiso   1.00
N322   N     0.92027   0.50658   0.38788   0.00000  Uiso   1.00
C323   C     0.58808   0.84851   0.08682   0.00000  Uiso   1.00
C324   C     0.57705   0.92157   0.05085   0.00000  Uiso   1.00
C325   C     0.60005   0.93633   0.98298   0.00000  Uiso   1.00
C326   C     0.58471   0.00659   0.95975   0.00000  Uiso   1.00
C327   C     0.57320   0.11188   0.89734   0.00000  Uiso   1.00
C328   C     0.52728   0.83103   0.11640   0.00000  Uiso   1.00
C329   C     0.50845   0.76966   0.10364   0.00000  Uiso   1.00
C330   C     0.45121   0.76370   0.13560   0.00000  Uiso   1.00
C331   C     0.36245   0.72840   0.17498   0.00000  Uiso   1.00
C332   C     0.61319   0.86045   0.14765   0.00000  Uiso   1.00
C333   C     0.66657   0.82379   0.16118   0.00000  Uiso   1.00
C334   C     0.68166   0.84258   0.21946   0.00000  Uiso   1.00
C335   C     0.72628   0.85295   0.30736   0.00000  Uiso   1.00
C336   C     0.51993   0.94704   0.16627   0.00000  Uiso   1.00
C337   C     0.54003   0.97509   0.09401   0.00000  Uiso   1.00
C338   C     0.52466   0.04534   0.07088   0.00000  Uiso   1.00
C339   C     0.54763   0.06020   0.00299   0.00000  Uiso   1.00
C340   C     0.49027   0.88454   0.15955   0.00000  Uiso   1.00
C341   C     0.43305   0.87867   0.19155   0.00000  Uiso   1.00
C342   C     0.41413   0.81731   0.17883   0.00000  Uiso   1.00
C343   C     0.57617   0.91396   0.19081   0.00000  Uiso   1.00
C344   C     0.59118   0.93280   0.24908   0.00000  Uiso   1.00
C345   C     0.64458   0.89619   0.26270   0.00000  Uiso   1.00
H346   H     0.61689   0.80685   0.05322   0.00000  Uiso   1.00
H347   H     0.62869   0.89490   0.94960   0.00000  Uiso   1.00
H348   H     0.53710   0.72825   0.07025   0.00000  Uiso   1.00
H349   H     0.69521   0.78238   0.12777   0.00000  Uiso   1.00
H350   H     0.62544   0.01612   0.85373   0.00000  Uiso   1.00
H351   H     0.43232   0.66472   0.10815   0.00000  Uiso   1.00
H352   H     0.76571   0.77886   0.22946   0.00000  Uiso   1.00
H353   H     0.49111   0.98870   0.19987   0.00000  Uiso   1.00
H354   H     0.49601   0.08674   0.10429   0.00000  Uiso   1.00
H355   H     0.40442   0.92009   0.22494   0.00000  Uiso   1.00
H356   H     0.56252   0.97422   0.28247   0.00000  Uiso   1.00
H357   H     0.51774   0.17182   0.97929   0.00000  Uiso   1.00
H358   H     0.32463   0.82042   0.23370   0.00000  Uiso   1.00
H359   H     0.65802   0.93456   0.35501   0.00000  Uiso   1.00
O360   O     0.57707   0.15518   0.85098   0.00000  Uiso   1.00
O361   O     0.32371   0.69415   0.18477   0.00000  Uiso   1.00
O362   O     0.76111   0.84390   0.34392   0.00000  Uiso   1.00
N363   N     0.59943   0.03931   0.89640   0.00000  Uiso   1.00
N364   N     0.41887   0.71078   0.13426   0.00000  Uiso   1.00
N365   N     0.73056   0.81748   0.24768   0.00000  Uiso   1.00
N366   N     0.54148   0.12310   0.96396   0.00000  Uiso   1.00
N367   N     0.36093   0.79457   0.20182   0.00000  Uiso   1.00
N368   N     0.67261   0.90126   0.31524   0.00000  Uiso   1.00
C369   C     0.40158   0.33584   0.90112   0.00000  Uiso   1.00
C370   C     0.35680   0.38739   0.95137   0.00000  Uiso   1.00
C371   C     0.32429   0.45306   0.93480   0.00000  Uiso   1.00
C372   C     0.28563   0.49227   0.98812   0.00000  Uiso   1.00
C373   C     0.21698   0.57620   0.05588   0.00000  Uiso   1.00
C374   C     0.38114   0.26405   0.91156   0.00000  Uiso   1.00
C375   C     0.36910   0.22601   0.86151   0.00000  Uiso   1.00
C376   C     0.35093   0.16139   0.88133   0.00000  Uiso   1.00
C377   C     0.32010   0.05380   0.88727   0.00000  Uiso   1.00
C378   C     0.45935   0.32378   0.92553   0.00000  Uiso   1.00
C379   C     0.51308   0.33593   0.88722   0.00000  Uiso   1.00
C380   C     0.56076   0.32157   0.91879   0.00000  Uiso   1.00
C381   C     0.65137   0.30672   0.94642   0.00000  Uiso   1.00
C382   C     0.39072   0.28872   0.02529   0.00000  Uiso   1.00
C383   C     0.35091   0.36180   0.01881   0.00000  Uiso   1.00
C384   C     0.31228   0.40092   0.07217   0.00000  Uiso   1.00
C385   C     0.27972   0.46663   0.05569   0.00000  Uiso   1.00
C386   C     0.37524   0.23846   0.97900   0.00000  Uiso   1.00
C387   C     0.35709   0.17387   0.99889   0.00000  Uiso   1.00
C388   C     0.34502   0.13574   0.94889   0.00000  Uiso   1.00
C389   C     0.45346   0.29818   0.99297   0.00000  Uiso   1.00
C390   C     0.50106   0.28380   0.02460   0.00000  Uiso   1.00
C391   C     0.55485   0.29593   0.98636   0.00000  Uiso   1.00
H392   H     0.40617   0.35576   0.84861   0.00000  Uiso   1.00
H393   H     0.32887   0.47284   0.88260   0.00000  Uiso   1.00
H394   H     0.37367   0.24583   0.80933   0.00000  Uiso   1.00
H395   H     0.51762   0.35573   0.83504   0.00000  Uiso   1.00
H396   H     0.24054   0.59135   0.95002   0.00000  Uiso   1.00
H397   H     0.33504   0.11266   0.79551   0.00000  Uiso   1.00
H398   H     0.63859   0.34442   0.84972   0.00000  Uiso   1.00
H399   H     0.38613   0.26879   0.07779   0.00000  Uiso   1.00
H400   H     0.30773   0.38110   0.12436   0.00000  Uiso   1.00
H401   H     0.35253   0.15408   0.05108   0.00000  Uiso   1.00
H402   H     0.49648   0.26399   0.07679   0.00000  Uiso   1.00
H403   H     0.22338   0.51688   0.14624   0.00000  Uiso   1.00
H404   H     0.31788   0.03820   0.99173   0.00000  Uiso   1.00
H405   H     0.62143   0.26996   0.04594   0.00000  Uiso   1.00
O406   O     0.18073   0.62955   0.07462   0.00000  Uiso   1.00
O407   O     0.30472   0.00153   0.87191   0.00000  Uiso   1.00
O408   O     0.70297   0.30560   0.94304   0.00000  Uiso   1.00
N409   N     0.24727   0.55841   0.98981   0.00000  Uiso   1.00
N410   N     0.33561   0.11088   0.84536   0.00000  Uiso   1.00
N411   N     0.61941   0.32754   0.89603   0.00000  Uiso   1.00
N412   N     0.23804   0.51835   0.09540   0.00000  Uiso   1.00
N413   N     0.32638   0.07081   0.95094   0.00000  Uiso   1.00
N414   N     0.61018   0.28747   0.00162   0.00000  Uiso   1.00
C415   C     0.55379   0.76329   0.73703   0.00000  Uiso   1.00
C416   C     0.60531   0.80133   0.70958   0.00000  Uiso   1.00
C417   C     0.61595   0.83655   0.64688   0.00000  Uiso   1.00
C418   C     0.66545   0.86796   0.63119   0.00000  Uiso   1.00
C419   C     0.73976   0.92755   0.58165   0.00000  Uiso   1.00
C420   C     0.58127   0.68613   0.75367   0.00000  Uiso   1.00
C421   C     0.57169   0.62449   0.72805   0.00000  Uiso   1.00
C422   C     0.60095   0.55892   0.74949   0.00000  Uiso   1.00
C423   C     0.63791   0.43966   0.76844   0.00000  Uiso   1.00
C424   C     0.52208   0.79772   0.80515   0.00000  Uiso   1.00
C425   C     0.46273   0.82988   0.82282   0.00000  Uiso   1.00
C426   C     0.44215   0.85825   0.88760   0.00000  Uiso   1.00
C427   C     0.38720   0.91225   0.98647   0.00000  Uiso   1.00
C428   C     0.62278   0.75645   0.82067   0.00000  Uiso   1.00
C429   C     0.64278   0.79761   0.75501   0.00000  Uiso   1.00
C430   C     0.69228   0.82897   0.73942   0.00000  Uiso   1.00
C431   C     0.70299   0.86423   0.67671   0.00000  Uiso   1.00
C432   C     0.61874   0.68241   0.79910   0.00000  Uiso   1.00
C433   C     0.64802   0.61691   0.82059   0.00000  Uiso   1.00
C434   C     0.63849   0.55519   0.79500   0.00000  Uiso   1.00
C435   C     0.55955   0.79400   0.85058   0.00000  Uiso   1.00
C436   C     0.53906   0.82231   0.91535   0.00000  Uiso   1.00
C437   C     0.47969   0.85452   0.93312   0.00000  Uiso   1.00
H438   H     0.52462   0.76618   0.70166   0.00000  Uiso   1.00
H439   H     0.58694   0.83941   0.61173   0.00000  Uiso   1.00
H440   H     0.54268   0.62738   0.69290   0.00000  Uiso   1.00
H441   H     0.43374   0.83275   0.78764   0.00000  Uiso   1.00
H442   H     0.67257   0.91893   0.53206   0.00000  Uiso   1.00
H443   H     0.57924   0.47186   0.70322   0.00000  Uiso   1.00
H444   H     0.34952   0.90492   0.90301   0.00000  Uiso   1.00
H445   H     0.65196   0.75355   0.85604   0.00000  Uiso   1.00
H446   H     0.72127   0.82609   0.77459   0.00000  Uiso   1.00
H447   H     0.67702   0.61406   0.85575   0.00000  Uiso   1.00
H448   H     0.56807   0.81942   0.95050   0.00000  Uiso   1.00
H449   H     0.78160   0.90811   0.66424   0.00000  Uiso   1.00
H450   H     0.68827   0.46104   0.83540   0.00000  Uiso   1.00
H451   H     0.45855   0.89410   0.03519   0.00000  Uiso   1.00
O452   O     0.77039   0.96145   0.54177   0.00000  Uiso   1.00
O453   O     0.64794   0.37491   0.76633   0.00000  Uiso   1.00
O454   O     0.34655   0.94307   0.02845   0.00000  Uiso   1.00
N455   N     0.68871   0.90644   0.57435   0.00000  Uiso   1.00
N456   N     0.60147   0.48846   0.73436   0.00000  Uiso   1.00
N457   N     0.38668   0.89331   0.92116   0.00000  Uiso   1.00
N458   N     0.74738   0.90062   0.64548   0.00000  Uiso   1.00
N459   N     0.66013   0.48264   0.80549   0.00000  Uiso   1.00
N460   N     0.44535   0.88749   0.99229   0.00000  Uiso   1.00
C461   C     0.08022   0.58673   0.32403   0.00000  Uiso   1.00
C462   C     0.06983   0.54795   0.39301   0.00000  Uiso   1.00
C463   C     0.08986   0.47531   0.40509   0.00000  Uiso   1.00
C464   C     0.07571   0.45017   0.47177   0.00000  Uiso   1.00
C465   C     0.06456   0.38297   0.57086   0.00000  Uiso   1.00
C466   C     0.01917   0.62180   0.31241   0.00000  Uiso   1.00
C467   C     0.99661   0.61126   0.25672   0.00000  Uiso   1.00
C468   C     0.93981   0.64829   0.25554   0.00000  Uiso   1.00
C469   C     0.85003   0.69578   0.22948   0.00000  Uiso   1.00
C470   C     0.11003   0.64834   0.33309   0.00000  Uiso   1.00
C471   C     0.16387   0.66014   0.29479   0.00000  Uiso   1.00
C472   C     0.18357   0.71954   0.31102   0.00000  Uiso   1.00
C473   C     0.23487   0.80824   0.31707   0.00000  Uiso   1.00
C474   C     0.01947   0.67123   0.42096   0.00000  Uiso   1.00
C475   C     0.03683   0.59385   0.44565   0.00000  Uiso   1.00
C476   C     0.02265   0.56881   0.51233   0.00000  Uiso   1.00
C477   C     0.04265   0.49615   0.52451   0.00000  Uiso   1.00
C478   C     0.98617   0.66769   0.36505   0.00000  Uiso   1.00
C479   C     0.92940   0.70475   0.36396   0.00000  Uiso   1.00
C480   C     0.90675   0.69427   0.30828   0.00000  Uiso   1.00
C481   C     0.07704   0.69424   0.38574   0.00000  Uiso   1.00
C482   C     0.09666   0.75364   0.40203   0.00000  Uiso   1.00
C483   C     0.15051   0.76552   0.36376   0.00000  Uiso   1.00
H484   H     0.10591   0.55099   0.28304   0.00000  Uiso   1.00
H485   H     0.11539   0.43981   0.36433   0.00000  Uiso   1.00
H486   H     0.02216   0.57574   0.21598   0.00000  Uiso   1.00
H487   H     0.18939   0.62461   0.25405   0.00000  Uiso   1.00
H488   H     0.11133   0.33678   0.47767   0.00000  Uiso   1.00
H489   H     0.91475   0.62341   0.16486   0.00000  Uiso   1.00
H490   H     0.26739   0.72647   0.24513   0.00000  Uiso   1.00
H491   H     0.99378   0.70697   0.46194   0.00000  Uiso   1.00
H492   H     0.99711   0.60434   0.55306   0.00000  Uiso   1.00
H493   H     0.90388   0.74027   0.40470   0.00000  Uiso   1.00
H494   H     0.07111   0.78914   0.44277   0.00000  Uiso   1.00
H495   H     0.01533   0.47032   0.63085   0.00000  Uiso   1.00
H496   H     0.81875   0.75696   0.31803   0.00000  Uiso   1.00
H497   H     0.17139   0.86001   0.39830   0.00000  Uiso   1.00
O498   O     0.06752   0.33322   0.61097   0.00000  Uiso   1.00
O499   O     0.80962   0.70928   0.20056   0.00000  Uiso   1.00
O500   O     0.27229   0.84449   0.30587   0.00000  Uiso   1.00
N501   N     0.08829   0.38229   0.50122   0.00000  Uiso   1.00
N502   N     0.90449   0.65027   0.20876   0.00000  Uiso   1.00
N503   N     0.23418   0.74663   0.28380   0.00000  Uiso   1.00
N504   N     0.03663   0.45415   0.58364   0.00000  Uiso   1.00
N505   N     0.85284   0.72213   0.29119   0.00000  Uiso   1.00
N506   N     0.18252   0.81849   0.36622   0.00000  Uiso   1.00
C507   C     0.84020   0.42185   0.80371   0.00000  Uiso   1.00
C508   C     0.80673   0.48125   0.85347   0.00000  Uiso   1.00
C509   C     0.77157   0.47137   0.91707   0.00000  Uiso   1.00
C510   C     0.74470   0.53259   0.95488   0.00000  Uiso   1.00
C511   C     0.69147   0.61440   0.03593   0.00000  Uiso   1.00
C512   C     0.81922   0.44168   0.73749   0.00000  Uiso   1.00
C513   C     0.79458   0.39851   0.70357   0.00000  Uiso   1.00
C514   C     0.77823   0.42642   0.64374   0.00000  Uiso   1.00
C515   C     0.74445   0.44676   0.54471   0.00000  Uiso   1.00
C516   C     0.90478   0.42919   0.78868   0.00000  Uiso   1.00
C517   C     0.95208   0.37552   0.79777   0.00000  Uiso   1.00
C518   C     0.00777   0.39291   0.78102   0.00000  Uiso   1.00
C519   C     0.10682   0.39385   0.76146   0.00000  Uiso   1.00
C520   C     0.85498   0.54816   0.75777   0.00000  Uiso   1.00
C521   C     0.81475   0.54986   0.82851   0.00000  Uiso   1.00
C522   C     0.78792   0.61112   0.86624   0.00000  Uiso   1.00
C523   C     0.75274   0.60132   0.92988   0.00000  Uiso   1.00
C524   C     0.82725   0.51028   0.71254   0.00000  Uiso   1.00
C525   C     0.81093   0.53826   0.65274   0.00000  Uiso   1.00
C526   C     0.78627   0.49515   0.61874   0.00000  Uiso   1.00
C527   C     0.91281   0.49780   0.76372   0.00000  Uiso   1.00
C528   C     0.96843   0.51527   0.74695   0.00000  Uiso   1.00
C529   C     0.01581   0.46164   0.75602   0.00000  Uiso   1.00
H530   H     0.83395   0.36844   0.82313   0.00000  Uiso   1.00
H531   H     0.76537   0.41827   0.93636   0.00000  Uiso   1.00
H532   H     0.78838   0.34542   0.72289   0.00000  Uiso   1.00
H533   H     0.94586   0.32243   0.81708   0.00000  Uiso   1.00
H534   H     0.69286   0.50377   0.05088   0.00000  Uiso   1.00
H535   H     0.74140   0.35015   0.60075   0.00000  Uiso   1.00
H536   H     0.07346   0.30168   0.79938   0.00000  Uiso   1.00
H537   H     0.86123   0.60158   0.73834   0.00000  Uiso   1.00
H538   H     0.79414   0.66420   0.84692   0.00000  Uiso   1.00
H539   H     0.81715   0.59135   0.63345   0.00000  Uiso   1.00
H540   H     0.97462   0.56837   0.72764   0.00000  Uiso   1.00
H541   H     0.71620   0.70338   0.97828   0.00000  Uiso   1.00
H542   H     0.76475   0.54976   0.52816   0.00000  Uiso   1.00
H543   H     0.09681   0.50129   0.72678   0.00000  Uiso   1.00
O544   O     0.65989   0.64056   0.08752   0.00000  Uiso   1.00
O545   O     0.72359   0.43902   0.49698   0.00000  Uiso   1.00
O546   O     0.15924   0.37542   0.75757   0.00000  Uiso   1.00
N547   N     0.70757   0.54215   0.01890   0.00000  Uiso   1.00
N548   N     0.75294   0.39854   0.59806   0.00000  Uiso   1.00
N549   N     0.06339   0.35321   0.78374   0.00000  Uiso   1.00
N550   N     0.72013   0.64956   0.97983   0.00000  Uiso   1.00
N551   N     0.76551   0.50594   0.55900   0.00000  Uiso   1.00
N552   N     0.07596   0.46062   0.74468   0.00000  Uiso   1.00
