data_job_02780
_audit_creation_date              2018-12-19
_audit_creation_method            'Materials Studio'
_symmetry_space_group_name_H-M    'P1'
_symmetry_Int_Tables_number       1
_symmetry_cell_setting            triclinic
loop_
_symmetry_equiv_pos_as_xyz
  x,y,z
_cell_length_a                    30.4114
_cell_length_b                    7.0590
_cell_length_c                    24.4841
_cell_angle_alpha                 90.0000
_cell_angle_beta                  33.0081
_cell_angle_gamma                 90.0000
loop_
_atom_site_label
_atom_site_type_symbol
_atom_site_fract_x
_atom_site_fract_y
_atom_site_fract_z
_atom_site_U_iso_or_equiv
_atom_site_adp_type
_atom_site_occupancy
C1     C     0.14661   0.50778   0.73041   0.00000  Uiso   1.00
C2     C     0.14993   0.52386   0.66488   0.00000  Uiso   1.00
C3     C     0.14422   0.37428   0.63426   0.00000  Uiso   1.00
C4     C     0.14863   0.41838   0.57448   0.00000  Uiso   1.00
C5     C     0.15234   0.41488   0.47696   0.00000  Uiso   1.00
C6     C     0.22415   0.59830   0.67076   0.00000  Uiso   1.00
C7     C     0.28082   0.51131   0.64509   0.00000  Uiso   1.00
C8     C     0.34770   0.61809   0.59028   0.00000  Uiso   1.00
C9     C     0.46660   0.73020   0.50195   0.00000  Uiso   1.00
C10    C     0.07808   0.63716   0.82016   0.00000  Uiso   1.00
C11    C     0.01196   0.58285   0.92012   0.00000  Uiso   1.00
C12    C     0.95587   0.72237   0.99110   0.00000  Uiso   1.00
C13    C     0.84799   0.89481   0.13474   0.00000  Uiso   1.00
C14    C     0.16459   0.85211   0.67873   0.00000  Uiso   1.00
C15    C     0.15970   0.71089   0.63681   0.00000  Uiso   1.00
C16    C     0.16411   0.75523   0.57707   0.00000  Uiso   1.00
C17    C     0.15841   0.60574   0.54636   0.00000  Uiso   1.00
C18    C     0.23392   0.78532   0.64269   0.00000  Uiso   1.00
C19    C     0.30072   0.89226   0.58791   0.00000  Uiso   1.00
C20    C     0.35749   0.80545   0.56215   0.00000  Uiso   1.00
C21    C     0.08785   0.82418   0.79209   0.00000  Uiso   1.00
C22    C     0.03185   0.96381   0.86293   0.00000  Uiso   1.00
C23    C     0.96565   0.90973   0.96297   0.00000  Uiso   1.00
H24    H     0.13901   0.36218   0.75227   0.00000  Uiso   1.00
H25    H     0.13667   0.22956   0.65599   0.00000  Uiso   1.00
H26    H     0.27325   0.36658   0.66683   0.00000  Uiso   1.00
H27    H     0.00442   0.43811   0.94182   0.00000  Uiso   1.00
H28    H     0.13841   0.16499   0.53684   0.00000  Uiso   1.00
H29    H     0.42638   0.45393   0.55973   0.00000  Uiso   1.00
H30    H     0.85951   0.60477   0.13959   0.00000  Uiso   1.00
H31    H     0.17220   0.99772   0.65687   0.00000  Uiso   1.00
H32    H     0.17167   0.89998   0.55536   0.00000  Uiso   1.00
H33    H     0.30825   0.03699   0.56620   0.00000  Uiso   1.00
H34    H     0.03943   0.10852   0.84118   0.00000  Uiso   1.00
H35    H     0.16682   0.70912   0.45516   0.00000  Uiso   1.00
H36    H     0.45479   0.99806   0.47805   0.00000  Uiso   1.00
H37    H     0.88792   0.14890   0.05791   0.00000  Uiso   1.00
O38    O     0.15170   0.36128   0.43092   0.00000  Uiso   1.00
O39    O     0.52949   0.74036   0.46097   0.00000  Uiso   1.00
O40    O     0.78578   0.93826   0.22172   0.00000  Uiso   1.00
N41    N     0.14515   0.30647   0.53156   0.00000  Uiso   1.00
N42    N     0.41439   0.57660   0.55295   0.00000  Uiso   1.00
N43    N     0.88443   0.71763   0.09507   0.00000  Uiso   1.00
N44    N     0.16044   0.59927   0.48761   0.00000  Uiso   1.00
N45    N     0.42968   0.86939   0.50900   0.00000  Uiso   1.00
N46    N     0.89972   0.01043   0.05112   0.00000  Uiso   1.00
C47    C     0.85339   0.50778   0.76959   0.00000  Uiso   1.00
C48    C     0.85007   0.52386   0.83512   0.00000  Uiso   1.00
C49    C     0.85578   0.37428   0.86574   0.00000  Uiso   1.00
C50    C     0.85137   0.41838   0.92552   0.00000  Uiso   1.00
C51    C     0.84766   0.41488   0.02304   0.00000  Uiso   1.00
C52    C     0.77585   0.59830   0.82924   0.00000  Uiso   1.00
C53    C     0.71918   0.51131   0.85491   0.00000  Uiso   1.00
C54    C     0.65230   0.61809   0.90972   0.00000  Uiso   1.00
C55    C     0.53340   0.73020   0.99805   0.00000  Uiso   1.00
C56    C     0.92192   0.63716   0.67984   0.00000  Uiso   1.00
C57    C     0.98804   0.58285   0.57988   0.00000  Uiso   1.00
C58    C     0.04413   0.72237   0.50890   0.00000  Uiso   1.00
C59    C     0.15201   0.89481   0.36526   0.00000  Uiso   1.00
C60    C     0.83541   0.85211   0.82127   0.00000  Uiso   1.00
C61    C     0.84030   0.71089   0.86319   0.00000  Uiso   1.00
C62    C     0.83589   0.75523   0.92293   0.00000  Uiso   1.00
C63    C     0.84159   0.60574   0.95364   0.00000  Uiso   1.00
C64    C     0.76608   0.78532   0.85731   0.00000  Uiso   1.00
C65    C     0.69928   0.89226   0.91209   0.00000  Uiso   1.00
C66    C     0.64251   0.80545   0.93785   0.00000  Uiso   1.00
C67    C     0.91215   0.82418   0.70791   0.00000  Uiso   1.00
C68    C     0.96815   0.96381   0.63707   0.00000  Uiso   1.00
C69    C     0.03435   0.90973   0.53703   0.00000  Uiso   1.00
H70    H     0.86099   0.36218   0.74773   0.00000  Uiso   1.00
H71    H     0.86333   0.22956   0.84401   0.00000  Uiso   1.00
H72    H     0.72675   0.36658   0.83317   0.00000  Uiso   1.00
H73    H     0.99558   0.43811   0.55818   0.00000  Uiso   1.00
H74    H     0.86159   0.16499   0.96316   0.00000  Uiso   1.00
H75    H     0.57362   0.45393   0.94027   0.00000  Uiso   1.00
H76    H     0.14049   0.60477   0.36041   0.00000  Uiso   1.00
H77    H     0.82780   0.99772   0.84313   0.00000  Uiso   1.00
H78    H     0.82833   0.89998   0.94464   0.00000  Uiso   1.00
H79    H     0.69175   0.03699   0.93380   0.00000  Uiso   1.00
H80    H     0.96057   0.10852   0.65882   0.00000  Uiso   1.00
H81    H     0.83318   0.70912   0.04484   0.00000  Uiso   1.00
H82    H     0.54521   0.99806   0.02195   0.00000  Uiso   1.00
H83    H     0.11208   0.14890   0.44209   0.00000  Uiso   1.00
O84    O     0.84830   0.36128   0.06908   0.00000  Uiso   1.00
O85    O     0.47051   0.74036   0.03903   0.00000  Uiso   1.00
O86    O     0.21422   0.93826   0.27828   0.00000  Uiso   1.00
N87    N     0.85485   0.30647   0.96844   0.00000  Uiso   1.00
N88    N     0.58561   0.57660   0.94705   0.00000  Uiso   1.00
N89    N     0.11557   0.71763   0.40493   0.00000  Uiso   1.00
N90    N     0.83956   0.59927   0.01239   0.00000  Uiso   1.00
N91    N     0.57032   0.86939   0.99100   0.00000  Uiso   1.00
N92    N     0.10028   0.01043   0.44888   0.00000  Uiso   1.00
C93    C     0.85339   0.49222   0.26959   0.00000  Uiso   1.00
C94    C     0.85007   0.47614   0.33512   0.00000  Uiso   1.00
C95    C     0.85578   0.62572   0.36574   0.00000  Uiso   1.00
C96    C     0.85137   0.58162   0.42552   0.00000  Uiso   1.00
C97    C     0.84766   0.58512   0.52304   0.00000  Uiso   1.00
C98    C     0.77585   0.40170   0.32924   0.00000  Uiso   1.00
C99    C     0.71918   0.48869   0.35491   0.00000  Uiso   1.00
C100   C     0.65230   0.38191   0.40972   0.00000  Uiso   1.00
C101   C     0.53340   0.26980   0.49805   0.00000  Uiso   1.00
C102   C     0.92192   0.36284   0.17984   0.00000  Uiso   1.00
C103   C     0.98804   0.41715   0.07988   0.00000  Uiso   1.00
C104   C     0.04413   0.27763   0.00890   0.00000  Uiso   1.00
C105   C     0.15201   0.10519   0.86526   0.00000  Uiso   1.00
C106   C     0.83541   0.14789   0.32127   0.00000  Uiso   1.00
C107   C     0.84030   0.28911   0.36319   0.00000  Uiso   1.00
C108   C     0.83589   0.24477   0.42293   0.00000  Uiso   1.00
C109   C     0.84159   0.39426   0.45364   0.00000  Uiso   1.00
C110   C     0.76608   0.21468   0.35731   0.00000  Uiso   1.00
C111   C     0.69928   0.10774   0.41209   0.00000  Uiso   1.00
C112   C     0.64251   0.19455   0.43785   0.00000  Uiso   1.00
C113   C     0.91215   0.17582   0.20791   0.00000  Uiso   1.00
C114   C     0.96815   0.03619   0.13707   0.00000  Uiso   1.00
C115   C     0.03435   0.09027   0.03703   0.00000  Uiso   1.00
H116   H     0.86099   0.63782   0.24773   0.00000  Uiso   1.00
H117   H     0.86333   0.77044   0.34401   0.00000  Uiso   1.00
H118   H     0.72675   0.63342   0.33317   0.00000  Uiso   1.00
H119   H     0.99558   0.56189   0.05818   0.00000  Uiso   1.00
H120   H     0.86159   0.83501   0.46316   0.00000  Uiso   1.00
H121   H     0.57362   0.54607   0.44027   0.00000  Uiso   1.00
H122   H     0.14049   0.39523   0.86041   0.00000  Uiso   1.00
H123   H     0.82780   0.00228   0.34313   0.00000  Uiso   1.00
H124   H     0.82833   0.10002   0.44464   0.00000  Uiso   1.00
H125   H     0.69175   0.96301   0.43380   0.00000  Uiso   1.00
H126   H     0.96057   0.89148   0.15882   0.00000  Uiso   1.00
H127   H     0.83318   0.29088   0.54484   0.00000  Uiso   1.00
H128   H     0.54521   0.00194   0.52195   0.00000  Uiso   1.00
H129   H     0.11208   0.85110   0.94209   0.00000  Uiso   1.00
O130   O     0.84830   0.63872   0.56908   0.00000  Uiso   1.00
O131   O     0.47051   0.25964   0.53903   0.00000  Uiso   1.00
O132   O     0.21422   0.06174   0.77828   0.00000  Uiso   1.00
N133   N     0.85485   0.69353   0.46844   0.00000  Uiso   1.00
N134   N     0.58561   0.42340   0.44705   0.00000  Uiso   1.00
N135   N     0.11557   0.28237   0.90493   0.00000  Uiso   1.00
N136   N     0.83956   0.40073   0.51239   0.00000  Uiso   1.00
N137   N     0.57032   0.13061   0.49100   0.00000  Uiso   1.00
N138   N     0.10028   0.98957   0.94888   0.00000  Uiso   1.00
C139   C     0.14661   0.49222   0.23041   0.00000  Uiso   1.00
C140   C     0.14993   0.47614   0.16488   0.00000  Uiso   1.00
C141   C     0.14422   0.62572   0.13426   0.00000  Uiso   1.00
C142   C     0.14863   0.58162   0.07448   0.00000  Uiso   1.00
C143   C     0.15234   0.58512   0.97696   0.00000  Uiso   1.00
C144   C     0.22415   0.40170   0.17076   0.00000  Uiso   1.00
C145   C     0.28082   0.48869   0.14509   0.00000  Uiso   1.00
C146   C     0.34770   0.38191   0.09028   0.00000  Uiso   1.00
C147   C     0.46660   0.26980   0.00195   0.00000  Uiso   1.00
C148   C     0.07808   0.36284   0.32016   0.00000  Uiso   1.00
C149   C     0.01196   0.41715   0.42012   0.00000  Uiso   1.00
C150   C     0.95587   0.27763   0.49110   0.00000  Uiso   1.00
C151   C     0.84799   0.10519   0.63474   0.00000  Uiso   1.00
C152   C     0.16459   0.14789   0.17873   0.00000  Uiso   1.00
C153   C     0.15970   0.28911   0.13681   0.00000  Uiso   1.00
C154   C     0.16411   0.24477   0.07707   0.00000  Uiso   1.00
C155   C     0.15841   0.39426   0.04636   0.00000  Uiso   1.00
C156   C     0.23392   0.21468   0.14269   0.00000  Uiso   1.00
C157   C     0.30072   0.10774   0.08791   0.00000  Uiso   1.00
C158   C     0.35749   0.19455   0.06215   0.00000  Uiso   1.00
C159   C     0.08785   0.17582   0.29209   0.00000  Uiso   1.00
C160   C     0.03185   0.03619   0.36293   0.00000  Uiso   1.00
C161   C     0.96565   0.09027   0.46297   0.00000  Uiso   1.00
H162   H     0.13901   0.63782   0.25227   0.00000  Uiso   1.00
H163   H     0.13667   0.77044   0.15599   0.00000  Uiso   1.00
H164   H     0.27325   0.63342   0.16683   0.00000  Uiso   1.00
H165   H     0.00442   0.56189   0.44182   0.00000  Uiso   1.00
H166   H     0.13841   0.83501   0.03684   0.00000  Uiso   1.00
H167   H     0.42638   0.54607   0.05973   0.00000  Uiso   1.00
H168   H     0.85951   0.39523   0.63959   0.00000  Uiso   1.00
H169   H     0.17220   0.00228   0.15687   0.00000  Uiso   1.00
H170   H     0.17167   0.10002   0.05536   0.00000  Uiso   1.00
H171   H     0.30825   0.96301   0.06620   0.00000  Uiso   1.00
H172   H     0.03943   0.89148   0.34118   0.00000  Uiso   1.00
H173   H     0.16682   0.29088   0.95516   0.00000  Uiso   1.00
H174   H     0.45479   0.00194   0.97805   0.00000  Uiso   1.00
H175   H     0.88792   0.85110   0.55791   0.00000  Uiso   1.00
O176   O     0.15170   0.63872   0.93092   0.00000  Uiso   1.00
O177   O     0.52949   0.25964   0.96097   0.00000  Uiso   1.00
O178   O     0.78578   0.06174   0.72172   0.00000  Uiso   1.00
N179   N     0.14515   0.69353   0.03156   0.00000  Uiso   1.00
N180   N     0.41439   0.42340   0.05295   0.00000  Uiso   1.00
N181   N     0.88443   0.28237   0.59507   0.00000  Uiso   1.00
N182   N     0.16044   0.40073   0.98761   0.00000  Uiso   1.00
N183   N     0.42968   0.13061   0.00900   0.00000  Uiso   1.00
N184   N     0.89972   0.98957   0.55112   0.00000  Uiso   1.00
