data_job_06721
_audit_creation_date              2018-12-19
_audit_creation_method            'Materials Studio'
_symmetry_space_group_name_H-M    'P1'
_symmetry_Int_Tables_number       1
_symmetry_cell_setting            triclinic
loop_
_symmetry_equiv_pos_as_xyz
  x,y,z
_cell_length_a                    20.5553
_cell_length_b                    19.4975
_cell_length_c                    20.2066
_cell_angle_alpha                 94.0892
_cell_angle_beta                  99.1941
_cell_angle_gamma                 98.8790
loop_
_atom_site_label
_atom_site_type_symbol
_atom_site_fract_x
_atom_site_fract_y
_atom_site_fract_z
_atom_site_U_iso_or_equiv
_atom_site_adp_type
_atom_site_occupancy
C1     C     0.32334   0.84320   0.22252   0.00000  Uiso   1.00
C2     C     0.30837   0.87168   0.28971   0.00000  Uiso   1.00
C3     C     0.31173   0.83790   0.34803   0.00000  Uiso   1.00
C4     C     0.29613   0.87269   0.40426   0.00000  Uiso   1.00
C5     C     0.27563   0.90683   0.50890   0.00000  Uiso   1.00
C6     C     0.26084   0.84383   0.17066   0.00000  Uiso   1.00
C7     C     0.22424   0.78664   0.12888   0.00000  Uiso   1.00
C8     C     0.16862   0.79800   0.08488   0.00000  Uiso   1.00
C9     C     0.07436   0.78891   0.00466   0.00000  Uiso   1.00
C10    C     0.37773   0.89759   0.20454   0.00000  Uiso   1.00
C11    C     0.43941   0.88559   0.19122   0.00000  Uiso   1.00
C12    C     0.48221   0.94221   0.17572   0.00000  Uiso   1.00
C13    C     0.56943   0.01659   0.14810   0.00000  Uiso   1.00
C14    C     0.28966   0.96506   0.21867   0.00000  Uiso   1.00
C15    C     0.29008   0.93787   0.28762   0.00000  Uiso   1.00
C16    C     0.27447   0.97272   0.34377   0.00000  Uiso   1.00
C17    C     0.27780   0.93900   0.40217   0.00000  Uiso   1.00
C18    C     0.24254   0.91002   0.16857   0.00000  Uiso   1.00
C19    C     0.18697   0.92146   0.12462   0.00000  Uiso   1.00
C20    C     0.15029   0.86430   0.08278   0.00000  Uiso   1.00
C21    C     0.35944   0.96378   0.20245   0.00000  Uiso   1.00
C22    C     0.40214   0.02042   0.18696   0.00000  Uiso   1.00
C23    C     0.46388   0.00852   0.17363   0.00000  Uiso   1.00
H24    H     0.33758   0.79166   0.22414   0.00000  Uiso   1.00
H25    H     0.32589   0.78667   0.34963   0.00000  Uiso   1.00
H26    H     0.23841   0.73542   0.13050   0.00000  Uiso   1.00
H27    H     0.45355   0.83437   0.19284   0.00000  Uiso   1.00
H28    H     0.30482   0.81031   0.48782   0.00000  Uiso   1.00
H29    H     0.12039   0.70226   0.02577   0.00000  Uiso   1.00
H30    H     0.57405   0.91090   0.15721   0.00000  Uiso   1.00
H31    H     0.27542   0.01659   0.21704   0.00000  Uiso   1.00
H32    H     0.26031   0.02394   0.34214   0.00000  Uiso   1.00
H33    H     0.17283   0.97269   0.12301   0.00000  Uiso   1.00
H34    H     0.38797   0.07164   0.18535   0.00000  Uiso   1.00
H35    H     0.25160   0.00289   0.48175   0.00000  Uiso   1.00
H36    H     0.06716   0.89484   0.01969   0.00000  Uiso   1.00
H37    H     0.52083   0.10348   0.15114   0.00000  Uiso   1.00
O38    O     0.26937   0.90737   0.56720   0.00000  Uiso   1.00
O39    O     0.02741   0.76561   0.96099   0.00000  Uiso   1.00
O40    O     0.62260   0.03934   0.13345   0.00000  Uiso   1.00
N41    N     0.29438   0.85463   0.46923   0.00000  Uiso   1.00
N42    N     0.12194   0.75361   0.03724   0.00000  Uiso   1.00
N43    N     0.54607   0.94866   0.16012   0.00000  Uiso   1.00
N44    N     0.26574   0.95826   0.46596   0.00000  Uiso   1.00
N45    N     0.09330   0.85723   0.03397   0.00000  Uiso   1.00
N46    N     0.51743   0.05229   0.15685   0.00000  Uiso   1.00
C47    C     0.19362   0.33548   0.81705   0.00000  Uiso   1.00
C48    C     0.26562   0.32233   0.82774   0.00000  Uiso   1.00
C49    C     0.30952   0.33320   0.78252   0.00000  Uiso   1.00
C50    C     0.37325   0.31801   0.80168   0.00000  Uiso   1.00
C51    C     0.48213   0.30139   0.80880   0.00000  Uiso   1.00
C52    C     0.15058   0.26656   0.82514   0.00000  Uiso   1.00
C53    C     0.09774   0.23056   0.77774   0.00000  Uiso   1.00
C54    C     0.06462   0.16842   0.79470   0.00000  Uiso   1.00
C55    C     0.99487   0.06525   0.79781   0.00000  Uiso   1.00
C56    C     0.18873   0.38579   0.87669   0.00000  Uiso   1.00
C57    C     0.16796   0.45003   0.87263   0.00000  Uiso   1.00
C58    C     0.16695   0.48828   0.93301   0.00000  Uiso   1.00
C59    C     0.15644   0.57023   0.01615   0.00000  Uiso   1.00
C60    C     0.22874   0.28917   0.93147   0.00000  Uiso   1.00
C61    C     0.28469   0.29718   0.88989   0.00000  Uiso   1.00
C62    C     0.34837   0.28197   0.90912   0.00000  Uiso   1.00
C63    C     0.39236   0.29282   0.86394   0.00000  Uiso   1.00
C64    C     0.16965   0.24141   0.88728   0.00000  Uiso   1.00
C65    C     0.13660   0.17932   0.90433   0.00000  Uiso   1.00
C66    C     0.08373   0.14323   0.85697   0.00000  Uiso   1.00
C67    C     0.20781   0.36064   0.93884   0.00000  Uiso   1.00
C68    C     0.20682   0.39879   0.99923   0.00000  Uiso   1.00
C69    C     0.18606   0.46308   0.99527   0.00000  Uiso   1.00
H70    H     0.17877   0.35506   0.76867   0.00000  Uiso   1.00
H71    H     0.29473   0.35266   0.73443   0.00000  Uiso   1.00
H72    H     0.08299   0.25004   0.72965   0.00000  Uiso   1.00
H73    H     0.15320   0.46948   0.82453   0.00000  Uiso   1.00
H74    H     0.43171   0.33889   0.72387   0.00000  Uiso   1.00
H75    H     0.98522   0.12251   0.71379   0.00000  Uiso   1.00
H76    H     0.13328   0.58524   0.91388   0.00000  Uiso   1.00
H77    H     0.24359   0.26959   0.97986   0.00000  Uiso   1.00
H78    H     0.36312   0.26251   0.95722   0.00000  Uiso   1.00
H79    H     0.15137   0.15988   0.95243   0.00000  Uiso   1.00
H80    H     0.22159   0.37931   0.04731   0.00000  Uiso   1.00
H81    H     0.48721   0.26572   0.90469   0.00000  Uiso   1.00
H82    H     0.04072   0.04933   0.89461   0.00000  Uiso   1.00
H83    H     0.18878   0.51206   0.09470   0.00000  Uiso   1.00
O84    O     0.53691   0.29917   0.79556   0.00000  Uiso   1.00
O85    O     0.95112   0.01529   0.78235   0.00000  Uiso   1.00
O86    O     0.14538   0.62238   0.04485   0.00000  Uiso   1.00
N87    N     0.42837   0.32266   0.76954   0.00000  Uiso   1.00
N88    N     0.01093   0.12035   0.76012   0.00000  Uiso   1.00
N89    N     0.14934   0.55295   0.94717   0.00000  Uiso   1.00
N90    N     0.45824   0.28328   0.86684   0.00000  Uiso   1.00
N91    N     0.04080   0.08097   0.85741   0.00000  Uiso   1.00
N92    N     0.17921   0.51358   0.04447   0.00000  Uiso   1.00
C93    C     0.81667   0.19721   0.34161   0.00000  Uiso   1.00
C94    C     0.80671   0.27107   0.32767   0.00000  Uiso   1.00
C95    C     0.75420   0.30299   0.34246   0.00000  Uiso   1.00
C96    C     0.75407   0.37083   0.32575   0.00000  Uiso   1.00
C97    C     0.73089   0.48023   0.30871   0.00000  Uiso   1.00
C98    C     0.82133   0.15988   0.27402   0.00000  Uiso   1.00
C99    C     0.78113   0.09832   0.24371   0.00000  Uiso   1.00
C100   C     0.79333   0.07255   0.18184   0.00000  Uiso   1.00
C101   C     0.79288   0.00931   0.08154   0.00000  Uiso   1.00
C102   C     0.88581   0.20432   0.38475   0.00000  Uiso   1.00
C103   C     0.89982   0.18011   0.44754   0.00000  Uiso   1.00
C104   C     0.96631   0.19175   0.47889   0.00000  Uiso   1.00
C105   C     0.06598   0.19751   0.55051   0.00000  Uiso   1.00
C106   C     0.90984   0.26090   0.28563   0.00000  Uiso   1.00
C107   C     0.85731   0.30566   0.29726   0.00000  Uiso   1.00
C108   C     0.85728   0.37346   0.28053   0.00000  Uiso   1.00
C109   C     0.80477   0.40549   0.29529   0.00000  Uiso   1.00
C110   C     0.87194   0.19447   0.24362   0.00000  Uiso   1.00
C111   C     0.88421   0.16879   0.18178   0.00000  Uiso   1.00
C112   C     0.84402   0.10720   0.15138   0.00000  Uiso   1.00
C113   C     0.93642   0.23892   0.35435   0.00000  Uiso   1.00
C114   C     0.00290   0.25059   0.38561   0.00000  Uiso   1.00
C115   C     0.01701   0.22640   0.44843   0.00000  Uiso   1.00
H116   H     0.77727   0.17027   0.36527   0.00000  Uiso   1.00
H117   H     0.71504   0.27620   0.36599   0.00000  Uiso   1.00
H118   H     0.74197   0.07155   0.26726   0.00000  Uiso   1.00
H119   H     0.86065   0.15334   0.47105   0.00000  Uiso   1.00
H120   H     0.66835   0.40889   0.35334   0.00000  Uiso   1.00
H121   H     0.72515   0.97737   0.14518   0.00000  Uiso   1.00
H122   H     0.97540   0.14983   0.57493   0.00000  Uiso   1.00
H123   H     0.94924   0.28783   0.26196   0.00000  Uiso   1.00
H124   H     0.89644   0.40022   0.25700   0.00000  Uiso   1.00
H125   H     0.92337   0.19557   0.15827   0.00000  Uiso   1.00
H126   H     0.04205   0.27736   0.36207   0.00000  Uiso   1.00
H127   H     0.81558   0.50955   0.26488   0.00000  Uiso   1.00
H128   H     0.87238   0.07802   0.05672   0.00000  Uiso   1.00
H129   H     0.12263   0.25049   0.48647   0.00000  Uiso   1.00
O130   O     0.70412   0.53102   0.30770   0.00000  Uiso   1.00
O131   O     0.77865   0.96487   0.03461   0.00000  Uiso   1.00
O132   O     0.10697   0.19114   0.59842   0.00000  Uiso   1.00
N133   N     0.71025   0.41716   0.33322   0.00000  Uiso   1.00
N134   N     0.76335   0.01372   0.13859   0.00000  Uiso   1.00
N135   N     0.99732   0.17494   0.54036   0.00000  Uiso   1.00
N136   N     0.78948   0.47133   0.28562   0.00000  Uiso   1.00
N137   N     0.84258   0.06788   0.09099   0.00000  Uiso   1.00
N138   N     0.07654   0.22910   0.49276   0.00000  Uiso   1.00
C139   C     0.73489   0.77256   0.46513   0.00000  Uiso   1.00
C140   C     0.77763   0.83245   0.51313   0.00000  Uiso   1.00
C141   C     0.81287   0.89242   0.49434   0.00000  Uiso   1.00
C142   C     0.84896   0.94104   0.54585   0.00000  Uiso   1.00
C143   C     0.91517   0.03572   0.61007   0.00000  Uiso   1.00
C144   C     0.66544   0.76436   0.48416   0.00000  Uiso   1.00
C145   C     0.60636   0.76708   0.44101   0.00000  Uiso   1.00
C146   C     0.54801   0.75838   0.46812   0.00000  Uiso   1.00
C147   C     0.44004   0.74730   0.48735   0.00000  Uiso   1.00
C148   C     0.76259   0.70697   0.48367   0.00000  Uiso   1.00
C149   C     0.78518   0.66141   0.44010   0.00000  Uiso   1.00
C150   C     0.80862   0.60437   0.46680   0.00000  Uiso   1.00
C151   C     0.85149   0.50418   0.48527   0.00000  Uiso   1.00
C152   C     0.73633   0.75226   0.59001   0.00000  Uiso   1.00
C153   C     0.77840   0.82142   0.58096   0.00000  Uiso   1.00
C154   C     0.81446   0.86996   0.63251   0.00000  Uiso   1.00
C155   C     0.84975   0.92999   0.61380   0.00000  Uiso   1.00
C156   C     0.66622   0.75334   0.55199   0.00000  Uiso   1.00
C157   C     0.60794   0.74462   0.57917   0.00000  Uiso   1.00
C158   C     0.54879   0.74733   0.53608   0.00000  Uiso   1.00
C159   C     0.76337   0.69594   0.55150   0.00000  Uiso   1.00
C160   C     0.78677   0.63895   0.57827   0.00000  Uiso   1.00
C161   C     0.80939   0.59332   0.53475   0.00000  Uiso   1.00
H162   H     0.73428   0.78114   0.41232   0.00000  Uiso   1.00
H163   H     0.81225   0.90093   0.44184   0.00000  Uiso   1.00
H164   H     0.60577   0.77561   0.38852   0.00000  Uiso   1.00
H165   H     0.78457   0.66996   0.38761   0.00000  Uiso   1.00
H166   H     0.89901   0.02889   0.50449   0.00000  Uiso   1.00
H167   H     0.46364   0.76461   0.39204   0.00000  Uiso   1.00
H168   H     0.84067   0.54182   0.39013   0.00000  Uiso   1.00
H169   H     0.73693   0.74368   0.64282   0.00000  Uiso   1.00
H170   H     0.81505   0.86141   0.68500   0.00000  Uiso   1.00
H171   H     0.60857   0.73609   0.63167   0.00000  Uiso   1.00
H172   H     0.78737   0.63044   0.63076   0.00000  Uiso   1.00
H173   H     0.90128   0.99682   0.70184   0.00000  Uiso   1.00
H174   H     0.46590   0.73253   0.58939   0.00000  Uiso   1.00
H175   H     0.84294   0.50975   0.58749   0.00000  Uiso   1.00
O176   O     0.95146   0.09099   0.62675   0.00000  Uiso   1.00
O177   O     0.38027   0.74425   0.47922   0.00000  Uiso   1.00
O178   O     0.87493   0.45197   0.47672   0.00000  Uiso   1.00
N179   N     0.88883   0.00518   0.54515   0.00000  Uiso   1.00
N180   N     0.48179   0.75810   0.44002   0.00000  Uiso   1.00
N181   N     0.83426   0.54981   0.43823   0.00000  Uiso   1.00
N182   N     0.89006   0.98792   0.65134   0.00000  Uiso   1.00
N183   N     0.48301   0.74084   0.54621   0.00000  Uiso   1.00
N184   N     0.83549   0.53255   0.54442   0.00000  Uiso   1.00
C185   C     0.75173   0.43458   0.77007   0.00000  Uiso   1.00
C186   C     0.81310   0.49109   0.79212   0.00000  Uiso   1.00
C187   C     0.87810   0.47977   0.81183   0.00000  Uiso   1.00
C188   C     0.92727   0.53837   0.83016   0.00000  Uiso   1.00
C189   C     0.02491   0.61586   0.86457   0.00000  Uiso   1.00
C190   C     0.72027   0.44931   0.70005   0.00000  Uiso   1.00
C191   C     0.70722   0.40286   0.64234   0.00000  Uiso   1.00
C192   C     0.67823   0.42630   0.58317   0.00000  Uiso   1.00
C193   C     0.63171   0.43890   0.47465   0.00000  Uiso   1.00
C194   C     0.70243   0.44846   0.81633   0.00000  Uiso   1.00
C195   C     0.67434   0.40129   0.85639   0.00000  Uiso   1.00
C196   C     0.63031   0.42400   0.89511   0.00000  Uiso   1.00
C197   C     0.55608   0.43528   0.96713   0.00000  Uiso   1.00
C198   C     0.72345   0.55879   0.76758   0.00000  Uiso   1.00
C199   C     0.79775   0.55856   0.79076   0.00000  Uiso   1.00
C200   C     0.84682   0.61719   0.80907   0.00000  Uiso   1.00
C201   C     0.91188   0.60596   0.82881   0.00000  Uiso   1.00
C202   C     0.70492   0.51678   0.69869   0.00000  Uiso   1.00
C203   C     0.67594   0.54028   0.63959   0.00000  Uiso   1.00
C204   C     0.66284   0.49388   0.58182   0.00000  Uiso   1.00
C205   C     0.68707   0.51593   0.81498   0.00000  Uiso   1.00
C206   C     0.64307   0.53871   0.85364   0.00000  Uiso   1.00
C207   C     0.61493   0.49158   0.89375   0.00000  Uiso   1.00
H208   H     0.76368   0.38206   0.77112   0.00000  Uiso   1.00
H209   H     0.88997   0.42755   0.81286   0.00000  Uiso   1.00
H210   H     0.71910   0.35065   0.64341   0.00000  Uiso   1.00
H211   H     0.68624   0.34908   0.85742   0.00000  Uiso   1.00
H212   H     0.02321   0.50774   0.85852   0.00000  Uiso   1.00
H213   H     0.66291   0.34559   0.50123   0.00000  Uiso   1.00
H214   H     0.59361   0.34227   0.95251   0.00000  Uiso   1.00
H215   H     0.71150   0.61132   0.76653   0.00000  Uiso   1.00
H216   H     0.83492   0.66940   0.80802   0.00000  Uiso   1.00
H217   H     0.66406   0.59249   0.63857   0.00000  Uiso   1.00
H218   H     0.63120   0.59092   0.85258   0.00000  Uiso   1.00
H219   H     0.97854   0.70403   0.85459   0.00000  Uiso   1.00
H220   H     0.61823   0.54188   0.49730   0.00000  Uiso   1.00
H221   H     0.54894   0.53856   0.94858   0.00000  Uiso   1.00
O222   O     0.08301   0.63996   0.88391   0.00000  Uiso   1.00
O223   O     0.61030   0.42721   0.41516   0.00000  Uiso   1.00
O224   O     0.51939   0.42286   0.00724   0.00000  Uiso   1.00
N225   N     0.99576   0.54597   0.85191   0.00000  Uiso   1.00
N226   N     0.65890   0.39437   0.51786   0.00000  Uiso   1.00
N227   N     0.59410   0.39126   0.93976   0.00000  Uiso   1.00
N228   N     0.97172   0.65159   0.84980   0.00000  Uiso   1.00
N229   N     0.63487   0.49999   0.51575   0.00000  Uiso   1.00
N230   N     0.57007   0.49688   0.93765   0.00000  Uiso   1.00
C231   C     0.45755   0.76021   0.78821   0.00000  Uiso   1.00
C232   C     0.51061   0.78907   0.84965   0.00000  Uiso   1.00
C233   C     0.49853   0.80648   0.91384   0.00000  Uiso   1.00
C234   C     0.55383   0.83205   0.96321   0.00000  Uiso   1.00
C235   C     0.62633   0.87564   0.06080   0.00000  Uiso   1.00
C236   C     0.47589   0.69155   0.76236   0.00000  Uiso   1.00
C237   C     0.43460   0.62698   0.75317   0.00000  Uiso   1.00
C238   C     0.46067   0.57047   0.72905   0.00000  Uiso   1.00
C239   C     0.47924   0.46268   0.69109   0.00000  Uiso   1.00
C240   C     0.46819   0.80989   0.73448   0.00000  Uiso   1.00
C241   C     0.42042   0.84480   0.70183   0.00000  Uiso   1.00
C242   C     0.44000   0.88790   0.65423   0.00000  Uiso   1.00
C243   C     0.44662   0.96384   0.57298   0.00000  Uiso   1.00
C244   C     0.57725   0.77465   0.76173   0.00000  Uiso   1.00
C245   C     0.57563   0.79691   0.83526   0.00000  Uiso   1.00
C246   C     0.63096   0.82247   0.88455   0.00000  Uiso   1.00
C247   C     0.61896   0.83992   0.94881   0.00000  Uiso   1.00
C248   C     0.54090   0.69940   0.74798   0.00000  Uiso   1.00
C249   C     0.56704   0.64297   0.72387   0.00000  Uiso   1.00
C250   C     0.52580   0.57833   0.71464   0.00000  Uiso   1.00
C251   C     0.53321   0.81774   0.72010   0.00000  Uiso   1.00
C252   C     0.55286   0.86079   0.67254   0.00000  Uiso   1.00
C253   C     0.50514   0.89576   0.63982   0.00000  Uiso   1.00
H254   H     0.40694   0.75409   0.79941   0.00000  Uiso   1.00
H255   H     0.44821   0.80040   0.92495   0.00000  Uiso   1.00
H256   H     0.38429   0.62093   0.76429   0.00000  Uiso   1.00
H257   H     0.37012   0.83871   0.71297   0.00000  Uiso   1.00
H258   H     0.52264   0.85517   0.05781   0.00000  Uiso   1.00
H259   H     0.38786   0.47676   0.71903   0.00000  Uiso   1.00
H260   H     0.35797   0.93599   0.61080   0.00000  Uiso   1.00
H261   H     0.62787   0.78076   0.75053   0.00000  Uiso   1.00
H262   H     0.68127   0.82853   0.87340   0.00000  Uiso   1.00
H263   H     0.61735   0.64906   0.71274   0.00000  Uiso   1.00
H264   H     0.60318   0.86685   0.66142   0.00000  Uiso   1.00
H265   H     0.71180   0.87800   0.01597   0.00000  Uiso   1.00
H266   H     0.57702   0.49959   0.67719   0.00000  Uiso   1.00
H267   H     0.54713   0.95883   0.56896   0.00000  Uiso   1.00
O268   O     0.64836   0.89751   0.11860   0.00000  Uiso   1.00
O269   O     0.47153   0.40105   0.67412   0.00000  Uiso   1.00
O270   O     0.43231   0.00356   0.53214   0.00000  Uiso   1.00
N271   N     0.55983   0.85400   0.03110   0.00000  Uiso   1.00
N272   N     0.43382   0.50021   0.71437   0.00000  Uiso   1.00
N273   N     0.40587   0.92954   0.61317   0.00000  Uiso   1.00
N274   N     0.66161   0.86629   0.00858   0.00000  Uiso   1.00
N275   N     0.53561   0.51249   0.69185   0.00000  Uiso   1.00
N276   N     0.50765   0.94183   0.59066   0.00000  Uiso   1.00
C277   C     0.67666   0.15680   0.77748   0.00000  Uiso   1.00
C278   C     0.69163   0.12832   0.71029   0.00000  Uiso   1.00
C279   C     0.68827   0.16210   0.65197   0.00000  Uiso   1.00
C280   C     0.70387   0.12731   0.59574   0.00000  Uiso   1.00
C281   C     0.72437   0.09317   0.49110   0.00000  Uiso   1.00
C282   C     0.73916   0.15617   0.82934   0.00000  Uiso   1.00
C283   C     0.77576   0.21336   0.87112   0.00000  Uiso   1.00
C284   C     0.83138   0.20200   0.91512   0.00000  Uiso   1.00
C285   C     0.92564   0.21109   0.99534   0.00000  Uiso   1.00
C286   C     0.62227   0.10241   0.79546   0.00000  Uiso   1.00
C287   C     0.56059   0.11441   0.80878   0.00000  Uiso   1.00
C288   C     0.51779   0.05779   0.82428   0.00000  Uiso   1.00
C289   C     0.43057   0.98341   0.85190   0.00000  Uiso   1.00
C290   C     0.71034   0.03494   0.78133   0.00000  Uiso   1.00
C291   C     0.70992   0.06213   0.71238   0.00000  Uiso   1.00
C292   C     0.72553   0.02728   0.65623   0.00000  Uiso   1.00
C293   C     0.72220   0.06100   0.59783   0.00000  Uiso   1.00
C294   C     0.75746   0.08998   0.83143   0.00000  Uiso   1.00
C295   C     0.81303   0.07854   0.87538   0.00000  Uiso   1.00
C296   C     0.84971   0.13570   0.91722   0.00000  Uiso   1.00
C297   C     0.64056   0.03622   0.79755   0.00000  Uiso   1.00
C298   C     0.59786   0.97958   0.81304   0.00000  Uiso   1.00
C299   C     0.53612   0.99148   0.82637   0.00000  Uiso   1.00
H300   H     0.66242   0.20834   0.77586   0.00000  Uiso   1.00
H301   H     0.67411   0.21333   0.65037   0.00000  Uiso   1.00
H302   H     0.76159   0.26458   0.86950   0.00000  Uiso   1.00
H303   H     0.54645   0.16563   0.80716   0.00000  Uiso   1.00
H304   H     0.69518   0.18969   0.51218   0.00000  Uiso   1.00
H305   H     0.87961   0.29774   0.97423   0.00000  Uiso   1.00
H306   H     0.42595   0.08910   0.84279   0.00000  Uiso   1.00
H307   H     0.72458   0.98341   0.78296   0.00000  Uiso   1.00
H308   H     0.73969   0.97606   0.65786   0.00000  Uiso   1.00
H309   H     0.82717   0.02731   0.87699   0.00000  Uiso   1.00
H310   H     0.61203   0.92836   0.81465   0.00000  Uiso   1.00
H311   H     0.74840   0.99711   0.51825   0.00000  Uiso   1.00
H312   H     0.93284   0.10516   0.98031   0.00000  Uiso   1.00
H313   H     0.47917   0.89652   0.84886   0.00000  Uiso   1.00
O314   O     0.73063   0.09263   0.43280   0.00000  Uiso   1.00
O315   O     0.97259   0.23439   0.03901   0.00000  Uiso   1.00
O316   O     0.37740   0.96066   0.86655   0.00000  Uiso   1.00
N317   N     0.70562   0.14537   0.53077   0.00000  Uiso   1.00
N318   N     0.87806   0.24639   0.96276   0.00000  Uiso   1.00
N319   N     0.45393   0.05134   0.83988   0.00000  Uiso   1.00
N320   N     0.73426   0.04174   0.53404   0.00000  Uiso   1.00
N321   N     0.90670   0.14277   0.96603   0.00000  Uiso   1.00
N322   N     0.48257   0.94771   0.84315   0.00000  Uiso   1.00
C323   C     0.80638   0.66452   0.18295   0.00000  Uiso   1.00
C324   C     0.73438   0.67767   0.17226   0.00000  Uiso   1.00
C325   C     0.69048   0.66680   0.21748   0.00000  Uiso   1.00
C326   C     0.62675   0.68199   0.19832   0.00000  Uiso   1.00
C327   C     0.51787   0.69861   0.19120   0.00000  Uiso   1.00
C328   C     0.84942   0.73344   0.17486   0.00000  Uiso   1.00
C329   C     0.90226   0.76944   0.22226   0.00000  Uiso   1.00
C330   C     0.93538   0.83158   0.20530   0.00000  Uiso   1.00
C331   C     0.00513   0.93475   0.20219   0.00000  Uiso   1.00
C332   C     0.81127   0.61421   0.12331   0.00000  Uiso   1.00
C333   C     0.83204   0.54997   0.12737   0.00000  Uiso   1.00
C334   C     0.83305   0.51172   0.06699   0.00000  Uiso   1.00
C335   C     0.84356   0.42977   0.98385   0.00000  Uiso   1.00
C336   C     0.77126   0.71083   0.06853   0.00000  Uiso   1.00
C337   C     0.71531   0.70282   0.11011   0.00000  Uiso   1.00
C338   C     0.65163   0.71803   0.09088   0.00000  Uiso   1.00
C339   C     0.60764   0.70718   0.13606   0.00000  Uiso   1.00
C340   C     0.83035   0.75859   0.11272   0.00000  Uiso   1.00
C341   C     0.86340   0.82068   0.09567   0.00000  Uiso   1.00
C342   C     0.91627   0.85677   0.14303   0.00000  Uiso   1.00
C343   C     0.79219   0.63936   0.06116   0.00000  Uiso   1.00
C344   C     0.79318   0.60121   0.00077   0.00000  Uiso   1.00
C345   C     0.81394   0.53692   0.00473   0.00000  Uiso   1.00
H346   H     0.82123   0.64494   0.23133   0.00000  Uiso   1.00
H347   H     0.70527   0.64734   0.26557   0.00000  Uiso   1.00
H348   H     0.91701   0.74996   0.27035   0.00000  Uiso   1.00
H349   H     0.84680   0.53052   0.17547   0.00000  Uiso   1.00
H350   H     0.56829   0.66111   0.27613   0.00000  Uiso   1.00
H351   H     0.01478   0.87749   0.28621   0.00000  Uiso   1.00
H352   H     0.86672   0.41476   0.08612   0.00000  Uiso   1.00
H353   H     0.75641   0.73041   0.02014   0.00000  Uiso   1.00
H354   H     0.63688   0.73749   0.04278   0.00000  Uiso   1.00
H355   H     0.84863   0.84012   0.04757   0.00000  Uiso   1.00
H356   H     0.77841   0.62069   0.95269   0.00000  Uiso   1.00
H357   H     0.51279   0.73428   0.09531   0.00000  Uiso   1.00
H358   H     0.95928   0.95067   0.10539   0.00000  Uiso   1.00
H359   H     0.81122   0.48794   0.90530   0.00000  Uiso   1.00
O360   O     0.46309   0.70083   0.20444   0.00000  Uiso   1.00
O361   O     0.04888   0.98471   0.21765   0.00000  Uiso   1.00
O362   O     0.85462   0.37762   0.95515   0.00000  Uiso   1.00
N363   N     0.57163   0.67734   0.23046   0.00000  Uiso   1.00
N364   N     0.98907   0.87965   0.23989   0.00000  Uiso   1.00
N365   N     0.85066   0.44705   0.05283   0.00000  Uiso   1.00
N366   N     0.54176   0.71672   0.13316   0.00000  Uiso   1.00
N367   N     0.95920   0.91903   0.14259   0.00000  Uiso   1.00
N368   N     0.82079   0.48642   0.95553   0.00000  Uiso   1.00
C369   C     0.18333   0.80279   0.65839   0.00000  Uiso   1.00
C370   C     0.19329   0.72893   0.67233   0.00000  Uiso   1.00
C371   C     0.24580   0.69701   0.65754   0.00000  Uiso   1.00
C372   C     0.24593   0.62917   0.67425   0.00000  Uiso   1.00
C373   C     0.26911   0.51977   0.69129   0.00000  Uiso   1.00
C374   C     0.17867   0.84012   0.72598   0.00000  Uiso   1.00
C375   C     0.21887   0.90168   0.75629   0.00000  Uiso   1.00
C376   C     0.20667   0.92745   0.81816   0.00000  Uiso   1.00
C377   C     0.20712   0.99069   0.91846   0.00000  Uiso   1.00
C378   C     0.11419   0.79568   0.61525   0.00000  Uiso   1.00
C379   C     0.10018   0.81989   0.55246   0.00000  Uiso   1.00
C380   C     0.03369   0.80825   0.52111   0.00000  Uiso   1.00
C381   C     0.93402   0.80249   0.44949   0.00000  Uiso   1.00
C382   C     0.09016   0.73910   0.71437   0.00000  Uiso   1.00
C383   C     0.14269   0.69434   0.70274   0.00000  Uiso   1.00
C384   C     0.14272   0.62654   0.71947   0.00000  Uiso   1.00
C385   C     0.19523   0.59451   0.70471   0.00000  Uiso   1.00
C386   C     0.12806   0.80553   0.75638   0.00000  Uiso   1.00
C387   C     0.11579   0.83121   0.81822   0.00000  Uiso   1.00
C388   C     0.15598   0.89280   0.84862   0.00000  Uiso   1.00
C389   C     0.06358   0.76108   0.64565   0.00000  Uiso   1.00
C390   C     0.99710   0.74941   0.61439   0.00000  Uiso   1.00
C391   C     0.98299   0.77360   0.55157   0.00000  Uiso   1.00
H392   H     0.22273   0.82973   0.63473   0.00000  Uiso   1.00
H393   H     0.28496   0.72380   0.63401   0.00000  Uiso   1.00
H394   H     0.25803   0.92845   0.73274   0.00000  Uiso   1.00
H395   H     0.13935   0.84666   0.52895   0.00000  Uiso   1.00
H396   H     0.33165   0.59111   0.64666   0.00000  Uiso   1.00
H397   H     0.27485   0.02263   0.85482   0.00000  Uiso   1.00
H398   H     0.02460   0.85017   0.42507   0.00000  Uiso   1.00
H399   H     0.05076   0.71217   0.73804   0.00000  Uiso   1.00
H400   H     0.10356   0.59978   0.74300   0.00000  Uiso   1.00
H401   H     0.07663   0.80443   0.84173   0.00000  Uiso   1.00
H402   H     0.95795   0.72264   0.63793   0.00000  Uiso   1.00
H403   H     0.18442   0.49045   0.73512   0.00000  Uiso   1.00
H404   H     0.12762   0.92198   0.94328   0.00000  Uiso   1.00
H405   H     0.87737   0.74951   0.51353   0.00000  Uiso   1.00
O406   O     0.29588   0.46898   0.69230   0.00000  Uiso   1.00
O407   O     0.22135   0.03513   0.96539   0.00000  Uiso   1.00
O408   O     0.89303   0.80886   0.40158   0.00000  Uiso   1.00
N409   N     0.28975   0.58284   0.66678   0.00000  Uiso   1.00
N410   N     0.23665   0.98628   0.86141   0.00000  Uiso   1.00
N411   N     0.00268   0.82506   0.45964   0.00000  Uiso   1.00
N412   N     0.21052   0.52867   0.71438   0.00000  Uiso   1.00
N413   N     0.15742   0.93212   0.90901   0.00000  Uiso   1.00
N414   N     0.92346   0.77090   0.50724   0.00000  Uiso   1.00
C415   C     0.26511   0.22744   0.53487   0.00000  Uiso   1.00
C416   C     0.22237   0.16755   0.48687   0.00000  Uiso   1.00
C417   C     0.18713   0.10758   0.50566   0.00000  Uiso   1.00
C418   C     0.15104   0.05896   0.45415   0.00000  Uiso   1.00
C419   C     0.08483   0.96428   0.38993   0.00000  Uiso   1.00
C420   C     0.33456   0.23564   0.51584   0.00000  Uiso   1.00
C421   C     0.39364   0.23292   0.55899   0.00000  Uiso   1.00
C422   C     0.45199   0.24162   0.53188   0.00000  Uiso   1.00
C423   C     0.55996   0.25270   0.51265   0.00000  Uiso   1.00
C424   C     0.23741   0.29303   0.51633   0.00000  Uiso   1.00
C425   C     0.21482   0.33859   0.55990   0.00000  Uiso   1.00
C426   C     0.19138   0.39563   0.53320   0.00000  Uiso   1.00
C427   C     0.14851   0.49582   0.51473   0.00000  Uiso   1.00
C428   C     0.26367   0.24774   0.40999   0.00000  Uiso   1.00
C429   C     0.22160   0.17858   0.41904   0.00000  Uiso   1.00
C430   C     0.18554   0.13004   0.36749   0.00000  Uiso   1.00
C431   C     0.15025   0.07001   0.38620   0.00000  Uiso   1.00
C432   C     0.33378   0.24666   0.44801   0.00000  Uiso   1.00
C433   C     0.39206   0.25538   0.42083   0.00000  Uiso   1.00
C434   C     0.45121   0.25267   0.46392   0.00000  Uiso   1.00
C435   C     0.23663   0.30406   0.44850   0.00000  Uiso   1.00
C436   C     0.21323   0.36105   0.42173   0.00000  Uiso   1.00
C437   C     0.19061   0.40668   0.46525   0.00000  Uiso   1.00
H438   H     0.26572   0.21886   0.58768   0.00000  Uiso   1.00
H439   H     0.18775   0.09907   0.55816   0.00000  Uiso   1.00
H440   H     0.39423   0.22439   0.61148   0.00000  Uiso   1.00
H441   H     0.21543   0.33004   0.61239   0.00000  Uiso   1.00
H442   H     0.10099   0.97111   0.49551   0.00000  Uiso   1.00
H443   H     0.53636   0.23539   0.60796   0.00000  Uiso   1.00
H444   H     0.15933   0.45818   0.60987   0.00000  Uiso   1.00
H445   H     0.26307   0.25632   0.35718   0.00000  Uiso   1.00
H446   H     0.18495   0.13859   0.31500   0.00000  Uiso   1.00
H447   H     0.39143   0.26391   0.36833   0.00000  Uiso   1.00
H448   H     0.21263   0.36956   0.36924   0.00000  Uiso   1.00
H449   H     0.09872   0.00318   0.29816   0.00000  Uiso   1.00
H450   H     0.53410   0.26747   0.41061   0.00000  Uiso   1.00
H451   H     0.15706   0.49025   0.41251   0.00000  Uiso   1.00
O452   O     0.04854   0.90901   0.37325   0.00000  Uiso   1.00
O453   O     0.61973   0.25575   0.52078   0.00000  Uiso   1.00
O454   O     0.12507   0.54803   0.52328   0.00000  Uiso   1.00
N455   N     0.11117   0.99482   0.45485   0.00000  Uiso   1.00
N456   N     0.51821   0.24190   0.55998   0.00000  Uiso   1.00
N457   N     0.16574   0.45019   0.56177   0.00000  Uiso   1.00
N458   N     0.10994   0.01208   0.34866   0.00000  Uiso   1.00
N459   N     0.51699   0.25916   0.45379   0.00000  Uiso   1.00
N460   N     0.16451   0.46745   0.45558   0.00000  Uiso   1.00
C461   C     0.24827   0.56542   0.22993   0.00000  Uiso   1.00
C462   C     0.18690   0.50891   0.20788   0.00000  Uiso   1.00
C463   C     0.12190   0.52023   0.18817   0.00000  Uiso   1.00
C464   C     0.07273   0.46163   0.16984   0.00000  Uiso   1.00
C465   C     0.97509   0.38414   0.13543   0.00000  Uiso   1.00
C466   C     0.27973   0.55069   0.29995   0.00000  Uiso   1.00
C467   C     0.29278   0.59714   0.35766   0.00000  Uiso   1.00
C468   C     0.32177   0.57370   0.41683   0.00000  Uiso   1.00
C469   C     0.36829   0.56110   0.52535   0.00000  Uiso   1.00
C470   C     0.29757   0.55154   0.18367   0.00000  Uiso   1.00
C471   C     0.32566   0.59871   0.14361   0.00000  Uiso   1.00
C472   C     0.36969   0.57600   0.10489   0.00000  Uiso   1.00
C473   C     0.44392   0.56472   0.03287   0.00000  Uiso   1.00
C474   C     0.27655   0.44121   0.23242   0.00000  Uiso   1.00
C475   C     0.20225   0.44144   0.20924   0.00000  Uiso   1.00
C476   C     0.15318   0.38281   0.19093   0.00000  Uiso   1.00
C477   C     0.08812   0.39404   0.17119   0.00000  Uiso   1.00
C478   C     0.29508   0.48322   0.30131   0.00000  Uiso   1.00
C479   C     0.32406   0.45972   0.36041   0.00000  Uiso   1.00
C480   C     0.33716   0.50612   0.41818   0.00000  Uiso   1.00
C481   C     0.31293   0.48407   0.18502   0.00000  Uiso   1.00
C482   C     0.35693   0.46129   0.14636   0.00000  Uiso   1.00
C483   C     0.38507   0.50842   0.10625   0.00000  Uiso   1.00
H484   H     0.23632   0.61794   0.22888   0.00000  Uiso   1.00
H485   H     0.11003   0.57245   0.18714   0.00000  Uiso   1.00
H486   H     0.28090   0.64935   0.35659   0.00000  Uiso   1.00
H487   H     0.31376   0.65092   0.14258   0.00000  Uiso   1.00
H488   H     0.97679   0.49226   0.14148   0.00000  Uiso   1.00
H489   H     0.33709   0.65441   0.49877   0.00000  Uiso   1.00
H490   H     0.40639   0.65773   0.04749   0.00000  Uiso   1.00
H491   H     0.28850   0.38868   0.23347   0.00000  Uiso   1.00
H492   H     0.16508   0.33060   0.19198   0.00000  Uiso   1.00
H493   H     0.33594   0.40751   0.36143   0.00000  Uiso   1.00
H494   H     0.36880   0.40908   0.14742   0.00000  Uiso   1.00
H495   H     0.02146   0.29597   0.14541   0.00000  Uiso   1.00
H496   H     0.38177   0.45812   0.50270   0.00000  Uiso   1.00
H497   H     0.45106   0.46144   0.05142   0.00000  Uiso   1.00
O498   O     0.91699   0.36004   0.11609   0.00000  Uiso   1.00
O499   O     0.38970   0.57279   0.58484   0.00000  Uiso   1.00
O500   O     0.48061   0.57714   0.99276   0.00000  Uiso   1.00
N501   N     0.00424   0.45403   0.14809   0.00000  Uiso   1.00
N502   N     0.34110   0.60563   0.48214   0.00000  Uiso   1.00
N503   N     0.40590   0.60874   0.06024   0.00000  Uiso   1.00
N504   N     0.02828   0.34841   0.15020   0.00000  Uiso   1.00
N505   N     0.36513   0.50001   0.48425   0.00000  Uiso   1.00
N506   N     0.42993   0.50312   0.06235   0.00000  Uiso   1.00
C507   C     0.54245   0.23979   0.21179   0.00000  Uiso   1.00
C508   C     0.48939   0.21093   0.15035   0.00000  Uiso   1.00
C509   C     0.50147   0.19352   0.08616   0.00000  Uiso   1.00
C510   C     0.44617   0.16795   0.03679   0.00000  Uiso   1.00
C511   C     0.37367   0.12436   0.93920   0.00000  Uiso   1.00
C512   C     0.52411   0.30845   0.23764   0.00000  Uiso   1.00
C513   C     0.56540   0.37302   0.24683   0.00000  Uiso   1.00
C514   C     0.53933   0.42953   0.27095   0.00000  Uiso   1.00
C515   C     0.52076   0.53732   0.30891   0.00000  Uiso   1.00
C516   C     0.53181   0.19011   0.26552   0.00000  Uiso   1.00
C517   C     0.57958   0.15520   0.29817   0.00000  Uiso   1.00
C518   C     0.56000   0.11210   0.34577   0.00000  Uiso   1.00
C519   C     0.55338   0.03616   0.42702   0.00000  Uiso   1.00
C520   C     0.42275   0.22535   0.23827   0.00000  Uiso   1.00
C521   C     0.42437   0.20309   0.16474   0.00000  Uiso   1.00
C522   C     0.36904   0.17753   0.11545   0.00000  Uiso   1.00
C523   C     0.38104   0.16008   0.05119   0.00000  Uiso   1.00
C524   C     0.45910   0.30060   0.25202   0.00000  Uiso   1.00
C525   C     0.43296   0.35703   0.27613   0.00000  Uiso   1.00
C526   C     0.47420   0.42167   0.28536   0.00000  Uiso   1.00
C527   C     0.46679   0.18226   0.27990   0.00000  Uiso   1.00
C528   C     0.44714   0.13921   0.32746   0.00000  Uiso   1.00
C529   C     0.49486   0.10424   0.36018   0.00000  Uiso   1.00
H530   H     0.59306   0.24591   0.20059   0.00000  Uiso   1.00
H531   H     0.55179   0.19960   0.07505   0.00000  Uiso   1.00
H532   H     0.61571   0.37907   0.23571   0.00000  Uiso   1.00
H533   H     0.62988   0.16129   0.28703   0.00000  Uiso   1.00
H534   H     0.47736   0.14483   0.94219   0.00000  Uiso   1.00
H535   H     0.61214   0.52324   0.28097   0.00000  Uiso   1.00
H536   H     0.64203   0.06401   0.38920   0.00000  Uiso   1.00
H537   H     0.37213   0.21924   0.24947   0.00000  Uiso   1.00
H538   H     0.31873   0.17147   0.12660   0.00000  Uiso   1.00
H539   H     0.38265   0.35094   0.28726   0.00000  Uiso   1.00
H540   H     0.39682   0.13315   0.33858   0.00000  Uiso   1.00
H541   H     0.28820   0.12200   0.98403   0.00000  Uiso   1.00
H542   H     0.42298   0.50041   0.32281   0.00000  Uiso   1.00
H543   H     0.45287   0.04117   0.43104   0.00000  Uiso   1.00
O544   O     0.35164   0.10249   0.88140   0.00000  Uiso   1.00
O545   O     0.52847   0.59895   0.32588   0.00000  Uiso   1.00
O546   O     0.56769   0.99644   0.46786   0.00000  Uiso   1.00
N547   N     0.44017   0.14600   0.96890   0.00000  Uiso   1.00
N548   N     0.56618   0.49979   0.28563   0.00000  Uiso   1.00
N549   N     0.59413   0.07046   0.38683   0.00000  Uiso   1.00
N550   N     0.33839   0.13371   0.99142   0.00000  Uiso   1.00
N551   N     0.46439   0.48751   0.30815   0.00000  Uiso   1.00
N552   N     0.49235   0.05817   0.40934   0.00000  Uiso   1.00
