data_job_01926
_audit_creation_date              2018-12-19
_audit_creation_method            'Materials Studio'
_symmetry_space_group_name_H-M    'P1'
_symmetry_Int_Tables_number       1
_symmetry_cell_setting            triclinic
loop_
_symmetry_equiv_pos_as_xyz
  x,y,z
_cell_length_a                    16.5437
_cell_length_b                    12.5574
_cell_length_c                    12.6662
_cell_angle_alpha                 90.0000
_cell_angle_beta                  90.0000
_cell_angle_gamma                 90.0000
loop_
_atom_site_label
_atom_site_type_symbol
_atom_site_fract_x
_atom_site_fract_y
_atom_site_fract_z
_atom_site_U_iso_or_equiv
_atom_site_adp_type
_atom_site_occupancy
C1     C     0.26881   0.62501   0.48354   0.00000  Uiso   1.00
C2     C     0.24522   0.68237   0.58508   0.00000  Uiso   1.00
C3     C     0.17678   0.66201   0.64513   0.00000  Uiso   1.00
C4     C     0.16603   0.72318   0.73535   0.00000  Uiso   1.00
C5     C     0.12090   0.80032   0.88858   0.00000  Uiso   1.00
C6     C     0.27817   0.71142   0.39984   0.00000  Uiso   1.00
C7     C     0.23744   0.71547   0.30413   0.00000  Uiso   1.00
C8     C     0.25443   0.80108   0.23841   0.00000  Uiso   1.00
C9     C     0.26049   0.92328   0.10401   0.00000  Uiso   1.00
C10    C     0.35336   0.58050   0.50232   0.00000  Uiso   1.00
C11    C     0.37585   0.47446   0.49275   0.00000  Uiso   1.00
C12    C     0.45615   0.44985   0.51329   0.00000  Uiso   1.00
C13    C     0.57895   0.36877   0.53801   0.00000  Uiso   1.00
C14    C     0.37142   0.76985   0.53699   0.00000  Uiso   1.00
C15    C     0.30095   0.76105   0.61411   0.00000  Uiso   1.00
C16    C     0.29030   0.82226   0.70427   0.00000  Uiso   1.00
C17    C     0.22186   0.80199   0.76444   0.00000  Uiso   1.00
C18    C     0.33390   0.79009   0.42886   0.00000  Uiso   1.00
C19    C     0.35096   0.87572   0.36327   0.00000  Uiso   1.00
C20    C     0.31026   0.87990   0.26749   0.00000  Uiso   1.00
C21    C     0.40909   0.65917   0.53135   0.00000  Uiso   1.00
C22    C     0.48937   0.63471   0.55190   0.00000  Uiso   1.00
C23    C     0.51198   0.52867   0.54237   0.00000  Uiso   1.00
H24    H     0.22543   0.56376   0.46093   0.00000  Uiso   1.00
H25    H     0.13366   0.60113   0.62263   0.00000  Uiso   1.00
H26    H     0.19432   0.65457   0.28168   0.00000  Uiso   1.00
H27    H     0.33271   0.41361   0.47029   0.00000  Uiso   1.00
H28    H     0.05649   0.67727   0.81469   0.00000  Uiso   1.00
H29    H     0.18441   0.78994   0.09577   0.00000  Uiso   1.00
H30    H     0.47623   0.28182   0.49347   0.00000  Uiso   1.00
H31    H     0.41481   0.83110   0.55959   0.00000  Uiso   1.00
H32    H     0.33344   0.88314   0.72671   0.00000  Uiso   1.00
H33    H     0.39409   0.93658   0.38576   0.00000  Uiso   1.00
H34    H     0.53248   0.69561   0.57436   0.00000  Uiso   1.00
H35    H     0.21863   0.90617   0.89916   0.00000  Uiso   1.00
H36    H     0.34655   0.01883   0.18023   0.00000  Uiso   1.00
H37    H     0.63837   0.51071   0.57794   0.00000  Uiso   1.00
O38    O     0.08060   0.82115   0.96506   0.00000  Uiso   1.00
O39    O     0.24843   0.96895   0.02186   0.00000  Uiso   1.00
O40    O     0.63129   0.30231   0.54364   0.00000  Uiso   1.00
N41    N     0.10583   0.72399   0.81164   0.00000  Uiso   1.00
N42    N     0.22541   0.82933   0.13950   0.00000  Uiso   1.00
N43    N     0.49824   0.35428   0.51129   0.00000  Uiso   1.00
N44    N     0.19307   0.84715   0.85710   0.00000  Uiso   1.00
N45    N     0.31266   0.95250   0.18496   0.00000  Uiso   1.00
N46    N     0.58549   0.47745   0.55675   0.00000  Uiso   1.00
C47    C     0.23119   0.37499   0.98354   0.00000  Uiso   1.00
C48    C     0.25478   0.31763   0.08508   0.00000  Uiso   1.00
C49    C     0.32322   0.33799   0.14513   0.00000  Uiso   1.00
C50    C     0.33397   0.27682   0.23535   0.00000  Uiso   1.00
C51    C     0.37910   0.19968   0.38858   0.00000  Uiso   1.00
C52    C     0.22183   0.28858   0.89984   0.00000  Uiso   1.00
C53    C     0.26256   0.28453   0.80413   0.00000  Uiso   1.00
C54    C     0.24557   0.19892   0.73841   0.00000  Uiso   1.00
C55    C     0.23951   0.07672   0.60401   0.00000  Uiso   1.00
C56    C     0.14664   0.41950   0.00232   0.00000  Uiso   1.00
C57    C     0.12415   0.52554   0.99275   0.00000  Uiso   1.00
C58    C     0.04385   0.55015   0.01329   0.00000  Uiso   1.00
C59    C     0.92105   0.63123   0.03801   0.00000  Uiso   1.00
C60    C     0.12858   0.23015   0.03699   0.00000  Uiso   1.00
C61    C     0.19905   0.23895   0.11411   0.00000  Uiso   1.00
C62    C     0.20970   0.17774   0.20427   0.00000  Uiso   1.00
C63    C     0.27814   0.19801   0.26444   0.00000  Uiso   1.00
C64    C     0.16610   0.20991   0.92886   0.00000  Uiso   1.00
C65    C     0.14904   0.12428   0.86327   0.00000  Uiso   1.00
C66    C     0.18974   0.12010   0.76749   0.00000  Uiso   1.00
C67    C     0.09091   0.34083   0.03135   0.00000  Uiso   1.00
C68    C     0.01063   0.36529   0.05190   0.00000  Uiso   1.00
C69    C     0.98802   0.47133   0.04237   0.00000  Uiso   1.00
H70    H     0.27457   0.43624   0.96093   0.00000  Uiso   1.00
H71    H     0.36634   0.39887   0.12263   0.00000  Uiso   1.00
H72    H     0.30568   0.34543   0.78168   0.00000  Uiso   1.00
H73    H     0.16729   0.58639   0.97029   0.00000  Uiso   1.00
H74    H     0.44351   0.32273   0.31469   0.00000  Uiso   1.00
H75    H     0.31559   0.21006   0.59577   0.00000  Uiso   1.00
H76    H     0.02377   0.71818   0.99347   0.00000  Uiso   1.00
H77    H     0.08519   0.16890   0.05959   0.00000  Uiso   1.00
H78    H     0.16656   0.11686   0.22671   0.00000  Uiso   1.00
H79    H     0.10591   0.06342   0.88576   0.00000  Uiso   1.00
H80    H     0.96752   0.30439   0.07436   0.00000  Uiso   1.00
H81    H     0.28137   0.09383   0.39916   0.00000  Uiso   1.00
H82    H     0.15345   0.98117   0.68023   0.00000  Uiso   1.00
H83    H     0.86163   0.48929   0.07794   0.00000  Uiso   1.00
O84    O     0.41940   0.17885   0.46506   0.00000  Uiso   1.00
O85    O     0.25157   0.03105   0.52186   0.00000  Uiso   1.00
O86    O     0.86871   0.69769   0.04364   0.00000  Uiso   1.00
N87    N     0.39417   0.27601   0.31164   0.00000  Uiso   1.00
N88    N     0.27459   0.17067   0.63950   0.00000  Uiso   1.00
N89    N     0.00176   0.64572   0.01129   0.00000  Uiso   1.00
N90    N     0.30693   0.15285   0.35710   0.00000  Uiso   1.00
N91    N     0.18734   0.04750   0.68496   0.00000  Uiso   1.00
N92    N     0.91451   0.52255   0.05675   0.00000  Uiso   1.00
C93    C     0.73119   0.12501   0.01646   0.00000  Uiso   1.00
C94    C     0.75478   0.18237   0.91492   0.00000  Uiso   1.00
C95    C     0.82322   0.16201   0.85487   0.00000  Uiso   1.00
C96    C     0.83397   0.22318   0.76465   0.00000  Uiso   1.00
C97    C     0.87910   0.30032   0.61142   0.00000  Uiso   1.00
C98    C     0.72183   0.21142   0.10016   0.00000  Uiso   1.00
C99    C     0.76256   0.21547   0.19587   0.00000  Uiso   1.00
C100   C     0.74557   0.30108   0.26159   0.00000  Uiso   1.00
C101   C     0.73951   0.42328   0.39599   0.00000  Uiso   1.00
C102   C     0.64664   0.08050   0.99768   0.00000  Uiso   1.00
C103   C     0.62415   0.97446   0.00725   0.00000  Uiso   1.00
C104   C     0.54385   0.94985   0.98671   0.00000  Uiso   1.00
C105   C     0.42105   0.86877   0.96199   0.00000  Uiso   1.00
C106   C     0.62858   0.26985   0.96301   0.00000  Uiso   1.00
C107   C     0.69905   0.26105   0.88589   0.00000  Uiso   1.00
C108   C     0.70970   0.32226   0.79573   0.00000  Uiso   1.00
C109   C     0.77814   0.30199   0.73556   0.00000  Uiso   1.00
C110   C     0.66610   0.29009   0.07114   0.00000  Uiso   1.00
C111   C     0.64904   0.37572   0.13673   0.00000  Uiso   1.00
C112   C     0.68974   0.37990   0.23251   0.00000  Uiso   1.00
C113   C     0.59091   0.15917   0.96865   0.00000  Uiso   1.00
C114   C     0.51063   0.13471   0.94810   0.00000  Uiso   1.00
C115   C     0.48802   0.02867   0.95763   0.00000  Uiso   1.00
H116   H     0.77457   0.06376   0.03907   0.00000  Uiso   1.00
H117   H     0.86634   0.10113   0.87737   0.00000  Uiso   1.00
H118   H     0.80568   0.15457   0.21832   0.00000  Uiso   1.00
H119   H     0.66729   0.91361   0.02971   0.00000  Uiso   1.00
H120   H     0.94351   0.17727   0.68531   0.00000  Uiso   1.00
H121   H     0.81559   0.28994   0.40423   0.00000  Uiso   1.00
H122   H     0.52377   0.78182   0.00653   0.00000  Uiso   1.00
H123   H     0.58519   0.33110   0.94041   0.00000  Uiso   1.00
H124   H     0.66656   0.38314   0.77329   0.00000  Uiso   1.00
H125   H     0.60591   0.43658   0.11424   0.00000  Uiso   1.00
H126   H     0.46752   0.19561   0.92564   0.00000  Uiso   1.00
H127   H     0.78137   0.40617   0.60084   0.00000  Uiso   1.00
H128   H     0.65345   0.51883   0.31977   0.00000  Uiso   1.00
H129   H     0.36163   0.01071   0.92206   0.00000  Uiso   1.00
O130   O     0.91940   0.32115   0.53494   0.00000  Uiso   1.00
O131   O     0.75157   0.46895   0.47814   0.00000  Uiso   1.00
O132   O     0.36871   0.80231   0.95636   0.00000  Uiso   1.00
N133   N     0.89417   0.22399   0.68836   0.00000  Uiso   1.00
N134   N     0.77459   0.32933   0.36050   0.00000  Uiso   1.00
N135   N     0.50176   0.85428   0.98871   0.00000  Uiso   1.00
N136   N     0.80693   0.34715   0.64290   0.00000  Uiso   1.00
N137   N     0.68734   0.45250   0.31504   0.00000  Uiso   1.00
N138   N     0.41451   0.97745   0.94325   0.00000  Uiso   1.00
C139   C     0.76881   0.87499   0.51646   0.00000  Uiso   1.00
C140   C     0.74522   0.81763   0.41492   0.00000  Uiso   1.00
C141   C     0.67678   0.83799   0.35487   0.00000  Uiso   1.00
C142   C     0.66603   0.77682   0.26465   0.00000  Uiso   1.00
C143   C     0.62090   0.69968   0.11142   0.00000  Uiso   1.00
C144   C     0.77817   0.78858   0.60016   0.00000  Uiso   1.00
C145   C     0.73744   0.78453   0.69587   0.00000  Uiso   1.00
C146   C     0.75443   0.69892   0.76159   0.00000  Uiso   1.00
C147   C     0.76049   0.57672   0.89599   0.00000  Uiso   1.00
C148   C     0.85336   0.91950   0.49768   0.00000  Uiso   1.00
C149   C     0.87585   0.02554   0.50725   0.00000  Uiso   1.00
C150   C     0.95615   0.05015   0.48671   0.00000  Uiso   1.00
C151   C     0.07895   0.13123   0.46199   0.00000  Uiso   1.00
C152   C     0.87142   0.73015   0.46301   0.00000  Uiso   1.00
C153   C     0.80095   0.73895   0.38589   0.00000  Uiso   1.00
C154   C     0.79030   0.67774   0.29573   0.00000  Uiso   1.00
C155   C     0.72186   0.69801   0.23556   0.00000  Uiso   1.00
C156   C     0.83390   0.70991   0.57114   0.00000  Uiso   1.00
C157   C     0.85096   0.62428   0.63673   0.00000  Uiso   1.00
C158   C     0.81026   0.62010   0.73251   0.00000  Uiso   1.00
C159   C     0.90909   0.84083   0.46865   0.00000  Uiso   1.00
C160   C     0.98937   0.86529   0.44810   0.00000  Uiso   1.00
C161   C     0.01198   0.97133   0.45763   0.00000  Uiso   1.00
H162   H     0.72543   0.93624   0.53907   0.00000  Uiso   1.00
H163   H     0.63366   0.89887   0.37737   0.00000  Uiso   1.00
H164   H     0.69432   0.84543   0.71832   0.00000  Uiso   1.00
H165   H     0.83271   0.08639   0.52971   0.00000  Uiso   1.00
H166   H     0.55649   0.82273   0.18531   0.00000  Uiso   1.00
H167   H     0.68441   0.71006   0.90423   0.00000  Uiso   1.00
H168   H     0.97623   0.21818   0.50653   0.00000  Uiso   1.00
H169   H     0.91481   0.66890   0.44041   0.00000  Uiso   1.00
H170   H     0.83344   0.61686   0.27329   0.00000  Uiso   1.00
H171   H     0.89409   0.56342   0.61424   0.00000  Uiso   1.00
H172   H     0.03248   0.80439   0.42564   0.00000  Uiso   1.00
H173   H     0.71863   0.59383   0.10084   0.00000  Uiso   1.00
H174   H     0.84655   0.48117   0.81977   0.00000  Uiso   1.00
H175   H     0.13837   0.98929   0.42206   0.00000  Uiso   1.00
O176   O     0.58060   0.67885   0.03494   0.00000  Uiso   1.00
O177   O     0.74843   0.53105   0.97814   0.00000  Uiso   1.00
O178   O     0.13129   0.19769   0.45636   0.00000  Uiso   1.00
N179   N     0.60583   0.77601   0.18836   0.00000  Uiso   1.00
N180   N     0.72541   0.67067   0.86050   0.00000  Uiso   1.00
N181   N     0.99824   0.14572   0.48871   0.00000  Uiso   1.00
N182   N     0.69307   0.65285   0.14290   0.00000  Uiso   1.00
N183   N     0.81266   0.54750   0.81504   0.00000  Uiso   1.00
N184   N     0.08549   0.02255   0.44325   0.00000  Uiso   1.00
