data_job_03904
_audit_creation_date              2018-12-19
_audit_creation_method            'Materials Studio'
_symmetry_space_group_name_H-M    'P1'
_symmetry_Int_Tables_number       1
_symmetry_cell_setting            triclinic
loop_
_symmetry_equiv_pos_as_xyz
  x,y,z
_cell_length_a                    28.9047
_cell_length_b                    9.7630
_cell_length_c                    28.1051
_cell_angle_alpha                 90.0000
_cell_angle_beta                  90.0000
_cell_angle_gamma                 90.0000
loop_
_atom_site_label
_atom_site_type_symbol
_atom_site_fract_x
_atom_site_fract_y
_atom_site_fract_z
_atom_site_U_iso_or_equiv
_atom_site_adp_type
_atom_site_occupancy
C1     C     0.38360   0.81286   0.17780   0.00000  Uiso   1.00
C2     C     0.33520   0.76328   0.19081   0.00000  Uiso   1.00
C3     C     0.29397   0.82266   0.17616   0.00000  Uiso   1.00
C4     C     0.25332   0.76199   0.19192   0.00000  Uiso   1.00
C5     C     0.17807   0.70267   0.20768   0.00000  Uiso   1.00
C6     C     0.40849   0.83807   0.22483   0.00000  Uiso   1.00
C7     C     0.42889   0.96034   0.23877   0.00000  Uiso   1.00
C8     C     0.44995   0.96261   0.28317   0.00000  Uiso   1.00
C9     C     0.48852   0.01939   0.35173   0.00000  Uiso   1.00
C10    C     0.40788   0.69103   0.15480   0.00000  Uiso   1.00
C11    C     0.42778   0.68966   0.10986   0.00000  Uiso   1.00
C12    C     0.44834   0.56814   0.09530   0.00000  Uiso   1.00
C13    C     0.48596   0.39661   0.05513   0.00000  Uiso   1.00
C14    C     0.38473   0.59950   0.23185   0.00000  Uiso   1.00
C15    C     0.33581   0.64739   0.22017   0.00000  Uiso   1.00
C16    C     0.29521   0.58661   0.23596   0.00000  Uiso   1.00
C17    C     0.25393   0.64589   0.22133   0.00000  Uiso   1.00
C18    C     0.40910   0.72219   0.25419   0.00000  Uiso   1.00
C19    C     0.43014   0.72428   0.29857   0.00000  Uiso   1.00
C20    C     0.45056   0.84652   0.31258   0.00000  Uiso   1.00
C21    C     0.40849   0.57514   0.18416   0.00000  Uiso   1.00
C22    C     0.42902   0.45360   0.16966   0.00000  Uiso   1.00
C23    C     0.44895   0.45205   0.12471   0.00000  Uiso   1.00
H24    H     0.38313   0.90308   0.15494   0.00000  Uiso   1.00
H25    H     0.29351   0.91235   0.15344   0.00000  Uiso   1.00
H26    H     0.42842   0.04999   0.21604   0.00000  Uiso   1.00
H27    H     0.42730   0.77936   0.08715   0.00000  Uiso   1.00
H28    H     0.19443   0.87154   0.16474   0.00000  Uiso   1.00
H29    H     0.47890   0.16177   0.29673   0.00000  Uiso   1.00
H30    H     0.47655   0.59108   0.02494   0.00000  Uiso   1.00
H31    H     0.38520   0.50928   0.25471   0.00000  Uiso   1.00
H32    H     0.29570   0.49693   0.25868   0.00000  Uiso   1.00
H33    H     0.43060   0.63458   0.32128   0.00000  Uiso   1.00
H34    H     0.42949   0.36395   0.19239   0.00000  Uiso   1.00
H35    H     0.19620   0.53438   0.25015   0.00000  Uiso   1.00
H36    H     0.48067   0.82461   0.38214   0.00000  Uiso   1.00
H37    H     0.47832   0.25391   0.11036   0.00000  Uiso   1.00
O38    O     0.13640   0.70197   0.20827   0.00000  Uiso   1.00
O39    O     0.50962   0.08273   0.38143   0.00000  Uiso   1.00
O40    O     0.50654   0.33400   0.02485   0.00000  Uiso   1.00
N41    N     0.20713   0.79387   0.18429   0.00000  Uiso   1.00
N42    N     0.47308   0.06522   0.30769   0.00000  Uiso   1.00
N43    N     0.47090   0.53168   0.05360   0.00000  Uiso   1.00
N44    N     0.20808   0.61244   0.23025   0.00000  Uiso   1.00
N45    N     0.47404   0.88379   0.35366   0.00000  Uiso   1.00
N46    N     0.47185   0.35026   0.09956   0.00000  Uiso   1.00
C47    C     0.11640   0.68714   0.67780   0.00000  Uiso   1.00
C48    C     0.16480   0.73672   0.69081   0.00000  Uiso   1.00
C49    C     0.20603   0.67734   0.67616   0.00000  Uiso   1.00
C50    C     0.24668   0.73801   0.69192   0.00000  Uiso   1.00
C51    C     0.32193   0.79733   0.70768   0.00000  Uiso   1.00
C52    C     0.09151   0.66193   0.72483   0.00000  Uiso   1.00
C53    C     0.07111   0.53966   0.73877   0.00000  Uiso   1.00
C54    C     0.05005   0.53739   0.78317   0.00000  Uiso   1.00
C55    C     0.01148   0.48061   0.85173   0.00000  Uiso   1.00
C56    C     0.09212   0.80897   0.65480   0.00000  Uiso   1.00
C57    C     0.07222   0.81034   0.60986   0.00000  Uiso   1.00
C58    C     0.05166   0.93186   0.59530   0.00000  Uiso   1.00
C59    C     0.01404   0.10339   0.55513   0.00000  Uiso   1.00
C60    C     0.11527   0.90050   0.73185   0.00000  Uiso   1.00
C61    C     0.16419   0.85261   0.72017   0.00000  Uiso   1.00
C62    C     0.20479   0.91339   0.73596   0.00000  Uiso   1.00
C63    C     0.24607   0.85411   0.72133   0.00000  Uiso   1.00
C64    C     0.09090   0.77781   0.75419   0.00000  Uiso   1.00
C65    C     0.06986   0.77572   0.79857   0.00000  Uiso   1.00
C66    C     0.04944   0.65348   0.81258   0.00000  Uiso   1.00
C67    C     0.09151   0.92486   0.68416   0.00000  Uiso   1.00
C68    C     0.07098   0.04640   0.66966   0.00000  Uiso   1.00
C69    C     0.05105   0.04795   0.62471   0.00000  Uiso   1.00
H70    H     0.11687   0.59692   0.65494   0.00000  Uiso   1.00
H71    H     0.20649   0.58765   0.65344   0.00000  Uiso   1.00
H72    H     0.07158   0.45001   0.71604   0.00000  Uiso   1.00
H73    H     0.07270   0.72064   0.58715   0.00000  Uiso   1.00
H74    H     0.30557   0.62846   0.66474   0.00000  Uiso   1.00
H75    H     0.02110   0.33823   0.79673   0.00000  Uiso   1.00
H76    H     0.02345   0.90892   0.52494   0.00000  Uiso   1.00
H77    H     0.11480   0.99072   0.75471   0.00000  Uiso   1.00
H78    H     0.20430   0.00307   0.75868   0.00000  Uiso   1.00
H79    H     0.06940   0.86542   0.82128   0.00000  Uiso   1.00
H80    H     0.07051   0.13605   0.69239   0.00000  Uiso   1.00
H81    H     0.30380   0.96562   0.75015   0.00000  Uiso   1.00
H82    H     0.01933   0.67539   0.88214   0.00000  Uiso   1.00
H83    H     0.02168   0.24609   0.61036   0.00000  Uiso   1.00
O84    O     0.36360   0.79803   0.70827   0.00000  Uiso   1.00
O85    O     0.99038   0.41727   0.88143   0.00000  Uiso   1.00
O86    O     0.99346   0.16600   0.52485   0.00000  Uiso   1.00
N87    N     0.29287   0.70613   0.68429   0.00000  Uiso   1.00
N88    N     0.02692   0.43478   0.80769   0.00000  Uiso   1.00
N89    N     0.02910   0.96832   0.55360   0.00000  Uiso   1.00
N90    N     0.29192   0.88756   0.73025   0.00000  Uiso   1.00
N91    N     0.02596   0.61621   0.85366   0.00000  Uiso   1.00
N92    N     0.02815   0.14974   0.59956   0.00000  Uiso   1.00
C93    C     0.61640   0.81286   0.32220   0.00000  Uiso   1.00
C94    C     0.66480   0.76328   0.30919   0.00000  Uiso   1.00
C95    C     0.70603   0.82266   0.32384   0.00000  Uiso   1.00
C96    C     0.74668   0.76199   0.30808   0.00000  Uiso   1.00
C97    C     0.82193   0.70267   0.29232   0.00000  Uiso   1.00
C98    C     0.59151   0.83807   0.27517   0.00000  Uiso   1.00
C99    C     0.57111   0.96034   0.26123   0.00000  Uiso   1.00
C100   C     0.55005   0.96261   0.21683   0.00000  Uiso   1.00
C101   C     0.51148   0.01939   0.14827   0.00000  Uiso   1.00
C102   C     0.59212   0.69103   0.34520   0.00000  Uiso   1.00
C103   C     0.57222   0.68966   0.39014   0.00000  Uiso   1.00
C104   C     0.55166   0.56814   0.40470   0.00000  Uiso   1.00
C105   C     0.51404   0.39661   0.44487   0.00000  Uiso   1.00
C106   C     0.61527   0.59950   0.26815   0.00000  Uiso   1.00
C107   C     0.66419   0.64739   0.27983   0.00000  Uiso   1.00
C108   C     0.70479   0.58661   0.26404   0.00000  Uiso   1.00
C109   C     0.74607   0.64589   0.27867   0.00000  Uiso   1.00
C110   C     0.59090   0.72219   0.24581   0.00000  Uiso   1.00
C111   C     0.56986   0.72428   0.20143   0.00000  Uiso   1.00
C112   C     0.54944   0.84652   0.18742   0.00000  Uiso   1.00
C113   C     0.59151   0.57514   0.31584   0.00000  Uiso   1.00
C114   C     0.57098   0.45360   0.33034   0.00000  Uiso   1.00
C115   C     0.55105   0.45205   0.37529   0.00000  Uiso   1.00
H116   H     0.61687   0.90308   0.34506   0.00000  Uiso   1.00
H117   H     0.70649   0.91235   0.34656   0.00000  Uiso   1.00
H118   H     0.57158   0.04999   0.28396   0.00000  Uiso   1.00
H119   H     0.57270   0.77936   0.41285   0.00000  Uiso   1.00
H120   H     0.80557   0.87154   0.33526   0.00000  Uiso   1.00
H121   H     0.52110   0.16177   0.20327   0.00000  Uiso   1.00
H122   H     0.52345   0.59108   0.47506   0.00000  Uiso   1.00
H123   H     0.61480   0.50928   0.24529   0.00000  Uiso   1.00
H124   H     0.70430   0.49693   0.24132   0.00000  Uiso   1.00
H125   H     0.56940   0.63458   0.17872   0.00000  Uiso   1.00
H126   H     0.57051   0.36395   0.30761   0.00000  Uiso   1.00
H127   H     0.80380   0.53438   0.24985   0.00000  Uiso   1.00
H128   H     0.51933   0.82461   0.11786   0.00000  Uiso   1.00
H129   H     0.52168   0.25391   0.38964   0.00000  Uiso   1.00
O130   O     0.86360   0.70197   0.29173   0.00000  Uiso   1.00
O131   O     0.49038   0.08273   0.11857   0.00000  Uiso   1.00
O132   O     0.49346   0.33400   0.47515   0.00000  Uiso   1.00
N133   N     0.79287   0.79387   0.31571   0.00000  Uiso   1.00
N134   N     0.52692   0.06522   0.19231   0.00000  Uiso   1.00
N135   N     0.52910   0.53168   0.44640   0.00000  Uiso   1.00
N136   N     0.79192   0.61244   0.26975   0.00000  Uiso   1.00
N137   N     0.52596   0.88379   0.14634   0.00000  Uiso   1.00
N138   N     0.52815   0.35026   0.40044   0.00000  Uiso   1.00
C139   C     0.88360   0.68714   0.82220   0.00000  Uiso   1.00
C140   C     0.83520   0.73672   0.80919   0.00000  Uiso   1.00
C141   C     0.79397   0.67734   0.82384   0.00000  Uiso   1.00
C142   C     0.75332   0.73801   0.80808   0.00000  Uiso   1.00
C143   C     0.67807   0.79733   0.79232   0.00000  Uiso   1.00
C144   C     0.90849   0.66193   0.77517   0.00000  Uiso   1.00
C145   C     0.92889   0.53966   0.76123   0.00000  Uiso   1.00
C146   C     0.94995   0.53739   0.71683   0.00000  Uiso   1.00
C147   C     0.98852   0.48061   0.64827   0.00000  Uiso   1.00
C148   C     0.90788   0.80897   0.84520   0.00000  Uiso   1.00
C149   C     0.92778   0.81034   0.89014   0.00000  Uiso   1.00
C150   C     0.94834   0.93186   0.90470   0.00000  Uiso   1.00
C151   C     0.98596   0.10339   0.94487   0.00000  Uiso   1.00
C152   C     0.88473   0.90050   0.76815   0.00000  Uiso   1.00
C153   C     0.83581   0.85261   0.77983   0.00000  Uiso   1.00
C154   C     0.79521   0.91339   0.76404   0.00000  Uiso   1.00
C155   C     0.75393   0.85411   0.77867   0.00000  Uiso   1.00
C156   C     0.90910   0.77781   0.74581   0.00000  Uiso   1.00
C157   C     0.93014   0.77572   0.70143   0.00000  Uiso   1.00
C158   C     0.95056   0.65348   0.68742   0.00000  Uiso   1.00
C159   C     0.90849   0.92486   0.81584   0.00000  Uiso   1.00
C160   C     0.92902   0.04640   0.83034   0.00000  Uiso   1.00
C161   C     0.94895   0.04795   0.87529   0.00000  Uiso   1.00
H162   H     0.88313   0.59692   0.84506   0.00000  Uiso   1.00
H163   H     0.79351   0.58765   0.84656   0.00000  Uiso   1.00
H164   H     0.92842   0.45001   0.78396   0.00000  Uiso   1.00
H165   H     0.92730   0.72064   0.91285   0.00000  Uiso   1.00
H166   H     0.69443   0.62846   0.83526   0.00000  Uiso   1.00
H167   H     0.97890   0.33823   0.70327   0.00000  Uiso   1.00
H168   H     0.97655   0.90892   0.97506   0.00000  Uiso   1.00
H169   H     0.88520   0.99072   0.74529   0.00000  Uiso   1.00
H170   H     0.79570   0.00307   0.74132   0.00000  Uiso   1.00
H171   H     0.93060   0.86542   0.67872   0.00000  Uiso   1.00
H172   H     0.92949   0.13605   0.80761   0.00000  Uiso   1.00
H173   H     0.69620   0.96562   0.74985   0.00000  Uiso   1.00
H174   H     0.98067   0.67539   0.61786   0.00000  Uiso   1.00
H175   H     0.97832   0.24609   0.88964   0.00000  Uiso   1.00
O176   O     0.63640   0.79803   0.79173   0.00000  Uiso   1.00
O177   O     0.00962   0.41727   0.61857   0.00000  Uiso   1.00
O178   O     0.00654   0.16600   0.97515   0.00000  Uiso   1.00
N179   N     0.70713   0.70613   0.81571   0.00000  Uiso   1.00
N180   N     0.97308   0.43478   0.69231   0.00000  Uiso   1.00
N181   N     0.97090   0.96832   0.94640   0.00000  Uiso   1.00
N182   N     0.70808   0.88756   0.76975   0.00000  Uiso   1.00
N183   N     0.97404   0.61621   0.64634   0.00000  Uiso   1.00
N184   N     0.97185   0.14974   0.90044   0.00000  Uiso   1.00
C185   C     0.61640   0.18714   0.82220   0.00000  Uiso   1.00
C186   C     0.66480   0.23672   0.80919   0.00000  Uiso   1.00
C187   C     0.70603   0.17734   0.82384   0.00000  Uiso   1.00
C188   C     0.74668   0.23801   0.80808   0.00000  Uiso   1.00
C189   C     0.82193   0.29733   0.79232   0.00000  Uiso   1.00
C190   C     0.59151   0.16193   0.77517   0.00000  Uiso   1.00
C191   C     0.57111   0.03966   0.76123   0.00000  Uiso   1.00
C192   C     0.55005   0.03739   0.71683   0.00000  Uiso   1.00
C193   C     0.51148   0.98061   0.64827   0.00000  Uiso   1.00
C194   C     0.59212   0.30897   0.84520   0.00000  Uiso   1.00
C195   C     0.57222   0.31034   0.89014   0.00000  Uiso   1.00
C196   C     0.55166   0.43186   0.90470   0.00000  Uiso   1.00
C197   C     0.51404   0.60339   0.94487   0.00000  Uiso   1.00
C198   C     0.61527   0.40050   0.76815   0.00000  Uiso   1.00
C199   C     0.66419   0.35261   0.77983   0.00000  Uiso   1.00
C200   C     0.70479   0.41339   0.76404   0.00000  Uiso   1.00
C201   C     0.74607   0.35411   0.77867   0.00000  Uiso   1.00
C202   C     0.59090   0.27781   0.74581   0.00000  Uiso   1.00
C203   C     0.56986   0.27572   0.70143   0.00000  Uiso   1.00
C204   C     0.54944   0.15348   0.68742   0.00000  Uiso   1.00
C205   C     0.59151   0.42486   0.81584   0.00000  Uiso   1.00
C206   C     0.57098   0.54640   0.83034   0.00000  Uiso   1.00
C207   C     0.55105   0.54795   0.87529   0.00000  Uiso   1.00
H208   H     0.61687   0.09692   0.84506   0.00000  Uiso   1.00
H209   H     0.70649   0.08765   0.84656   0.00000  Uiso   1.00
H210   H     0.57158   0.95001   0.78396   0.00000  Uiso   1.00
H211   H     0.57270   0.22064   0.91285   0.00000  Uiso   1.00
H212   H     0.80557   0.12846   0.83526   0.00000  Uiso   1.00
H213   H     0.52110   0.83823   0.70327   0.00000  Uiso   1.00
H214   H     0.52345   0.40892   0.97506   0.00000  Uiso   1.00
H215   H     0.61480   0.49072   0.74529   0.00000  Uiso   1.00
H216   H     0.70430   0.50307   0.74132   0.00000  Uiso   1.00
H217   H     0.56940   0.36542   0.67872   0.00000  Uiso   1.00
H218   H     0.57051   0.63605   0.80761   0.00000  Uiso   1.00
H219   H     0.80380   0.46562   0.74985   0.00000  Uiso   1.00
H220   H     0.51933   0.17539   0.61786   0.00000  Uiso   1.00
H221   H     0.52168   0.74609   0.88964   0.00000  Uiso   1.00
O222   O     0.86360   0.29803   0.79173   0.00000  Uiso   1.00
O223   O     0.49038   0.91727   0.61857   0.00000  Uiso   1.00
O224   O     0.49346   0.66600   0.97515   0.00000  Uiso   1.00
N225   N     0.79287   0.20613   0.81571   0.00000  Uiso   1.00
N226   N     0.52692   0.93478   0.69231   0.00000  Uiso   1.00
N227   N     0.52910   0.46832   0.94640   0.00000  Uiso   1.00
N228   N     0.79192   0.38756   0.76975   0.00000  Uiso   1.00
N229   N     0.52596   0.11621   0.64634   0.00000  Uiso   1.00
N230   N     0.52815   0.64974   0.90044   0.00000  Uiso   1.00
C231   C     0.88360   0.31286   0.32220   0.00000  Uiso   1.00
C232   C     0.83520   0.26328   0.30919   0.00000  Uiso   1.00
C233   C     0.79397   0.32266   0.32384   0.00000  Uiso   1.00
C234   C     0.75332   0.26199   0.30808   0.00000  Uiso   1.00
C235   C     0.67807   0.20267   0.29232   0.00000  Uiso   1.00
C236   C     0.90849   0.33807   0.27517   0.00000  Uiso   1.00
C237   C     0.92889   0.46034   0.26123   0.00000  Uiso   1.00
C238   C     0.94995   0.46261   0.21683   0.00000  Uiso   1.00
C239   C     0.98852   0.51939   0.14827   0.00000  Uiso   1.00
C240   C     0.90788   0.19103   0.34520   0.00000  Uiso   1.00
C241   C     0.92778   0.18966   0.39014   0.00000  Uiso   1.00
C242   C     0.94834   0.06814   0.40470   0.00000  Uiso   1.00
C243   C     0.98596   0.89661   0.44487   0.00000  Uiso   1.00
C244   C     0.88473   0.09950   0.26815   0.00000  Uiso   1.00
C245   C     0.83581   0.14739   0.27983   0.00000  Uiso   1.00
C246   C     0.79521   0.08661   0.26404   0.00000  Uiso   1.00
C247   C     0.75393   0.14589   0.27867   0.00000  Uiso   1.00
C248   C     0.90910   0.22219   0.24581   0.00000  Uiso   1.00
C249   C     0.93014   0.22428   0.20143   0.00000  Uiso   1.00
C250   C     0.95056   0.34652   0.18742   0.00000  Uiso   1.00
C251   C     0.90849   0.07514   0.31584   0.00000  Uiso   1.00
C252   C     0.92902   0.95360   0.33034   0.00000  Uiso   1.00
C253   C     0.94895   0.95205   0.37529   0.00000  Uiso   1.00
H254   H     0.88313   0.40308   0.34506   0.00000  Uiso   1.00
H255   H     0.79351   0.41235   0.34656   0.00000  Uiso   1.00
H256   H     0.92842   0.54999   0.28396   0.00000  Uiso   1.00
H257   H     0.92730   0.27936   0.41285   0.00000  Uiso   1.00
H258   H     0.69443   0.37154   0.33526   0.00000  Uiso   1.00
H259   H     0.97890   0.66177   0.20327   0.00000  Uiso   1.00
H260   H     0.97655   0.09108   0.47506   0.00000  Uiso   1.00
H261   H     0.88520   0.00928   0.24529   0.00000  Uiso   1.00
H262   H     0.79570   0.99693   0.24132   0.00000  Uiso   1.00
H263   H     0.93060   0.13458   0.17872   0.00000  Uiso   1.00
H264   H     0.92949   0.86395   0.30761   0.00000  Uiso   1.00
H265   H     0.69620   0.03438   0.24985   0.00000  Uiso   1.00
H266   H     0.98067   0.32461   0.11786   0.00000  Uiso   1.00
H267   H     0.97832   0.75391   0.38964   0.00000  Uiso   1.00
O268   O     0.63640   0.20197   0.29173   0.00000  Uiso   1.00
O269   O     0.00962   0.58273   0.11857   0.00000  Uiso   1.00
O270   O     0.00654   0.83400   0.47515   0.00000  Uiso   1.00
N271   N     0.70713   0.29387   0.31571   0.00000  Uiso   1.00
N272   N     0.97308   0.56522   0.19231   0.00000  Uiso   1.00
N273   N     0.97090   0.03168   0.44640   0.00000  Uiso   1.00
N274   N     0.70808   0.11244   0.26975   0.00000  Uiso   1.00
N275   N     0.97404   0.38379   0.14634   0.00000  Uiso   1.00
N276   N     0.97185   0.85026   0.40044   0.00000  Uiso   1.00
C277   C     0.38360   0.18714   0.67780   0.00000  Uiso   1.00
C278   C     0.33520   0.23672   0.69081   0.00000  Uiso   1.00
C279   C     0.29397   0.17734   0.67616   0.00000  Uiso   1.00
C280   C     0.25332   0.23801   0.69192   0.00000  Uiso   1.00
C281   C     0.17807   0.29733   0.70768   0.00000  Uiso   1.00
C282   C     0.40849   0.16193   0.72483   0.00000  Uiso   1.00
C283   C     0.42889   0.03966   0.73877   0.00000  Uiso   1.00
C284   C     0.44995   0.03739   0.78317   0.00000  Uiso   1.00
C285   C     0.48852   0.98061   0.85173   0.00000  Uiso   1.00
C286   C     0.40788   0.30897   0.65480   0.00000  Uiso   1.00
C287   C     0.42778   0.31034   0.60986   0.00000  Uiso   1.00
C288   C     0.44834   0.43186   0.59530   0.00000  Uiso   1.00
C289   C     0.48596   0.60339   0.55513   0.00000  Uiso   1.00
C290   C     0.38473   0.40050   0.73185   0.00000  Uiso   1.00
C291   C     0.33581   0.35261   0.72017   0.00000  Uiso   1.00
C292   C     0.29521   0.41339   0.73596   0.00000  Uiso   1.00
C293   C     0.25393   0.35411   0.72133   0.00000  Uiso   1.00
C294   C     0.40910   0.27781   0.75419   0.00000  Uiso   1.00
C295   C     0.43014   0.27572   0.79857   0.00000  Uiso   1.00
C296   C     0.45056   0.15348   0.81258   0.00000  Uiso   1.00
C297   C     0.40849   0.42486   0.68416   0.00000  Uiso   1.00
C298   C     0.42902   0.54640   0.66966   0.00000  Uiso   1.00
C299   C     0.44895   0.54795   0.62471   0.00000  Uiso   1.00
H300   H     0.38313   0.09692   0.65494   0.00000  Uiso   1.00
H301   H     0.29351   0.08765   0.65344   0.00000  Uiso   1.00
H302   H     0.42842   0.95001   0.71604   0.00000  Uiso   1.00
H303   H     0.42730   0.22064   0.58715   0.00000  Uiso   1.00
H304   H     0.19443   0.12846   0.66474   0.00000  Uiso   1.00
H305   H     0.47890   0.83823   0.79673   0.00000  Uiso   1.00
H306   H     0.47655   0.40892   0.52494   0.00000  Uiso   1.00
H307   H     0.38520   0.49072   0.75471   0.00000  Uiso   1.00
H308   H     0.29570   0.50307   0.75868   0.00000  Uiso   1.00
H309   H     0.43060   0.36542   0.82128   0.00000  Uiso   1.00
H310   H     0.42949   0.63605   0.69239   0.00000  Uiso   1.00
H311   H     0.19620   0.46562   0.75015   0.00000  Uiso   1.00
H312   H     0.48067   0.17539   0.88214   0.00000  Uiso   1.00
H313   H     0.47832   0.74609   0.61036   0.00000  Uiso   1.00
O314   O     0.13640   0.29803   0.70827   0.00000  Uiso   1.00
O315   O     0.50962   0.91727   0.88143   0.00000  Uiso   1.00
O316   O     0.50654   0.66600   0.52485   0.00000  Uiso   1.00
N317   N     0.20713   0.20613   0.68429   0.00000  Uiso   1.00
N318   N     0.47308   0.93478   0.80769   0.00000  Uiso   1.00
N319   N     0.47090   0.46832   0.55360   0.00000  Uiso   1.00
N320   N     0.20808   0.38756   0.73025   0.00000  Uiso   1.00
N321   N     0.47404   0.11621   0.85366   0.00000  Uiso   1.00
N322   N     0.47185   0.64974   0.59956   0.00000  Uiso   1.00
C323   C     0.11640   0.31286   0.17780   0.00000  Uiso   1.00
C324   C     0.16480   0.26328   0.19081   0.00000  Uiso   1.00
C325   C     0.20603   0.32266   0.17616   0.00000  Uiso   1.00
C326   C     0.24668   0.26199   0.19192   0.00000  Uiso   1.00
C327   C     0.32193   0.20267   0.20768   0.00000  Uiso   1.00
C328   C     0.09151   0.33807   0.22483   0.00000  Uiso   1.00
C329   C     0.07111   0.46034   0.23877   0.00000  Uiso   1.00
C330   C     0.05005   0.46261   0.28317   0.00000  Uiso   1.00
C331   C     0.01148   0.51939   0.35173   0.00000  Uiso   1.00
C332   C     0.09212   0.19103   0.15480   0.00000  Uiso   1.00
C333   C     0.07222   0.18966   0.10986   0.00000  Uiso   1.00
C334   C     0.05166   0.06814   0.09530   0.00000  Uiso   1.00
C335   C     0.01404   0.89661   0.05513   0.00000  Uiso   1.00
C336   C     0.11527   0.09950   0.23185   0.00000  Uiso   1.00
C337   C     0.16419   0.14739   0.22017   0.00000  Uiso   1.00
C338   C     0.20479   0.08661   0.23596   0.00000  Uiso   1.00
C339   C     0.24607   0.14589   0.22133   0.00000  Uiso   1.00
C340   C     0.09090   0.22219   0.25419   0.00000  Uiso   1.00
C341   C     0.06986   0.22428   0.29857   0.00000  Uiso   1.00
C342   C     0.04944   0.34652   0.31258   0.00000  Uiso   1.00
C343   C     0.09151   0.07514   0.18416   0.00000  Uiso   1.00
C344   C     0.07098   0.95360   0.16966   0.00000  Uiso   1.00
C345   C     0.05105   0.95205   0.12471   0.00000  Uiso   1.00
H346   H     0.11687   0.40308   0.15494   0.00000  Uiso   1.00
H347   H     0.20649   0.41235   0.15344   0.00000  Uiso   1.00
H348   H     0.07158   0.54999   0.21604   0.00000  Uiso   1.00
H349   H     0.07270   0.27936   0.08715   0.00000  Uiso   1.00
H350   H     0.30557   0.37154   0.16474   0.00000  Uiso   1.00
H351   H     0.02110   0.66177   0.29673   0.00000  Uiso   1.00
H352   H     0.02345   0.09108   0.02494   0.00000  Uiso   1.00
H353   H     0.11480   0.00928   0.25471   0.00000  Uiso   1.00
H354   H     0.20430   0.99693   0.25868   0.00000  Uiso   1.00
H355   H     0.06940   0.13458   0.32128   0.00000  Uiso   1.00
H356   H     0.07051   0.86395   0.19239   0.00000  Uiso   1.00
H357   H     0.30380   0.03438   0.25015   0.00000  Uiso   1.00
H358   H     0.01933   0.32461   0.38214   0.00000  Uiso   1.00
H359   H     0.02168   0.75391   0.11036   0.00000  Uiso   1.00
O360   O     0.36360   0.20197   0.20827   0.00000  Uiso   1.00
O361   O     0.99038   0.58273   0.38143   0.00000  Uiso   1.00
O362   O     0.99346   0.83400   0.02485   0.00000  Uiso   1.00
N363   N     0.29287   0.29387   0.18429   0.00000  Uiso   1.00
N364   N     0.02692   0.56522   0.30769   0.00000  Uiso   1.00
N365   N     0.02910   0.03168   0.05360   0.00000  Uiso   1.00
N366   N     0.29192   0.11244   0.23025   0.00000  Uiso   1.00
N367   N     0.02596   0.38379   0.35366   0.00000  Uiso   1.00
N368   N     0.02815   0.85026   0.09956   0.00000  Uiso   1.00
