data_job_03468
_audit_creation_date              2018-12-19
_audit_creation_method            'Materials Studio'
_symmetry_space_group_name_H-M    'P1'
_symmetry_Int_Tables_number       1
_symmetry_cell_setting            triclinic
loop_
_symmetry_equiv_pos_as_xyz
  x,y,z
_cell_length_a                    19.5368
_cell_length_b                    19.5368
_cell_length_c                    17.5096
_cell_angle_alpha                 90.0000
_cell_angle_beta                  90.0000
_cell_angle_gamma                 120.0000
loop_
_atom_site_label
_atom_site_type_symbol
_atom_site_fract_x
_atom_site_fract_y
_atom_site_fract_z
_atom_site_U_iso_or_equiv
_atom_site_adp_type
_atom_site_occupancy
C1     C     0.44035   0.77515   0.09426   0.00000  Uiso   1.00
C2     C     0.47239   0.86148   0.07255   0.00000  Uiso   1.00
C3     C     0.43662   0.90587   0.08866   0.00000  Uiso   1.00
C4     C     0.47534   0.98383   0.06393   0.00000  Uiso   1.00
C5     C     0.51412   0.11295   0.03618   0.00000  Uiso   1.00
C6     C     0.43406   0.73177   0.01988   0.00000  Uiso   1.00
C7     C     0.36606   0.66709   0.99171   0.00000  Uiso   1.00
C8     C     0.37252   0.63586   0.92264   0.00000  Uiso   1.00
C9     C     0.35181   0.56357   0.81314   0.00000  Uiso   1.00
C10    C     0.50532   0.77299   0.14062   0.00000  Uiso   1.00
C11    C     0.49724   0.74294   0.21396   0.00000  Uiso   1.00
C12    C     0.56369   0.74639   0.24654   0.00000  Uiso   1.00
C13    C     0.65363   0.73810   0.32451   0.00000  Uiso   1.00
C14    C     0.57273   0.83468   0.02169   0.00000  Uiso   1.00
C15    C     0.54429   0.89382   0.03313   0.00000  Uiso   1.00
C16    C     0.58307   0.97174   0.00837   0.00000  Uiso   1.00
C17    C     0.54737   0.01623   0.02445   0.00000  Uiso   1.00
C18    C     0.50596   0.76411   0.98046   0.00000  Uiso   1.00
C19    C     0.51252   0.73296   0.91142   0.00000  Uiso   1.00
C20    C     0.44455   0.66826   0.88315   0.00000  Uiso   1.00
C21    C     0.57722   0.80533   0.10120   0.00000  Uiso   1.00
C22    C     0.64370   0.80882   0.13367   0.00000  Uiso   1.00
C23    C     0.63572   0.77879   0.20705   0.00000  Uiso   1.00
H24    H     0.38438   0.74997   0.12495   0.00000  Uiso   1.00
H25    H     0.38097   0.88082   0.11916   0.00000  Uiso   1.00
H26    H     0.31043   0.64208   0.02223   0.00000  Uiso   1.00
H27    H     0.44159   0.71792   0.24445   0.00000  Uiso   1.00
H28    H     0.40889   0.04014   0.09534   0.00000  Uiso   1.00
H29    H     0.26016   0.53673   0.89097   0.00000  Uiso   1.00
H30    H     0.53673   0.69665   0.35956   0.00000  Uiso   1.00
H31    H     0.62871   0.85986   0.99100   0.00000  Uiso   1.00
H32    H     0.63871   0.99674   0.97787   0.00000  Uiso   1.00
H33    H     0.56817   0.75800   0.88094   0.00000  Uiso   1.00
H34    H     0.69933   0.83384   0.10315   0.00000  Uiso   1.00
H35    H     0.61808   0.13423   0.98066   0.00000  Uiso   1.00
H36    H     0.46935   0.63081   0.77629   0.00000  Uiso   1.00
H37    H     0.74592   0.79074   0.24488   0.00000  Uiso   1.00
O38    O     0.51565   0.17524   0.03176   0.00000  Uiso   1.00
O39    O     0.32052   0.51477   0.76363   0.00000  Uiso   1.00
O40    O     0.68338   0.72460   0.37841   0.00000  Uiso   1.00
N41    N     0.45676   0.04350   0.07017   0.00000  Uiso   1.00
N42    N     0.31770   0.57285   0.87908   0.00000  Uiso   1.00
N43    N     0.57627   0.72235   0.31717   0.00000  Uiso   1.00
N44    N     0.56932   0.09413   0.00846   0.00000  Uiso   1.00
N45    N     0.43027   0.62348   0.81737   0.00000  Uiso   1.00
N46    N     0.68883   0.77298   0.25546   0.00000  Uiso   1.00
C47    C     0.22485   0.66521   0.76093   0.00000  Uiso   1.00
C48    C     0.13852   0.61091   0.73922   0.00000  Uiso   1.00
C49    C     0.09413   0.53075   0.75533   0.00000  Uiso   1.00
C50    C     0.01617   0.49151   0.73060   0.00000  Uiso   1.00
C51    C     0.88705   0.40117   0.70285   0.00000  Uiso   1.00
C52    C     0.26823   0.70229   0.68655   0.00000  Uiso   1.00
C53    C     0.33291   0.69897   0.65838   0.00000  Uiso   1.00
C54    C     0.36414   0.73666   0.58931   0.00000  Uiso   1.00
C55    C     0.43643   0.78824   0.47981   0.00000  Uiso   1.00
C56    C     0.22701   0.73233   0.80729   0.00000  Uiso   1.00
C57    C     0.25706   0.75430   0.88063   0.00000  Uiso   1.00
C58    C     0.25361   0.81730   0.91321   0.00000  Uiso   1.00
C59    C     0.26190   0.91553   0.99118   0.00000  Uiso   1.00
C60    C     0.16532   0.73805   0.68836   0.00000  Uiso   1.00
C61    C     0.10618   0.65047   0.69980   0.00000  Uiso   1.00
C62    C     0.02826   0.61134   0.67504   0.00000  Uiso   1.00
C63    C     0.98377   0.53114   0.69111   0.00000  Uiso   1.00
C64    C     0.23589   0.74185   0.64713   0.00000  Uiso   1.00
C65    C     0.26704   0.77956   0.57809   0.00000  Uiso   1.00
C66    C     0.33174   0.77629   0.54982   0.00000  Uiso   1.00
C67    C     0.19467   0.77190   0.76787   0.00000  Uiso   1.00
C68    C     0.19118   0.83488   0.80034   0.00000  Uiso   1.00
C69    C     0.22121   0.85693   0.87372   0.00000  Uiso   1.00
H70    H     0.25003   0.63441   0.79161   0.00000  Uiso   1.00
H71    H     0.11918   0.50015   0.78583   0.00000  Uiso   1.00
H72    H     0.35792   0.66836   0.68890   0.00000  Uiso   1.00
H73    H     0.28208   0.72367   0.91111   0.00000  Uiso   1.00
H74    H     0.95986   0.36875   0.76201   0.00000  Uiso   1.00
H75    H     0.46327   0.72344   0.55763   0.00000  Uiso   1.00
H76    H     0.30335   0.84008   0.02622   0.00000  Uiso   1.00
H77    H     0.14014   0.76885   0.65767   0.00000  Uiso   1.00
H78    H     0.00326   0.64197   0.64454   0.00000  Uiso   1.00
H79    H     0.24200   0.81017   0.54760   0.00000  Uiso   1.00
H80    H     0.16616   0.86548   0.76982   0.00000  Uiso   1.00
H81    H     0.86577   0.48386   0.64733   0.00000  Uiso   1.00
H82    H     0.36919   0.83854   0.44295   0.00000  Uiso   1.00
H83    H     0.20926   0.95518   0.91154   0.00000  Uiso   1.00
O84    O     0.82476   0.34041   0.69842   0.00000  Uiso   1.00
O85    O     0.48523   0.80575   0.43030   0.00000  Uiso   1.00
O86    O     0.27540   0.95878   0.04508   0.00000  Uiso   1.00
N87    N     0.95650   0.41326   0.73684   0.00000  Uiso   1.00
N88    N     0.42715   0.74485   0.54575   0.00000  Uiso   1.00
N89    N     0.27765   0.85392   0.98383   0.00000  Uiso   1.00
N90    N     0.90587   0.47519   0.67513   0.00000  Uiso   1.00
N91    N     0.37652   0.80679   0.48404   0.00000  Uiso   1.00
N92    N     0.22702   0.91585   0.92213   0.00000  Uiso   1.00
C93    C     0.33479   0.55965   0.42760   0.00000  Uiso   1.00
C94    C     0.38909   0.52761   0.40589   0.00000  Uiso   1.00
C95    C     0.46925   0.56338   0.42200   0.00000  Uiso   1.00
C96    C     0.50849   0.52466   0.39726   0.00000  Uiso   1.00
C97    C     0.59883   0.48588   0.36952   0.00000  Uiso   1.00
C98    C     0.29771   0.56594   0.35321   0.00000  Uiso   1.00
C99    C     0.30103   0.63394   0.32504   0.00000  Uiso   1.00
C100   C     0.26334   0.62748   0.25597   0.00000  Uiso   1.00
C101   C     0.21176   0.64819   0.14648   0.00000  Uiso   1.00
C102   C     0.26767   0.49468   0.47395   0.00000  Uiso   1.00
C103   C     0.24570   0.50276   0.54730   0.00000  Uiso   1.00
C104   C     0.18270   0.43631   0.57988   0.00000  Uiso   1.00
C105   C     0.08447   0.34637   0.65785   0.00000  Uiso   1.00
C106   C     0.26195   0.42727   0.35503   0.00000  Uiso   1.00
C107   C     0.34953   0.45571   0.36647   0.00000  Uiso   1.00
C108   C     0.38866   0.41693   0.34171   0.00000  Uiso   1.00
C109   C     0.46886   0.45263   0.35778   0.00000  Uiso   1.00
C110   C     0.25815   0.49404   0.31380   0.00000  Uiso   1.00
C111   C     0.22044   0.48748   0.24475   0.00000  Uiso   1.00
C112   C     0.22371   0.55545   0.21649   0.00000  Uiso   1.00
C113   C     0.22810   0.42278   0.43454   0.00000  Uiso   1.00
C114   C     0.16512   0.35630   0.46701   0.00000  Uiso   1.00
C115   C     0.14307   0.36428   0.54039   0.00000  Uiso   1.00
H116   H     0.36559   0.61562   0.45828   0.00000  Uiso   1.00
H117   H     0.49985   0.61903   0.45250   0.00000  Uiso   1.00
H118   H     0.33164   0.68957   0.35556   0.00000  Uiso   1.00
H119   H     0.27633   0.55841   0.57778   0.00000  Uiso   1.00
H120   H     0.63125   0.59111   0.42868   0.00000  Uiso   1.00
H121   H     0.27656   0.73984   0.22430   0.00000  Uiso   1.00
H122   H     0.15992   0.46327   0.69289   0.00000  Uiso   1.00
H123   H     0.23115   0.37129   0.32434   0.00000  Uiso   1.00
H124   H     0.35803   0.36129   0.31121   0.00000  Uiso   1.00
H125   H     0.18983   0.43183   0.21427   0.00000  Uiso   1.00
H126   H     0.13452   0.30067   0.43649   0.00000  Uiso   1.00
H127   H     0.51614   0.38192   0.31400   0.00000  Uiso   1.00
H128   H     0.16146   0.53065   0.10962   0.00000  Uiso   1.00
H129   H     0.04482   0.25408   0.57821   0.00000  Uiso   1.00
O130   O     0.65959   0.48435   0.36509   0.00000  Uiso   1.00
O131   O     0.19425   0.67948   0.09697   0.00000  Uiso   1.00
O132   O     0.04122   0.31662   0.71175   0.00000  Uiso   1.00
N133   N     0.58674   0.54324   0.40350   0.00000  Uiso   1.00
N134   N     0.25515   0.68230   0.21242   0.00000  Uiso   1.00
N135   N     0.14608   0.42373   0.65050   0.00000  Uiso   1.00
N136   N     0.52481   0.43068   0.34179   0.00000  Uiso   1.00
N137   N     0.19321   0.56973   0.15071   0.00000  Uiso   1.00
N138   N     0.08415   0.31117   0.58879   0.00000  Uiso   1.00
C139   C     0.77515   0.44035   0.90574   0.00000  Uiso   1.00
C140   C     0.86148   0.47239   0.92745   0.00000  Uiso   1.00
C141   C     0.90587   0.43662   0.91134   0.00000  Uiso   1.00
C142   C     0.98383   0.47534   0.93607   0.00000  Uiso   1.00
C143   C     0.11295   0.51412   0.96382   0.00000  Uiso   1.00
C144   C     0.73177   0.43406   0.98012   0.00000  Uiso   1.00
C145   C     0.66709   0.36606   0.00829   0.00000  Uiso   1.00
C146   C     0.63586   0.37252   0.07736   0.00000  Uiso   1.00
C147   C     0.56357   0.35181   0.18686   0.00000  Uiso   1.00
C148   C     0.77299   0.50532   0.85938   0.00000  Uiso   1.00
C149   C     0.74294   0.49724   0.78604   0.00000  Uiso   1.00
C150   C     0.74639   0.56369   0.75346   0.00000  Uiso   1.00
C151   C     0.73810   0.65363   0.67549   0.00000  Uiso   1.00
C152   C     0.83468   0.57273   0.97831   0.00000  Uiso   1.00
C153   C     0.89382   0.54429   0.96687   0.00000  Uiso   1.00
C154   C     0.97174   0.58307   0.99163   0.00000  Uiso   1.00
C155   C     0.01623   0.54737   0.97555   0.00000  Uiso   1.00
C156   C     0.76411   0.50596   0.01954   0.00000  Uiso   1.00
C157   C     0.73296   0.51252   0.08858   0.00000  Uiso   1.00
C158   C     0.66826   0.44455   0.11685   0.00000  Uiso   1.00
C159   C     0.80533   0.57722   0.89880   0.00000  Uiso   1.00
C160   C     0.80882   0.64370   0.86633   0.00000  Uiso   1.00
C161   C     0.77879   0.63572   0.79295   0.00000  Uiso   1.00
H162   H     0.74997   0.38438   0.87505   0.00000  Uiso   1.00
H163   H     0.88082   0.38097   0.88084   0.00000  Uiso   1.00
H164   H     0.64208   0.31043   0.97777   0.00000  Uiso   1.00
H165   H     0.71792   0.44159   0.75555   0.00000  Uiso   1.00
H166   H     0.04014   0.40889   0.90466   0.00000  Uiso   1.00
H167   H     0.53673   0.26016   0.10903   0.00000  Uiso   1.00
H168   H     0.69665   0.53673   0.64044   0.00000  Uiso   1.00
H169   H     0.85986   0.62871   0.00900   0.00000  Uiso   1.00
H170   H     0.99674   0.63871   0.02213   0.00000  Uiso   1.00
H171   H     0.75800   0.56817   0.11906   0.00000  Uiso   1.00
H172   H     0.83384   0.69933   0.89685   0.00000  Uiso   1.00
H173   H     0.13423   0.61808   0.01934   0.00000  Uiso   1.00
H174   H     0.63081   0.46935   0.22371   0.00000  Uiso   1.00
H175   H     0.79074   0.74592   0.75512   0.00000  Uiso   1.00
O176   O     0.17524   0.51565   0.96824   0.00000  Uiso   1.00
O177   O     0.51477   0.32052   0.23637   0.00000  Uiso   1.00
O178   O     0.72460   0.68338   0.62159   0.00000  Uiso   1.00
N179   N     0.04350   0.45676   0.92983   0.00000  Uiso   1.00
N180   N     0.57285   0.31770   0.12092   0.00000  Uiso   1.00
N181   N     0.72235   0.57627   0.68283   0.00000  Uiso   1.00
N182   N     0.09413   0.56932   0.99154   0.00000  Uiso   1.00
N183   N     0.62348   0.43027   0.18263   0.00000  Uiso   1.00
N184   N     0.77298   0.68883   0.74454   0.00000  Uiso   1.00
C185   C     0.66521   0.22485   0.23907   0.00000  Uiso   1.00
C186   C     0.61091   0.13852   0.26078   0.00000  Uiso   1.00
C187   C     0.53075   0.09413   0.24467   0.00000  Uiso   1.00
C188   C     0.49151   0.01617   0.26940   0.00000  Uiso   1.00
C189   C     0.40117   0.88705   0.29715   0.00000  Uiso   1.00
C190   C     0.70229   0.26823   0.31345   0.00000  Uiso   1.00
C191   C     0.69897   0.33291   0.34162   0.00000  Uiso   1.00
C192   C     0.73666   0.36414   0.41069   0.00000  Uiso   1.00
C193   C     0.78824   0.43643   0.52019   0.00000  Uiso   1.00
C194   C     0.73233   0.22701   0.19271   0.00000  Uiso   1.00
C195   C     0.75430   0.25706   0.11937   0.00000  Uiso   1.00
C196   C     0.81730   0.25361   0.08679   0.00000  Uiso   1.00
C197   C     0.91553   0.26190   0.00882   0.00000  Uiso   1.00
C198   C     0.73805   0.16532   0.31164   0.00000  Uiso   1.00
C199   C     0.65047   0.10618   0.30020   0.00000  Uiso   1.00
C200   C     0.61134   0.02826   0.32496   0.00000  Uiso   1.00
C201   C     0.53114   0.98377   0.30889   0.00000  Uiso   1.00
C202   C     0.74185   0.23589   0.35287   0.00000  Uiso   1.00
C203   C     0.77956   0.26704   0.42191   0.00000  Uiso   1.00
C204   C     0.77629   0.33174   0.45018   0.00000  Uiso   1.00
C205   C     0.77190   0.19467   0.23213   0.00000  Uiso   1.00
C206   C     0.83488   0.19118   0.19966   0.00000  Uiso   1.00
C207   C     0.85693   0.22121   0.12628   0.00000  Uiso   1.00
H208   H     0.63441   0.25003   0.20839   0.00000  Uiso   1.00
H209   H     0.50015   0.11918   0.21417   0.00000  Uiso   1.00
H210   H     0.66836   0.35792   0.31110   0.00000  Uiso   1.00
H211   H     0.72367   0.28208   0.08889   0.00000  Uiso   1.00
H212   H     0.36875   0.95986   0.23799   0.00000  Uiso   1.00
H213   H     0.72344   0.46327   0.44237   0.00000  Uiso   1.00
H214   H     0.84008   0.30335   0.97378   0.00000  Uiso   1.00
H215   H     0.76885   0.14014   0.34233   0.00000  Uiso   1.00
H216   H     0.64197   0.00326   0.35546   0.00000  Uiso   1.00
H217   H     0.81017   0.24200   0.45240   0.00000  Uiso   1.00
H218   H     0.86548   0.16616   0.23018   0.00000  Uiso   1.00
H219   H     0.48386   0.86577   0.35267   0.00000  Uiso   1.00
H220   H     0.83854   0.36919   0.55705   0.00000  Uiso   1.00
H221   H     0.95518   0.20926   0.08846   0.00000  Uiso   1.00
O222   O     0.34041   0.82476   0.30158   0.00000  Uiso   1.00
O223   O     0.80575   0.48523   0.56970   0.00000  Uiso   1.00
O224   O     0.95878   0.27540   0.95492   0.00000  Uiso   1.00
N225   N     0.41326   0.95650   0.26316   0.00000  Uiso   1.00
N226   N     0.74485   0.42715   0.45425   0.00000  Uiso   1.00
N227   N     0.85392   0.27765   0.01617   0.00000  Uiso   1.00
N228   N     0.47519   0.90587   0.32487   0.00000  Uiso   1.00
N229   N     0.80679   0.37652   0.51596   0.00000  Uiso   1.00
N230   N     0.91585   0.22702   0.07787   0.00000  Uiso   1.00
C231   C     0.55965   0.33479   0.57240   0.00000  Uiso   1.00
C232   C     0.52761   0.38909   0.59411   0.00000  Uiso   1.00
C233   C     0.56338   0.46925   0.57800   0.00000  Uiso   1.00
C234   C     0.52466   0.50849   0.60274   0.00000  Uiso   1.00
C235   C     0.48588   0.59883   0.63048   0.00000  Uiso   1.00
C236   C     0.56594   0.29771   0.64679   0.00000  Uiso   1.00
C237   C     0.63394   0.30103   0.67496   0.00000  Uiso   1.00
C238   C     0.62748   0.26334   0.74403   0.00000  Uiso   1.00
C239   C     0.64819   0.21176   0.85352   0.00000  Uiso   1.00
C240   C     0.49468   0.26767   0.52605   0.00000  Uiso   1.00
C241   C     0.50276   0.24570   0.45270   0.00000  Uiso   1.00
C242   C     0.43631   0.18270   0.42012   0.00000  Uiso   1.00
C243   C     0.34637   0.08447   0.34215   0.00000  Uiso   1.00
C244   C     0.42727   0.26195   0.64497   0.00000  Uiso   1.00
C245   C     0.45571   0.34953   0.63353   0.00000  Uiso   1.00
C246   C     0.41693   0.38866   0.65829   0.00000  Uiso   1.00
C247   C     0.45263   0.46886   0.64222   0.00000  Uiso   1.00
C248   C     0.49404   0.25815   0.68620   0.00000  Uiso   1.00
C249   C     0.48748   0.22044   0.75525   0.00000  Uiso   1.00
C250   C     0.55545   0.22371   0.78351   0.00000  Uiso   1.00
C251   C     0.42278   0.22810   0.56546   0.00000  Uiso   1.00
C252   C     0.35630   0.16512   0.53299   0.00000  Uiso   1.00
C253   C     0.36428   0.14307   0.45961   0.00000  Uiso   1.00
H254   H     0.61562   0.36559   0.54172   0.00000  Uiso   1.00
H255   H     0.61903   0.49985   0.54750   0.00000  Uiso   1.00
H256   H     0.68957   0.33164   0.64444   0.00000  Uiso   1.00
H257   H     0.55841   0.27633   0.42222   0.00000  Uiso   1.00
H258   H     0.59111   0.63125   0.57132   0.00000  Uiso   1.00
H259   H     0.73984   0.27656   0.77570   0.00000  Uiso   1.00
H260   H     0.46327   0.15992   0.30711   0.00000  Uiso   1.00
H261   H     0.37129   0.23115   0.67566   0.00000  Uiso   1.00
H262   H     0.36129   0.35803   0.68879   0.00000  Uiso   1.00
H263   H     0.43183   0.18983   0.78573   0.00000  Uiso   1.00
H264   H     0.30067   0.13452   0.56351   0.00000  Uiso   1.00
H265   H     0.38192   0.51614   0.68600   0.00000  Uiso   1.00
H266   H     0.53065   0.16146   0.89038   0.00000  Uiso   1.00
H267   H     0.25408   0.04482   0.42179   0.00000  Uiso   1.00
O268   O     0.48435   0.65959   0.63491   0.00000  Uiso   1.00
O269   O     0.67948   0.19425   0.90303   0.00000  Uiso   1.00
O270   O     0.31662   0.04122   0.28825   0.00000  Uiso   1.00
N271   N     0.54324   0.58674   0.59650   0.00000  Uiso   1.00
N272   N     0.68230   0.25515   0.78758   0.00000  Uiso   1.00
N273   N     0.42373   0.14608   0.34950   0.00000  Uiso   1.00
N274   N     0.43068   0.52481   0.65821   0.00000  Uiso   1.00
N275   N     0.56973   0.19321   0.84929   0.00000  Uiso   1.00
N276   N     0.31117   0.08415   0.41121   0.00000  Uiso   1.00
