data_job_01954
_audit_creation_date              2018-12-19
_audit_creation_method            'Materials Studio'
_symmetry_space_group_name_H-M    'P1'
_symmetry_Int_Tables_number       1
_symmetry_cell_setting            triclinic
loop_
_symmetry_equiv_pos_as_xyz
  x,y,z
_cell_length_a                    23.1870
_cell_length_b                    7.0901
_cell_length_c                    22.6081
_cell_angle_alpha                 90.0132
_cell_angle_beta                  91.2631
_cell_angle_gamma                 89.9750
loop_
_atom_site_label
_atom_site_type_symbol
_atom_site_fract_x
_atom_site_fract_y
_atom_site_fract_z
_atom_site_U_iso_or_equiv
_atom_site_adp_type
_atom_site_occupancy
C1     C     0.29624   0.73618   0.68703   0.00000  Uiso   1.00
C2     C     0.32656   0.83504   0.73892   0.00000  Uiso   1.00
C3     C     0.35960   0.74768   0.78291   0.00000  Uiso   1.00
C4     C     0.38370   0.86285   0.82653   0.00000  Uiso   1.00
C5     C     0.43208   0.98661   0.90718   0.00000  Uiso   1.00
C6     C     0.23273   0.79020   0.69035   0.00000  Uiso   1.00
C7     C     0.18687   0.66513   0.69350   0.00000  Uiso   1.00
C8     C     0.13199   0.74257   0.69623   0.00000  Uiso   1.00
C9     C     0.03468   0.79670   0.70144   0.00000  Uiso   1.00
C10    C     0.31850   0.82996   0.63130   0.00000  Uiso   1.00
C11    C     0.34475   0.73831   0.58478   0.00000  Uiso   1.00
C12    C     0.36207   0.84922   0.53779   0.00000  Uiso   1.00
C13    C     0.39794   0.96507   0.45131   0.00000  Uiso   1.00
C14    C     0.28030   0.09610   0.68627   0.00000  Uiso   1.00
C15    C     0.31790   0.03053   0.73850   0.00000  Uiso   1.00
C16    C     0.34197   0.14588   0.78207   0.00000  Uiso   1.00
C17    C     0.37503   0.05870   0.82612   0.00000  Uiso   1.00
C18    C     0.22407   0.98568   0.68994   0.00000  Uiso   1.00
C19    C     0.16924   0.06333   0.69266   0.00000  Uiso   1.00
C20    C     0.12331   0.93841   0.69582   0.00000  Uiso   1.00
C21    C     0.30985   0.02545   0.63089   0.00000  Uiso   1.00
C22    C     0.32712   0.13652   0.58395   0.00000  Uiso   1.00
C23    C     0.35340   0.04506   0.53738   0.00000  Uiso   1.00
H24    H     0.30298   0.58399   0.68735   0.00000  Uiso   1.00
H25    H     0.36629   0.59638   0.78321   0.00000  Uiso   1.00
H26    H     0.19359   0.51385   0.69381   0.00000  Uiso   1.00
H27    H     0.35145   0.58703   0.58512   0.00000  Uiso   1.00
H28    H     0.43264   0.69633   0.88933   0.00000  Uiso   1.00
H29    H     0.06849   0.52231   0.70081   0.00000  Uiso   1.00
H30    H     0.40136   0.67660   0.47160   0.00000  Uiso   1.00
H31    H     0.27356   0.24830   0.68595   0.00000  Uiso   1.00
H32    H     0.33526   0.29716   0.78174   0.00000  Uiso   1.00
H33    H     0.16256   0.21462   0.69234   0.00000  Uiso   1.00
H34    H     0.32041   0.28779   0.58365   0.00000  Uiso   1.00
H35    H     0.40745   0.26510   0.88813   0.00000  Uiso   1.00
H36    H     0.04330   0.09108   0.69961   0.00000  Uiso   1.00
H37    H     0.37618   0.24538   0.47040   0.00000  Uiso   1.00
O38    O     0.46115   0.00086   0.95178   0.00000  Uiso   1.00
O39    O     0.98340   0.77254   0.70444   0.00000  Uiso   1.00
O40    O     0.42012   0.97498   0.40372   0.00000  Uiso   1.00
N41    N     0.41825   0.82349   0.87589   0.00000  Uiso   1.00
N42    N     0.07780   0.66079   0.69965   0.00000  Uiso   1.00
N43    N     0.38899   0.80504   0.48535   0.00000  Uiso   1.00
N44    N     0.40470   0.12954   0.87525   0.00000  Uiso   1.00
N45    N     0.06425   0.96684   0.69901   0.00000  Uiso   1.00
N46    N     0.37544   0.11109   0.48471   0.00000  Uiso   1.00
C47    C     0.69103   0.25302   0.72249   0.00000  Uiso   1.00
C48    C     0.67171   0.15037   0.77791   0.00000  Uiso   1.00
C49    C     0.64354   0.23183   0.82504   0.00000  Uiso   1.00
C50    C     0.62952   0.11397   0.87160   0.00000  Uiso   1.00
C51    C     0.59747   0.98386   0.95775   0.00000  Uiso   1.00
C52    C     0.75567   0.21705   0.71848   0.00000  Uiso   1.00
C53    C     0.79809   0.35459   0.71563   0.00000  Uiso   1.00
C54    C     0.85475   0.29285   0.71215   0.00000  Uiso   1.00
C55    C     0.95304   0.26628   0.70599   0.00000  Uiso   1.00
C56    C     0.66298   0.14892   0.67032   0.00000  Uiso   1.00
C57    C     0.62748   0.22917   0.62697   0.00000  Uiso   1.00
C58    C     0.60611   0.11008   0.58294   0.00000  Uiso   1.00
C59    C     0.56049   0.97772   0.50201   0.00000  Uiso   1.00
C60    C     0.71623   0.89883   0.72136   0.00000  Uiso   1.00
C61    C     0.68540   0.95798   0.77729   0.00000  Uiso   1.00
C62    C     0.67142   0.83996   0.82379   0.00000  Uiso   1.00
C63    C     0.64323   0.92124   0.87098   0.00000  Uiso   1.00
C64    C     0.76936   0.02468   0.71786   0.00000  Uiso   1.00
C65    C     0.82597   0.96272   0.71437   0.00000  Uiso   1.00
C66    C     0.86846   0.10013   0.71153   0.00000  Uiso   1.00
C67    C     0.67667   0.95653   0.66970   0.00000  Uiso   1.00
C68    C     0.65536   0.83730   0.62572   0.00000  Uiso   1.00
C69    C     0.61982   0.91735   0.58232   0.00000  Uiso   1.00
H70    H     0.68038   0.40280   0.72297   0.00000  Uiso   1.00
H71    H     0.63296   0.38072   0.82551   0.00000  Uiso   1.00
H72    H     0.78749   0.50345   0.71610   0.00000  Uiso   1.00
H73    H     0.61690   0.37805   0.62747   0.00000  Uiso   1.00
H74    H     0.58645   0.27142   0.93892   0.00000  Uiso   1.00
H75    H     0.91227   0.53021   0.70822   0.00000  Uiso   1.00
H76    H     0.55255   0.26578   0.52131   0.00000  Uiso   1.00
H77    H     0.72689   0.74905   0.72088   0.00000  Uiso   1.00
H78    H     0.68202   0.69109   0.82330   0.00000  Uiso   1.00
H79    H     0.83654   0.81383   0.71389   0.00000  Uiso   1.00
H80    H     0.66595   0.68843   0.62526   0.00000  Uiso   1.00
H81    H     0.62626   0.71169   0.93713   0.00000  Uiso   1.00
H82    H     0.95208   0.97049   0.70642   0.00000  Uiso   1.00
H83    H     0.59237   0.70606   0.51952   0.00000  Uiso   1.00
O84    O     0.57602   0.96524   0.00545   0.00000  Uiso   1.00
O85    O     0.00348   0.30477   0.70276   0.00000  Uiso   1.00
O86    O     0.53154   0.95785   0.45754   0.00000  Uiso   1.00
N87    N     0.60196   0.14763   0.92444   0.00000  Uiso   1.00
N88    N     0.90659   0.38959   0.70876   0.00000  Uiso   1.00
N89    N     0.57030   0.14238   0.53400   0.00000  Uiso   1.00
N90    N     0.62339   0.84645   0.92348   0.00000  Uiso   1.00
N91    N     0.92801   0.08841   0.70779   0.00000  Uiso   1.00
N92    N     0.59172   0.84120   0.53304   0.00000  Uiso   1.00
C93    C     0.61460   0.23675   0.19995   0.00000  Uiso   1.00
C94    C     0.59232   0.33074   0.25566   0.00000  Uiso   1.00
C95    C     0.56606   0.23930   0.30218   0.00000  Uiso   1.00
C96    C     0.54872   0.35038   0.34915   0.00000  Uiso   1.00
C97    C     0.51283   0.46658   0.43561   0.00000  Uiso   1.00
C98    C     0.67810   0.29066   0.19663   0.00000  Uiso   1.00
C99    C     0.72398   0.16552   0.19350   0.00000  Uiso   1.00
C100   C     0.77885   0.24287   0.19076   0.00000  Uiso   1.00
C101   C     0.87615   0.29685   0.18553   0.00000  Uiso   1.00
C102   C     0.58427   0.33547   0.14804   0.00000  Uiso   1.00
C103   C     0.55126   0.24799   0.10406   0.00000  Uiso   1.00
C104   C     0.52715   0.36307   0.06040   0.00000  Uiso   1.00
C105   C     0.47876   0.48661   0.97973   0.00000  Uiso   1.00
C106   C     0.63049   0.59664   0.20064   0.00000  Uiso   1.00
C107   C     0.60095   0.52622   0.25604   0.00000  Uiso   1.00
C108   C     0.58364   0.63748   0.30294   0.00000  Uiso   1.00
C109   C     0.55736   0.54621   0.34952   0.00000  Uiso   1.00
C110   C     0.68674   0.48614   0.19700   0.00000  Uiso   1.00
C111   C     0.74156   0.56370   0.19426   0.00000  Uiso   1.00
C112   C     0.78750   0.43870   0.19114   0.00000  Uiso   1.00
C113   C     0.59290   0.53095   0.14842   0.00000  Uiso   1.00
C114   C     0.56884   0.64618   0.10482   0.00000  Uiso   1.00
C115   C     0.53580   0.55890   0.06078   0.00000  Uiso   1.00
H116   H     0.60788   0.08456   0.19966   0.00000  Uiso   1.00
H117   H     0.55939   0.08801   0.30188   0.00000  Uiso   1.00
H118   H     0.71728   0.01425   0.19321   0.00000  Uiso   1.00
H119   H     0.54460   0.09672   0.10378   0.00000  Uiso   1.00
H120   H     0.50946   0.17804   0.41538   0.00000  Uiso   1.00
H121   H     0.84238   0.02250   0.18622   0.00000  Uiso   1.00
H122   H     0.47823   0.19640   0.99764   0.00000  Uiso   1.00
H123   H     0.63721   0.74884   0.20093   0.00000  Uiso   1.00
H124   H     0.59033   0.78875   0.30322   0.00000  Uiso   1.00
H125   H     0.74822   0.71498   0.19455   0.00000  Uiso   1.00
H126   H     0.57553   0.79745   0.10512   0.00000  Uiso   1.00
H127   H     0.53457   0.74678   0.41647   0.00000  Uiso   1.00
H128   H     0.86749   0.59124   0.18731   0.00000  Uiso   1.00
H129   H     0.50334   0.76514   0.99873   0.00000  Uiso   1.00
O130   O     0.49066   0.47667   0.48320   0.00000  Uiso   1.00
O131   O     0.92743   0.27261   0.18254   0.00000  Uiso   1.00
O132   O     0.44968   0.50076   0.93514   0.00000  Uiso   1.00
N133   N     0.52179   0.30642   0.40159   0.00000  Uiso   1.00
N134   N     0.83305   0.16100   0.18735   0.00000  Uiso   1.00
N135   N     0.49262   0.32358   0.01104   0.00000  Uiso   1.00
N136   N     0.53530   0.61246   0.40218   0.00000  Uiso   1.00
N137   N     0.84656   0.46704   0.18794   0.00000  Uiso   1.00
N138   N     0.50613   0.62961   0.01163   0.00000  Uiso   1.00
C139   C     0.21977   0.75246   0.16453   0.00000  Uiso   1.00
C140   C     0.24783   0.64814   0.21666   0.00000  Uiso   1.00
C141   C     0.28334   0.72817   0.26003   0.00000  Uiso   1.00
C142   C     0.30472   0.60890   0.30401   0.00000  Uiso   1.00
C143   C     0.35034   0.47619   0.38489   0.00000  Uiso   1.00
C144   C     0.15513   0.71664   0.16854   0.00000  Uiso   1.00
C145   C     0.11271   0.85427   0.17144   0.00000  Uiso   1.00
C146   C     0.05605   0.79265   0.17490   0.00000  Uiso   1.00
C147   C     0.95776   0.76629   0.18102   0.00000  Uiso   1.00
C148   C     0.23909   0.64994   0.10908   0.00000  Uiso   1.00
C149   C     0.26724   0.73149   0.06197   0.00000  Uiso   1.00
C150   C     0.28126   0.61372   0.01535   0.00000  Uiso   1.00
C151   C     0.31333   0.48379   0.92915   0.00000  Uiso   1.00
C152   C     0.19459   0.39833   0.16551   0.00000  Uiso   1.00
C153   C     0.23415   0.45579   0.21719   0.00000  Uiso   1.00
C154   C     0.25548   0.33636   0.26112   0.00000  Uiso   1.00
C155   C     0.29102   0.41620   0.30454   0.00000  Uiso   1.00
C156   C     0.14145   0.52430   0.16907   0.00000  Uiso   1.00
C157   C     0.08485   0.46246   0.17253   0.00000  Uiso   1.00
C158   C     0.04235   0.59996   0.17543   0.00000  Uiso   1.00
C159   C     0.22541   0.45758   0.10961   0.00000  Uiso   1.00
C160   C     0.23939   0.33967   0.06305   0.00000  Uiso   1.00
C161   C     0.26756   0.42102   0.01589   0.00000  Uiso   1.00
H162   H     0.23042   0.90222   0.16412   0.00000  Uiso   1.00
H163   H     0.29391   0.87704   0.25961   0.00000  Uiso   1.00
H164   H     0.12331   0.00311   0.17102   0.00000  Uiso   1.00
H165   H     0.27782   0.88034   0.06157   0.00000  Uiso   1.00
H166   H     0.35826   0.76431   0.36572   0.00000  Uiso   1.00
H167   H     0.99853   0.03014   0.17891   0.00000  Uiso   1.00
H168   H     0.32435   0.77126   0.94811   0.00000  Uiso   1.00
H169   H     0.18394   0.24857   0.16593   0.00000  Uiso   1.00
H170   H     0.24488   0.18752   0.26152   0.00000  Uiso   1.00
H171   H     0.07428   0.31360   0.17293   0.00000  Uiso   1.00
H172   H     0.22879   0.19083   0.06348   0.00000  Uiso   1.00
H173   H     0.31846   0.20467   0.36727   0.00000  Uiso   1.00
H174   H     0.95873   0.47050   0.18046   0.00000  Uiso   1.00
H175   H     0.28456   0.21162   0.94966   0.00000  Uiso   1.00
O176   O     0.37927   0.45613   0.42936   0.00000  Uiso   1.00
O177   O     0.90732   0.80489   0.18426   0.00000  Uiso   1.00
O178   O     0.33480   0.46525   0.88146   0.00000  Uiso   1.00
N179   N     0.34054   0.64097   0.35296   0.00000  Uiso   1.00
N180   N     0.00421   0.88950   0.17832   0.00000  Uiso   1.00
N181   N     0.30882   0.64749   0.96253   0.00000  Uiso   1.00
N182   N     0.31912   0.33983   0.35380   0.00000  Uiso   1.00
N183   N     0.98280   0.58837   0.17915   0.00000  Uiso   1.00
N184   N     0.28740   0.34635   0.96336   0.00000  Uiso   1.00
