data_job_05481
_audit_creation_date              2018-12-19
_audit_creation_method            'Materials Studio'
_symmetry_space_group_name_H-M    'P1'
_symmetry_Int_Tables_number       1
_symmetry_cell_setting            triclinic
loop_
_symmetry_equiv_pos_as_xyz
  x,y,z
_cell_length_a                    34.4162
_cell_length_b                    34.4162
_cell_length_c                    7.1544
_cell_angle_alpha                 90.0000
_cell_angle_beta                  90.0000
_cell_angle_gamma                 120.0000
loop_
_atom_site_label
_atom_site_type_symbol
_atom_site_fract_x
_atom_site_fract_y
_atom_site_fract_z
_atom_site_U_iso_or_equiv
_atom_site_adp_type
_atom_site_occupancy
C1     C     0.18623   0.74031   0.38655   0.00000  Uiso   1.00
C2     C     0.21290   0.78336   0.27406   0.00000  Uiso   1.00
C3     C     0.23718   0.82632   0.34769   0.00000  Uiso   1.00
C4     C     0.25927   0.86130   0.22145   0.00000  Uiso   1.00
C5     C     0.30097   0.92933   0.07613   0.00000  Uiso   1.00
C6     C     0.13843   0.71797   0.31098   0.00000  Uiso   1.00
C7     C     0.10010   0.70593   0.41567   0.00000  Uiso   1.00
C8     C     0.05950   0.68586   0.32051   0.00000  Uiso   1.00
C9     C     0.98559   0.65233   0.23253   0.00000  Uiso   1.00
C10    C     0.20467   0.70983   0.33123   0.00000  Uiso   1.00
C11    C     0.22202   0.69094   0.45295   0.00000  Uiso   1.00
C12    C     0.23718   0.66400   0.37485   0.00000  Uiso   1.00
C13    C     0.26612   0.61783   0.31832   0.00000  Uiso   1.00
C14    C     0.18228   0.72605   0.03142   0.00000  Uiso   1.00
C15    C     0.21075   0.77561   0.08117   0.00000  Uiso   1.00
C16    C     0.23281   0.81054   0.95479   0.00000  Uiso   1.00
C17    C     0.25712   0.85354   0.02822   0.00000  Uiso   1.00
C18    C     0.13628   0.71022   0.11810   0.00000  Uiso   1.00
C19    C     0.09573   0.69015   0.02277   0.00000  Uiso   1.00
C20    C     0.05735   0.67809   0.12727   0.00000  Uiso   1.00
C21    C     0.20252   0.70208   0.13835   0.00000  Uiso   1.00
C22    C     0.21765   0.67516   0.06004   0.00000  Uiso   1.00
C23    C     0.23503   0.65624   0.18161   0.00000  Uiso   1.00
H24    H     0.18790   0.74634   0.53672   0.00000  Uiso   1.00
H25    H     0.23883   0.83230   0.49697   0.00000  Uiso   1.00
H26    H     0.10177   0.71193   0.56493   0.00000  Uiso   1.00
H27    H     0.22368   0.69694   0.60221   0.00000  Uiso   1.00
H28    H     0.29433   0.92419   0.36784   0.00000  Uiso   1.00
H29    H     0.00534   0.67036   0.51115   0.00000  Uiso   1.00
H30    H     0.26240   0.63876   0.58976   0.00000  Uiso   1.00
H31    H     0.18061   0.72001   0.88125   0.00000  Uiso   1.00
H32    H     0.23114   0.80453   0.80553   0.00000  Uiso   1.00
H33    H     0.09408   0.68416   0.87350   0.00000  Uiso   1.00
H34    H     0.21599   0.66917   0.91077   0.00000  Uiso   1.00
H35    H     0.28808   0.90165   0.80664   0.00000  Uiso   1.00
H36    H     0.99909   0.64782   0.94996   0.00000  Uiso   1.00
H37    H     0.25616   0.61622   0.02856   0.00000  Uiso   1.00
O38    O     0.32456   0.96899   0.04925   0.00000  Uiso   1.00
O39    O     0.94542   0.63598   0.23729   0.00000  Uiso   1.00
O40    O     0.28268   0.59451   0.34041   0.00000  Uiso   1.00
N41    N     0.28593   0.90728   0.24615   0.00000  Uiso   1.00
N42    N     0.01574   0.66998   0.38014   0.00000  Uiso   1.00
N43    N     0.25606   0.64042   0.45364   0.00000  Uiso   1.00
N44    N     0.28257   0.89515   0.94417   0.00000  Uiso   1.00
N45    N     0.01238   0.65785   0.07816   0.00000  Uiso   1.00
N46    N     0.25271   0.62829   0.15166   0.00000  Uiso   1.00
C47    C     0.25969   0.44592   0.05321   0.00000  Uiso   1.00
C48    C     0.21664   0.42953   0.94073   0.00000  Uiso   1.00
C49    C     0.17368   0.41086   0.01435   0.00000  Uiso   1.00
C50    C     0.13870   0.39797   0.88812   0.00000  Uiso   1.00
C51    C     0.07067   0.37165   0.74279   0.00000  Uiso   1.00
C52    C     0.28203   0.42046   0.97765   0.00000  Uiso   1.00
C53    C     0.29407   0.39417   0.08233   0.00000  Uiso   1.00
C54    C     0.31414   0.37365   0.98717   0.00000  Uiso   1.00
C55    C     0.34767   0.33327   0.89919   0.00000  Uiso   1.00
C56    C     0.29017   0.49484   0.99790   0.00000  Uiso   1.00
C57    C     0.30906   0.53109   0.11962   0.00000  Uiso   1.00
C58    C     0.33600   0.57319   0.04151   0.00000  Uiso   1.00
C59    C     0.38217   0.64829   0.98498   0.00000  Uiso   1.00
C60    C     0.27395   0.45624   0.69809   0.00000  Uiso   1.00
C61    C     0.22439   0.43513   0.74784   0.00000  Uiso   1.00
C62    C     0.18946   0.42227   0.62145   0.00000  Uiso   1.00
C63    C     0.14646   0.40358   0.69489   0.00000  Uiso   1.00
C64    C     0.28978   0.42606   0.78477   0.00000  Uiso   1.00
C65    C     0.30985   0.40558   0.68943   0.00000  Uiso   1.00
C66    C     0.32191   0.37926   0.79394   0.00000  Uiso   1.00
C67    C     0.29792   0.50044   0.80501   0.00000  Uiso   1.00
C68    C     0.32484   0.54249   0.72671   0.00000  Uiso   1.00
C69    C     0.34376   0.57880   0.84828   0.00000  Uiso   1.00
H70    H     0.25366   0.44156   0.20338   0.00000  Uiso   1.00
H71    H     0.16770   0.40653   0.16364   0.00000  Uiso   1.00
H72    H     0.28807   0.38984   0.23160   0.00000  Uiso   1.00
H73    H     0.30306   0.52674   0.26887   0.00000  Uiso   1.00
H74    H     0.07581   0.37014   0.03450   0.00000  Uiso   1.00
H75    H     0.32964   0.33497   0.17782   0.00000  Uiso   1.00
H76    H     0.36124   0.62364   0.25643   0.00000  Uiso   1.00
H77    H     0.27999   0.46060   0.54791   0.00000  Uiso   1.00
H78    H     0.19547   0.42661   0.47219   0.00000  Uiso   1.00
H79    H     0.31584   0.40992   0.54016   0.00000  Uiso   1.00
H80    H     0.33083   0.54682   0.57744   0.00000  Uiso   1.00
H81    H     0.09835   0.38644   0.47330   0.00000  Uiso   1.00
H82    H     0.35218   0.35127   0.61663   0.00000  Uiso   1.00
H83    H     0.38378   0.63994   0.69523   0.00000  Uiso   1.00
O84    O     0.03101   0.35557   0.71592   0.00000  Uiso   1.00
O85    O     0.36402   0.30944   0.90396   0.00000  Uiso   1.00
O86    O     0.40549   0.68817   0.00708   0.00000  Uiso   1.00
N87    N     0.09272   0.37865   0.91282   0.00000  Uiso   1.00
N88    N     0.33002   0.34576   0.04681   0.00000  Uiso   1.00
N89    N     0.35958   0.61564   0.12030   0.00000  Uiso   1.00
N90    N     0.10485   0.38742   0.61084   0.00000  Uiso   1.00
N91    N     0.34215   0.35453   0.74483   0.00000  Uiso   1.00
N92    N     0.37171   0.62441   0.81833   0.00000  Uiso   1.00
C93    C     0.55408   0.81377   0.71988   0.00000  Uiso   1.00
C94    C     0.57047   0.78710   0.60739   0.00000  Uiso   1.00
C95    C     0.58914   0.76282   0.68102   0.00000  Uiso   1.00
C96    C     0.60203   0.74073   0.55479   0.00000  Uiso   1.00
C97    C     0.62835   0.69903   0.40946   0.00000  Uiso   1.00
C98    C     0.57954   0.86157   0.64431   0.00000  Uiso   1.00
C99    C     0.60583   0.89990   0.74900   0.00000  Uiso   1.00
C100   C     0.62635   0.94050   0.65384   0.00000  Uiso   1.00
C101   C     0.66673   0.01441   0.56586   0.00000  Uiso   1.00
C102   C     0.50516   0.79533   0.66457   0.00000  Uiso   1.00
C103   C     0.46891   0.77798   0.78628   0.00000  Uiso   1.00
C104   C     0.42681   0.76282   0.70818   0.00000  Uiso   1.00
C105   C     0.35171   0.73388   0.65165   0.00000  Uiso   1.00
C106   C     0.54376   0.81772   0.36476   0.00000  Uiso   1.00
C107   C     0.56487   0.78925   0.41450   0.00000  Uiso   1.00
C108   C     0.57773   0.76719   0.28812   0.00000  Uiso   1.00
C109   C     0.59642   0.74288   0.36155   0.00000  Uiso   1.00
C110   C     0.57394   0.86372   0.45143   0.00000  Uiso   1.00
C111   C     0.59442   0.90427   0.35610   0.00000  Uiso   1.00
C112   C     0.62074   0.94265   0.46060   0.00000  Uiso   1.00
C113   C     0.49956   0.79748   0.47168   0.00000  Uiso   1.00
C114   C     0.45751   0.78235   0.39338   0.00000  Uiso   1.00
C115   C     0.42120   0.76497   0.51495   0.00000  Uiso   1.00
H116   H     0.55844   0.81210   0.87005   0.00000  Uiso   1.00
H117   H     0.59347   0.76117   0.83030   0.00000  Uiso   1.00
H118   H     0.61016   0.89823   0.89827   0.00000  Uiso   1.00
H119   H     0.47326   0.77632   0.93554   0.00000  Uiso   1.00
H120   H     0.62986   0.70567   0.70117   0.00000  Uiso   1.00
H121   H     0.66503   0.99466   0.84449   0.00000  Uiso   1.00
H122   H     0.37636   0.73760   0.92309   0.00000  Uiso   1.00
H123   H     0.53940   0.81939   0.21458   0.00000  Uiso   1.00
H124   H     0.57339   0.76886   0.13886   0.00000  Uiso   1.00
H125   H     0.59008   0.90592   0.20683   0.00000  Uiso   1.00
H126   H     0.45318   0.78401   0.24410   0.00000  Uiso   1.00
H127   H     0.61356   0.71192   0.13997   0.00000  Uiso   1.00
H128   H     0.64873   0.00091   0.28329   0.00000  Uiso   1.00
H129   H     0.36006   0.74384   0.36189   0.00000  Uiso   1.00
O130   O     0.64443   0.67544   0.38258   0.00000  Uiso   1.00
O131   O     0.69056   0.05458   0.57062   0.00000  Uiso   1.00
O132   O     0.31183   0.71732   0.67375   0.00000  Uiso   1.00
N133   N     0.62135   0.71407   0.57948   0.00000  Uiso   1.00
N134   N     0.65424   0.98426   0.71348   0.00000  Uiso   1.00
N135   N     0.38436   0.74394   0.78697   0.00000  Uiso   1.00
N136   N     0.61258   0.71743   0.27751   0.00000  Uiso   1.00
N137   N     0.64547   0.98762   0.41150   0.00000  Uiso   1.00
N138   N     0.37559   0.74729   0.48499   0.00000  Uiso   1.00
C139   C     0.81377   0.25969   0.38655   0.00000  Uiso   1.00
C140   C     0.78710   0.21664   0.27406   0.00000  Uiso   1.00
C141   C     0.76282   0.17368   0.34769   0.00000  Uiso   1.00
C142   C     0.74073   0.13870   0.22145   0.00000  Uiso   1.00
C143   C     0.69903   0.07067   0.07613   0.00000  Uiso   1.00
C144   C     0.86157   0.28203   0.31098   0.00000  Uiso   1.00
C145   C     0.89990   0.29407   0.41567   0.00000  Uiso   1.00
C146   C     0.94050   0.31414   0.32051   0.00000  Uiso   1.00
C147   C     0.01441   0.34767   0.23253   0.00000  Uiso   1.00
C148   C     0.79533   0.29017   0.33123   0.00000  Uiso   1.00
C149   C     0.77798   0.30906   0.45295   0.00000  Uiso   1.00
C150   C     0.76282   0.33600   0.37485   0.00000  Uiso   1.00
C151   C     0.73388   0.38217   0.31832   0.00000  Uiso   1.00
C152   C     0.81772   0.27395   0.03142   0.00000  Uiso   1.00
C153   C     0.78925   0.22439   0.08117   0.00000  Uiso   1.00
C154   C     0.76719   0.18946   0.95479   0.00000  Uiso   1.00
C155   C     0.74288   0.14646   0.02822   0.00000  Uiso   1.00
C156   C     0.86372   0.28978   0.11810   0.00000  Uiso   1.00
C157   C     0.90427   0.30985   0.02277   0.00000  Uiso   1.00
C158   C     0.94265   0.32191   0.12727   0.00000  Uiso   1.00
C159   C     0.79748   0.29792   0.13835   0.00000  Uiso   1.00
C160   C     0.78235   0.32484   0.06004   0.00000  Uiso   1.00
C161   C     0.76497   0.34376   0.18161   0.00000  Uiso   1.00
H162   H     0.81210   0.25366   0.53672   0.00000  Uiso   1.00
H163   H     0.76117   0.16770   0.49697   0.00000  Uiso   1.00
H164   H     0.89823   0.28807   0.56493   0.00000  Uiso   1.00
H165   H     0.77632   0.30306   0.60221   0.00000  Uiso   1.00
H166   H     0.70567   0.07581   0.36784   0.00000  Uiso   1.00
H167   H     0.99466   0.32964   0.51115   0.00000  Uiso   1.00
H168   H     0.73760   0.36124   0.58976   0.00000  Uiso   1.00
H169   H     0.81939   0.27999   0.88125   0.00000  Uiso   1.00
H170   H     0.76886   0.19547   0.80553   0.00000  Uiso   1.00
H171   H     0.90592   0.31584   0.87350   0.00000  Uiso   1.00
H172   H     0.78401   0.33083   0.91077   0.00000  Uiso   1.00
H173   H     0.71192   0.09835   0.80664   0.00000  Uiso   1.00
H174   H     0.00091   0.35218   0.94996   0.00000  Uiso   1.00
H175   H     0.74384   0.38378   0.02856   0.00000  Uiso   1.00
O176   O     0.67544   0.03101   0.04925   0.00000  Uiso   1.00
O177   O     0.05458   0.36402   0.23729   0.00000  Uiso   1.00
O178   O     0.71732   0.40549   0.34041   0.00000  Uiso   1.00
N179   N     0.71407   0.09272   0.24615   0.00000  Uiso   1.00
N180   N     0.98426   0.33002   0.38014   0.00000  Uiso   1.00
N181   N     0.74394   0.35958   0.45364   0.00000  Uiso   1.00
N182   N     0.71743   0.10485   0.94417   0.00000  Uiso   1.00
N183   N     0.98762   0.34215   0.07816   0.00000  Uiso   1.00
N184   N     0.74729   0.37171   0.15166   0.00000  Uiso   1.00
C185   C     0.74031   0.55408   0.05321   0.00000  Uiso   1.00
C186   C     0.78336   0.57047   0.94073   0.00000  Uiso   1.00
C187   C     0.82632   0.58914   0.01435   0.00000  Uiso   1.00
C188   C     0.86130   0.60203   0.88812   0.00000  Uiso   1.00
C189   C     0.92933   0.62835   0.74279   0.00000  Uiso   1.00
C190   C     0.71797   0.57954   0.97765   0.00000  Uiso   1.00
C191   C     0.70593   0.60583   0.08233   0.00000  Uiso   1.00
C192   C     0.68586   0.62635   0.98717   0.00000  Uiso   1.00
C193   C     0.65233   0.66673   0.89919   0.00000  Uiso   1.00
C194   C     0.70983   0.50516   0.99790   0.00000  Uiso   1.00
C195   C     0.69094   0.46891   0.11962   0.00000  Uiso   1.00
C196   C     0.66400   0.42681   0.04151   0.00000  Uiso   1.00
C197   C     0.61783   0.35171   0.98498   0.00000  Uiso   1.00
C198   C     0.72605   0.54376   0.69809   0.00000  Uiso   1.00
C199   C     0.77561   0.56487   0.74784   0.00000  Uiso   1.00
C200   C     0.81054   0.57773   0.62145   0.00000  Uiso   1.00
C201   C     0.85354   0.59642   0.69489   0.00000  Uiso   1.00
C202   C     0.71022   0.57394   0.78477   0.00000  Uiso   1.00
C203   C     0.69015   0.59442   0.68943   0.00000  Uiso   1.00
C204   C     0.67809   0.62074   0.79394   0.00000  Uiso   1.00
C205   C     0.70208   0.49956   0.80501   0.00000  Uiso   1.00
C206   C     0.67516   0.45751   0.72671   0.00000  Uiso   1.00
C207   C     0.65624   0.42120   0.84828   0.00000  Uiso   1.00
H208   H     0.74634   0.55844   0.20338   0.00000  Uiso   1.00
H209   H     0.83230   0.59347   0.16364   0.00000  Uiso   1.00
H210   H     0.71193   0.61016   0.23160   0.00000  Uiso   1.00
H211   H     0.69694   0.47326   0.26887   0.00000  Uiso   1.00
H212   H     0.92419   0.62986   0.03450   0.00000  Uiso   1.00
H213   H     0.67036   0.66503   0.17782   0.00000  Uiso   1.00
H214   H     0.63876   0.37636   0.25643   0.00000  Uiso   1.00
H215   H     0.72001   0.53940   0.54791   0.00000  Uiso   1.00
H216   H     0.80453   0.57339   0.47219   0.00000  Uiso   1.00
H217   H     0.68416   0.59008   0.54016   0.00000  Uiso   1.00
H218   H     0.66917   0.45318   0.57744   0.00000  Uiso   1.00
H219   H     0.90165   0.61356   0.47330   0.00000  Uiso   1.00
H220   H     0.64782   0.64873   0.61663   0.00000  Uiso   1.00
H221   H     0.61622   0.36006   0.69523   0.00000  Uiso   1.00
O222   O     0.96899   0.64443   0.71592   0.00000  Uiso   1.00
O223   O     0.63598   0.69056   0.90396   0.00000  Uiso   1.00
O224   O     0.59451   0.31183   0.00708   0.00000  Uiso   1.00
N225   N     0.90728   0.62135   0.91282   0.00000  Uiso   1.00
N226   N     0.66998   0.65424   0.04681   0.00000  Uiso   1.00
N227   N     0.64042   0.38436   0.12030   0.00000  Uiso   1.00
N228   N     0.89515   0.61258   0.61084   0.00000  Uiso   1.00
N229   N     0.65785   0.64547   0.74483   0.00000  Uiso   1.00
N230   N     0.62829   0.37559   0.81833   0.00000  Uiso   1.00
C231   C     0.44592   0.18623   0.71988   0.00000  Uiso   1.00
C232   C     0.42953   0.21290   0.60739   0.00000  Uiso   1.00
C233   C     0.41086   0.23718   0.68102   0.00000  Uiso   1.00
C234   C     0.39797   0.25927   0.55479   0.00000  Uiso   1.00
C235   C     0.37165   0.30097   0.40946   0.00000  Uiso   1.00
C236   C     0.42046   0.13843   0.64431   0.00000  Uiso   1.00
C237   C     0.39417   0.10010   0.74900   0.00000  Uiso   1.00
C238   C     0.37365   0.05950   0.65384   0.00000  Uiso   1.00
C239   C     0.33327   0.98559   0.56586   0.00000  Uiso   1.00
C240   C     0.49484   0.20467   0.66457   0.00000  Uiso   1.00
C241   C     0.53109   0.22202   0.78628   0.00000  Uiso   1.00
C242   C     0.57319   0.23718   0.70818   0.00000  Uiso   1.00
C243   C     0.64829   0.26612   0.65165   0.00000  Uiso   1.00
C244   C     0.45624   0.18228   0.36476   0.00000  Uiso   1.00
C245   C     0.43513   0.21075   0.41450   0.00000  Uiso   1.00
C246   C     0.42227   0.23281   0.28812   0.00000  Uiso   1.00
C247   C     0.40358   0.25712   0.36155   0.00000  Uiso   1.00
C248   C     0.42606   0.13628   0.45143   0.00000  Uiso   1.00
C249   C     0.40558   0.09573   0.35610   0.00000  Uiso   1.00
C250   C     0.37926   0.05735   0.46060   0.00000  Uiso   1.00
C251   C     0.50044   0.20252   0.47168   0.00000  Uiso   1.00
C252   C     0.54249   0.21765   0.39338   0.00000  Uiso   1.00
C253   C     0.57880   0.23503   0.51495   0.00000  Uiso   1.00
H254   H     0.44156   0.18790   0.87005   0.00000  Uiso   1.00
H255   H     0.40653   0.23883   0.83030   0.00000  Uiso   1.00
H256   H     0.38984   0.10177   0.89827   0.00000  Uiso   1.00
H257   H     0.52674   0.22368   0.93554   0.00000  Uiso   1.00
H258   H     0.37014   0.29433   0.70117   0.00000  Uiso   1.00
H259   H     0.33497   0.00534   0.84449   0.00000  Uiso   1.00
H260   H     0.62364   0.26240   0.92309   0.00000  Uiso   1.00
H261   H     0.46060   0.18061   0.21458   0.00000  Uiso   1.00
H262   H     0.42661   0.23114   0.13886   0.00000  Uiso   1.00
H263   H     0.40992   0.09408   0.20683   0.00000  Uiso   1.00
H264   H     0.54682   0.21599   0.24410   0.00000  Uiso   1.00
H265   H     0.38644   0.28808   0.13997   0.00000  Uiso   1.00
H266   H     0.35127   0.99909   0.28329   0.00000  Uiso   1.00
H267   H     0.63994   0.25616   0.36189   0.00000  Uiso   1.00
O268   O     0.35557   0.32456   0.38258   0.00000  Uiso   1.00
O269   O     0.30944   0.94542   0.57062   0.00000  Uiso   1.00
O270   O     0.68817   0.28268   0.67375   0.00000  Uiso   1.00
N271   N     0.37865   0.28593   0.57948   0.00000  Uiso   1.00
N272   N     0.34576   0.01574   0.71348   0.00000  Uiso   1.00
N273   N     0.61564   0.25606   0.78697   0.00000  Uiso   1.00
N274   N     0.38742   0.28257   0.27751   0.00000  Uiso   1.00
N275   N     0.35453   0.01238   0.41150   0.00000  Uiso   1.00
N276   N     0.62441   0.25271   0.48499   0.00000  Uiso   1.00
