data_job_01791
_audit_creation_date              2018-12-19
_audit_creation_method            'Materials Studio'
_symmetry_space_group_name_H-M    'P1'
_symmetry_Int_Tables_number       1
_symmetry_cell_setting            triclinic
loop_
_symmetry_equiv_pos_as_xyz
  x,y,z
_cell_length_a                    22.0561
_cell_length_b                    18.6402
_cell_length_c                    13.4306
_cell_angle_alpha                 90.0000
_cell_angle_beta                  90.0000
_cell_angle_gamma                 90.0000
loop_
_atom_site_label
_atom_site_type_symbol
_atom_site_fract_x
_atom_site_fract_y
_atom_site_fract_z
_atom_site_U_iso_or_equiv
_atom_site_adp_type
_atom_site_occupancy
C1     C     0.78509   0.87632   0.78597   0.00000  Uiso   1.00
C2     C     0.75624   0.85852   0.68579   0.00000  Uiso   1.00
C3     C     0.69918   0.82878   0.67188   0.00000  Uiso   1.00
C4     C     0.68105   0.81655   0.57435   0.00000  Uiso   1.00
C5     C     0.63055   0.78631   0.43106   0.00000  Uiso   1.00
C6     C     0.84522   0.83599   0.78862   0.00000  Uiso   1.00
C7     C     0.86298   0.78732   0.86118   0.00000  Uiso   1.00
C8     C     0.91976   0.75613   0.85022   0.00000  Uiso   1.00
C9     C     0.00741   0.69095   0.86662   0.00000  Uiso   1.00
C10    C     0.80127   0.95579   0.78176   0.00000  Uiso   1.00
C11    C     0.78209   0.00786   0.84858   0.00000  Uiso   1.00
C12    C     0.80188   0.07754   0.83186   0.00000  Uiso   1.00
C13    C     0.82130   0.19837   0.83761   0.00000  Uiso   1.00
C14    C     0.85436   0.90748   0.63750   0.00000  Uiso   1.00
C15    C     0.79387   0.87544   0.60514   0.00000  Uiso   1.00
C16    C     0.77582   0.86326   0.50761   0.00000  Uiso   1.00
C17    C     0.71874   0.83351   0.49356   0.00000  Uiso   1.00
C18    C     0.88285   0.85291   0.70798   0.00000  Uiso   1.00
C19    C     0.93961   0.82180   0.69691   0.00000  Uiso   1.00
C20    C     0.95745   0.77309   0.76943   0.00000  Uiso   1.00
C21    C     0.83890   0.97272   0.70112   0.00000  Uiso   1.00
C22    C     0.85872   0.04233   0.68430   0.00000  Uiso   1.00
C23    C     0.83957   0.09449   0.75107   0.00000  Uiso   1.00
H24    H     0.75581   0.86314   0.84876   0.00000  Uiso   1.00
H25    H     0.67009   0.81569   0.73431   0.00000  Uiso   1.00
H26    H     0.83386   0.77424   0.92359   0.00000  Uiso   1.00
H27    H     0.75298   0.99474   0.91098   0.00000  Uiso   1.00
H28    H     0.59165   0.77052   0.57186   0.00000  Uiso   1.00
H29    H     0.93698   0.68314   0.97098   0.00000  Uiso   1.00
H30    H     0.76644   0.14811   0.94439   0.00000  Uiso   1.00
H31    H     0.88365   0.92066   0.57471   0.00000  Uiso   1.00
H32    H     0.80494   0.87636   0.44522   0.00000  Uiso   1.00
H33    H     0.96871   0.83491   0.63450   0.00000  Uiso   1.00
H34    H     0.88783   0.05541   0.62189   0.00000  Uiso   1.00
H35    H     0.70110   0.81976   0.33722   0.00000  Uiso   1.00
H36    H     0.04644   0.73238   0.73634   0.00000  Uiso   1.00
H37    H     0.87589   0.19735   0.70975   0.00000  Uiso   1.00
O38    O     0.59230   0.76494   0.37430   0.00000  Uiso   1.00
O39    O     0.04537   0.65031   0.89794   0.00000  Uiso   1.00
O40    O     0.82161   0.26034   0.86305   0.00000  Uiso   1.00
N41    N     0.62821   0.78820   0.53441   0.00000  Uiso   1.00
N42    N     0.95107   0.70649   0.90755   0.00000  Uiso   1.00
N43    N     0.79163   0.14120   0.88271   0.00000  Uiso   1.00
N44    N     0.68710   0.81470   0.40815   0.00000  Uiso   1.00
N45    N     0.00996   0.73299   0.78129   0.00000  Uiso   1.00
N46    N     0.85053   0.16770   0.75645   0.00000  Uiso   1.00
C47    C     0.28509   0.37632   0.78597   0.00000  Uiso   1.00
C48    C     0.25624   0.35852   0.68579   0.00000  Uiso   1.00
C49    C     0.19918   0.32878   0.67188   0.00000  Uiso   1.00
C50    C     0.18105   0.31655   0.57435   0.00000  Uiso   1.00
C51    C     0.13055   0.28631   0.43106   0.00000  Uiso   1.00
C52    C     0.34522   0.33599   0.78862   0.00000  Uiso   1.00
C53    C     0.36298   0.28732   0.86118   0.00000  Uiso   1.00
C54    C     0.41976   0.25613   0.85022   0.00000  Uiso   1.00
C55    C     0.50741   0.19095   0.86662   0.00000  Uiso   1.00
C56    C     0.30127   0.45579   0.78176   0.00000  Uiso   1.00
C57    C     0.28209   0.50786   0.84858   0.00000  Uiso   1.00
C58    C     0.30188   0.57754   0.83186   0.00000  Uiso   1.00
C59    C     0.32130   0.69837   0.83761   0.00000  Uiso   1.00
C60    C     0.35436   0.40748   0.63750   0.00000  Uiso   1.00
C61    C     0.29387   0.37544   0.60514   0.00000  Uiso   1.00
C62    C     0.27582   0.36326   0.50761   0.00000  Uiso   1.00
C63    C     0.21874   0.33351   0.49356   0.00000  Uiso   1.00
C64    C     0.38285   0.35291   0.70798   0.00000  Uiso   1.00
C65    C     0.43961   0.32180   0.69691   0.00000  Uiso   1.00
C66    C     0.45745   0.27309   0.76943   0.00000  Uiso   1.00
C67    C     0.33890   0.47272   0.70112   0.00000  Uiso   1.00
C68    C     0.35872   0.54233   0.68430   0.00000  Uiso   1.00
C69    C     0.33957   0.59449   0.75107   0.00000  Uiso   1.00
H70    H     0.25581   0.36314   0.84876   0.00000  Uiso   1.00
H71    H     0.17009   0.31569   0.73431   0.00000  Uiso   1.00
H72    H     0.33386   0.27424   0.92359   0.00000  Uiso   1.00
H73    H     0.25298   0.49474   0.91098   0.00000  Uiso   1.00
H74    H     0.09165   0.27052   0.57186   0.00000  Uiso   1.00
H75    H     0.43698   0.18314   0.97098   0.00000  Uiso   1.00
H76    H     0.26644   0.64811   0.94439   0.00000  Uiso   1.00
H77    H     0.38365   0.42066   0.57471   0.00000  Uiso   1.00
H78    H     0.30494   0.37636   0.44522   0.00000  Uiso   1.00
H79    H     0.46871   0.33491   0.63450   0.00000  Uiso   1.00
H80    H     0.38783   0.55541   0.62189   0.00000  Uiso   1.00
H81    H     0.20110   0.31976   0.33722   0.00000  Uiso   1.00
H82    H     0.54644   0.23238   0.73634   0.00000  Uiso   1.00
H83    H     0.37589   0.69735   0.70975   0.00000  Uiso   1.00
O84    O     0.09230   0.26494   0.37430   0.00000  Uiso   1.00
O85    O     0.54537   0.15031   0.89794   0.00000  Uiso   1.00
O86    O     0.32161   0.76034   0.86305   0.00000  Uiso   1.00
N87    N     0.12821   0.28820   0.53441   0.00000  Uiso   1.00
N88    N     0.45107   0.20649   0.90755   0.00000  Uiso   1.00
N89    N     0.29163   0.64120   0.88271   0.00000  Uiso   1.00
N90    N     0.18710   0.31470   0.40815   0.00000  Uiso   1.00
N91    N     0.50996   0.23299   0.78129   0.00000  Uiso   1.00
N92    N     0.35053   0.66770   0.75645   0.00000  Uiso   1.00
C93    C     0.21491   0.12368   0.78597   0.00000  Uiso   1.00
C94    C     0.24376   0.14148   0.68579   0.00000  Uiso   1.00
C95    C     0.30082   0.17122   0.67188   0.00000  Uiso   1.00
C96    C     0.31895   0.18345   0.57435   0.00000  Uiso   1.00
C97    C     0.36945   0.21369   0.43106   0.00000  Uiso   1.00
C98    C     0.15478   0.16401   0.78862   0.00000  Uiso   1.00
C99    C     0.13702   0.21268   0.86118   0.00000  Uiso   1.00
C100   C     0.08024   0.24387   0.85022   0.00000  Uiso   1.00
C101   C     0.99259   0.30905   0.86662   0.00000  Uiso   1.00
C102   C     0.19873   0.04421   0.78176   0.00000  Uiso   1.00
C103   C     0.21791   0.99214   0.84858   0.00000  Uiso   1.00
C104   C     0.19812   0.92246   0.83186   0.00000  Uiso   1.00
C105   C     0.17870   0.80163   0.83761   0.00000  Uiso   1.00
C106   C     0.14564   0.09252   0.63750   0.00000  Uiso   1.00
C107   C     0.20613   0.12456   0.60514   0.00000  Uiso   1.00
C108   C     0.22418   0.13674   0.50761   0.00000  Uiso   1.00
C109   C     0.28126   0.16649   0.49356   0.00000  Uiso   1.00
C110   C     0.11715   0.14709   0.70798   0.00000  Uiso   1.00
C111   C     0.06039   0.17820   0.69691   0.00000  Uiso   1.00
C112   C     0.04255   0.22691   0.76943   0.00000  Uiso   1.00
C113   C     0.16110   0.02728   0.70112   0.00000  Uiso   1.00
C114   C     0.14128   0.95767   0.68430   0.00000  Uiso   1.00
C115   C     0.16043   0.90551   0.75107   0.00000  Uiso   1.00
H116   H     0.24419   0.13686   0.84876   0.00000  Uiso   1.00
H117   H     0.32991   0.18431   0.73431   0.00000  Uiso   1.00
H118   H     0.16614   0.22576   0.92359   0.00000  Uiso   1.00
H119   H     0.24702   0.00526   0.91098   0.00000  Uiso   1.00
H120   H     0.40835   0.22948   0.57186   0.00000  Uiso   1.00
H121   H     0.06302   0.31686   0.97098   0.00000  Uiso   1.00
H122   H     0.23356   0.85189   0.94439   0.00000  Uiso   1.00
H123   H     0.11635   0.07934   0.57471   0.00000  Uiso   1.00
H124   H     0.19506   0.12364   0.44522   0.00000  Uiso   1.00
H125   H     0.03129   0.16509   0.63450   0.00000  Uiso   1.00
H126   H     0.11217   0.94459   0.62189   0.00000  Uiso   1.00
H127   H     0.29890   0.18024   0.33722   0.00000  Uiso   1.00
H128   H     0.95356   0.26762   0.73634   0.00000  Uiso   1.00
H129   H     0.12411   0.80265   0.70975   0.00000  Uiso   1.00
O130   O     0.40770   0.23506   0.37430   0.00000  Uiso   1.00
O131   O     0.95463   0.34969   0.89794   0.00000  Uiso   1.00
O132   O     0.17839   0.73966   0.86305   0.00000  Uiso   1.00
N133   N     0.37179   0.21180   0.53441   0.00000  Uiso   1.00
N134   N     0.04893   0.29351   0.90755   0.00000  Uiso   1.00
N135   N     0.20837   0.85880   0.88271   0.00000  Uiso   1.00
N136   N     0.31290   0.18530   0.40815   0.00000  Uiso   1.00
N137   N     0.99004   0.26701   0.78129   0.00000  Uiso   1.00
N138   N     0.14947   0.83230   0.75645   0.00000  Uiso   1.00
C139   C     0.71491   0.62368   0.78597   0.00000  Uiso   1.00
C140   C     0.74376   0.64148   0.68579   0.00000  Uiso   1.00
C141   C     0.80082   0.67122   0.67188   0.00000  Uiso   1.00
C142   C     0.81895   0.68345   0.57435   0.00000  Uiso   1.00
C143   C     0.86945   0.71369   0.43106   0.00000  Uiso   1.00
C144   C     0.65478   0.66401   0.78862   0.00000  Uiso   1.00
C145   C     0.63702   0.71268   0.86118   0.00000  Uiso   1.00
C146   C     0.58024   0.74387   0.85022   0.00000  Uiso   1.00
C147   C     0.49259   0.80905   0.86662   0.00000  Uiso   1.00
C148   C     0.69873   0.54421   0.78176   0.00000  Uiso   1.00
C149   C     0.71791   0.49214   0.84858   0.00000  Uiso   1.00
C150   C     0.69812   0.42246   0.83186   0.00000  Uiso   1.00
C151   C     0.67870   0.30163   0.83761   0.00000  Uiso   1.00
C152   C     0.64564   0.59252   0.63750   0.00000  Uiso   1.00
C153   C     0.70613   0.62456   0.60514   0.00000  Uiso   1.00
C154   C     0.72418   0.63674   0.50761   0.00000  Uiso   1.00
C155   C     0.78126   0.66649   0.49356   0.00000  Uiso   1.00
C156   C     0.61715   0.64709   0.70798   0.00000  Uiso   1.00
C157   C     0.56039   0.67820   0.69691   0.00000  Uiso   1.00
C158   C     0.54255   0.72691   0.76943   0.00000  Uiso   1.00
C159   C     0.66110   0.52728   0.70112   0.00000  Uiso   1.00
C160   C     0.64128   0.45767   0.68430   0.00000  Uiso   1.00
C161   C     0.66043   0.40551   0.75107   0.00000  Uiso   1.00
H162   H     0.74419   0.63686   0.84876   0.00000  Uiso   1.00
H163   H     0.82991   0.68431   0.73431   0.00000  Uiso   1.00
H164   H     0.66614   0.72576   0.92359   0.00000  Uiso   1.00
H165   H     0.74702   0.50526   0.91098   0.00000  Uiso   1.00
H166   H     0.90835   0.72948   0.57186   0.00000  Uiso   1.00
H167   H     0.56302   0.81686   0.97098   0.00000  Uiso   1.00
H168   H     0.73356   0.35189   0.94439   0.00000  Uiso   1.00
H169   H     0.61635   0.57934   0.57471   0.00000  Uiso   1.00
H170   H     0.69506   0.62364   0.44522   0.00000  Uiso   1.00
H171   H     0.53129   0.66509   0.63450   0.00000  Uiso   1.00
H172   H     0.61217   0.44459   0.62189   0.00000  Uiso   1.00
H173   H     0.79890   0.68024   0.33722   0.00000  Uiso   1.00
H174   H     0.45356   0.76762   0.73634   0.00000  Uiso   1.00
H175   H     0.62411   0.30265   0.70975   0.00000  Uiso   1.00
O176   O     0.90770   0.73506   0.37430   0.00000  Uiso   1.00
O177   O     0.45463   0.84969   0.89794   0.00000  Uiso   1.00
O178   O     0.67839   0.23966   0.86305   0.00000  Uiso   1.00
N179   N     0.87179   0.71180   0.53441   0.00000  Uiso   1.00
N180   N     0.54893   0.79351   0.90755   0.00000  Uiso   1.00
N181   N     0.70837   0.35880   0.88271   0.00000  Uiso   1.00
N182   N     0.81290   0.68530   0.40815   0.00000  Uiso   1.00
N183   N     0.49004   0.76701   0.78129   0.00000  Uiso   1.00
N184   N     0.64947   0.33230   0.75645   0.00000  Uiso   1.00
C185   C     0.21491   0.87632   0.21403   0.00000  Uiso   1.00
C186   C     0.24376   0.85852   0.31421   0.00000  Uiso   1.00
C187   C     0.30082   0.82878   0.32812   0.00000  Uiso   1.00
C188   C     0.31895   0.81655   0.42565   0.00000  Uiso   1.00
C189   C     0.36945   0.78631   0.56894   0.00000  Uiso   1.00
C190   C     0.15478   0.83599   0.21138   0.00000  Uiso   1.00
C191   C     0.13702   0.78732   0.13882   0.00000  Uiso   1.00
C192   C     0.08024   0.75613   0.14978   0.00000  Uiso   1.00
C193   C     0.99259   0.69095   0.13338   0.00000  Uiso   1.00
C194   C     0.19873   0.95579   0.21824   0.00000  Uiso   1.00
C195   C     0.21791   0.00786   0.15142   0.00000  Uiso   1.00
C196   C     0.19812   0.07754   0.16814   0.00000  Uiso   1.00
C197   C     0.17870   0.19837   0.16239   0.00000  Uiso   1.00
C198   C     0.14564   0.90748   0.36250   0.00000  Uiso   1.00
C199   C     0.20613   0.87544   0.39486   0.00000  Uiso   1.00
C200   C     0.22418   0.86326   0.49239   0.00000  Uiso   1.00
C201   C     0.28126   0.83351   0.50644   0.00000  Uiso   1.00
C202   C     0.11715   0.85291   0.29202   0.00000  Uiso   1.00
C203   C     0.06039   0.82180   0.30309   0.00000  Uiso   1.00
C204   C     0.04255   0.77309   0.23057   0.00000  Uiso   1.00
C205   C     0.16110   0.97272   0.29888   0.00000  Uiso   1.00
C206   C     0.14128   0.04233   0.31570   0.00000  Uiso   1.00
C207   C     0.16043   0.09449   0.24893   0.00000  Uiso   1.00
H208   H     0.24419   0.86314   0.15124   0.00000  Uiso   1.00
H209   H     0.32991   0.81569   0.26569   0.00000  Uiso   1.00
H210   H     0.16614   0.77424   0.07641   0.00000  Uiso   1.00
H211   H     0.24702   0.99474   0.08902   0.00000  Uiso   1.00
H212   H     0.40835   0.77052   0.42814   0.00000  Uiso   1.00
H213   H     0.06302   0.68314   0.02902   0.00000  Uiso   1.00
H214   H     0.23356   0.14811   0.05561   0.00000  Uiso   1.00
H215   H     0.11635   0.92066   0.42529   0.00000  Uiso   1.00
H216   H     0.19506   0.87636   0.55478   0.00000  Uiso   1.00
H217   H     0.03129   0.83491   0.36550   0.00000  Uiso   1.00
H218   H     0.11217   0.05541   0.37811   0.00000  Uiso   1.00
H219   H     0.29890   0.81976   0.66278   0.00000  Uiso   1.00
H220   H     0.95356   0.73238   0.26366   0.00000  Uiso   1.00
H221   H     0.12411   0.19735   0.29025   0.00000  Uiso   1.00
O222   O     0.40770   0.76494   0.62570   0.00000  Uiso   1.00
O223   O     0.95463   0.65031   0.10206   0.00000  Uiso   1.00
O224   O     0.17839   0.26034   0.13695   0.00000  Uiso   1.00
N225   N     0.37179   0.78820   0.46559   0.00000  Uiso   1.00
N226   N     0.04893   0.70649   0.09245   0.00000  Uiso   1.00
N227   N     0.20837   0.14120   0.11729   0.00000  Uiso   1.00
N228   N     0.31290   0.81470   0.59185   0.00000  Uiso   1.00
N229   N     0.99004   0.73299   0.21871   0.00000  Uiso   1.00
N230   N     0.14947   0.16770   0.24355   0.00000  Uiso   1.00
C231   C     0.71491   0.37632   0.21403   0.00000  Uiso   1.00
C232   C     0.74376   0.35852   0.31421   0.00000  Uiso   1.00
C233   C     0.80082   0.32878   0.32812   0.00000  Uiso   1.00
C234   C     0.81895   0.31655   0.42565   0.00000  Uiso   1.00
C235   C     0.86945   0.28631   0.56894   0.00000  Uiso   1.00
C236   C     0.65478   0.33599   0.21138   0.00000  Uiso   1.00
C237   C     0.63702   0.28732   0.13882   0.00000  Uiso   1.00
C238   C     0.58024   0.25613   0.14978   0.00000  Uiso   1.00
C239   C     0.49259   0.19095   0.13338   0.00000  Uiso   1.00
C240   C     0.69873   0.45579   0.21824   0.00000  Uiso   1.00
C241   C     0.71791   0.50786   0.15142   0.00000  Uiso   1.00
C242   C     0.69812   0.57754   0.16814   0.00000  Uiso   1.00
C243   C     0.67870   0.69837   0.16239   0.00000  Uiso   1.00
C244   C     0.64564   0.40748   0.36250   0.00000  Uiso   1.00
C245   C     0.70613   0.37544   0.39486   0.00000  Uiso   1.00
C246   C     0.72418   0.36326   0.49239   0.00000  Uiso   1.00
C247   C     0.78126   0.33351   0.50644   0.00000  Uiso   1.00
C248   C     0.61715   0.35291   0.29202   0.00000  Uiso   1.00
C249   C     0.56039   0.32180   0.30309   0.00000  Uiso   1.00
C250   C     0.54255   0.27309   0.23057   0.00000  Uiso   1.00
C251   C     0.66110   0.47272   0.29888   0.00000  Uiso   1.00
C252   C     0.64128   0.54233   0.31570   0.00000  Uiso   1.00
C253   C     0.66043   0.59449   0.24893   0.00000  Uiso   1.00
H254   H     0.74419   0.36314   0.15124   0.00000  Uiso   1.00
H255   H     0.82991   0.31569   0.26569   0.00000  Uiso   1.00
H256   H     0.66614   0.27424   0.07641   0.00000  Uiso   1.00
H257   H     0.74702   0.49474   0.08902   0.00000  Uiso   1.00
H258   H     0.90835   0.27052   0.42814   0.00000  Uiso   1.00
H259   H     0.56302   0.18314   0.02902   0.00000  Uiso   1.00
H260   H     0.73356   0.64811   0.05561   0.00000  Uiso   1.00
H261   H     0.61635   0.42066   0.42529   0.00000  Uiso   1.00
H262   H     0.69506   0.37636   0.55478   0.00000  Uiso   1.00
H263   H     0.53129   0.33491   0.36550   0.00000  Uiso   1.00
H264   H     0.61217   0.55541   0.37811   0.00000  Uiso   1.00
H265   H     0.79890   0.31976   0.66278   0.00000  Uiso   1.00
H266   H     0.45356   0.23238   0.26366   0.00000  Uiso   1.00
H267   H     0.62411   0.69735   0.29025   0.00000  Uiso   1.00
O268   O     0.90770   0.26494   0.62570   0.00000  Uiso   1.00
O269   O     0.45463   0.15031   0.10206   0.00000  Uiso   1.00
O270   O     0.67839   0.76034   0.13695   0.00000  Uiso   1.00
N271   N     0.87179   0.28820   0.46559   0.00000  Uiso   1.00
N272   N     0.54893   0.20649   0.09245   0.00000  Uiso   1.00
N273   N     0.70837   0.64120   0.11729   0.00000  Uiso   1.00
N274   N     0.81290   0.31470   0.59185   0.00000  Uiso   1.00
N275   N     0.49004   0.23299   0.21871   0.00000  Uiso   1.00
N276   N     0.64947   0.66770   0.24355   0.00000  Uiso   1.00
C277   C     0.78509   0.12368   0.21403   0.00000  Uiso   1.00
C278   C     0.75624   0.14148   0.31421   0.00000  Uiso   1.00
C279   C     0.69918   0.17122   0.32812   0.00000  Uiso   1.00
C280   C     0.68105   0.18345   0.42565   0.00000  Uiso   1.00
C281   C     0.63055   0.21369   0.56894   0.00000  Uiso   1.00
C282   C     0.84522   0.16401   0.21138   0.00000  Uiso   1.00
C283   C     0.86298   0.21268   0.13882   0.00000  Uiso   1.00
C284   C     0.91976   0.24387   0.14978   0.00000  Uiso   1.00
C285   C     0.00741   0.30905   0.13338   0.00000  Uiso   1.00
C286   C     0.80127   0.04421   0.21824   0.00000  Uiso   1.00
C287   C     0.78209   0.99214   0.15142   0.00000  Uiso   1.00
C288   C     0.80188   0.92246   0.16814   0.00000  Uiso   1.00
C289   C     0.82130   0.80163   0.16239   0.00000  Uiso   1.00
C290   C     0.85436   0.09252   0.36250   0.00000  Uiso   1.00
C291   C     0.79387   0.12456   0.39486   0.00000  Uiso   1.00
C292   C     0.77582   0.13674   0.49239   0.00000  Uiso   1.00
C293   C     0.71874   0.16649   0.50644   0.00000  Uiso   1.00
C294   C     0.88285   0.14709   0.29202   0.00000  Uiso   1.00
C295   C     0.93961   0.17820   0.30309   0.00000  Uiso   1.00
C296   C     0.95745   0.22691   0.23057   0.00000  Uiso   1.00
C297   C     0.83890   0.02728   0.29888   0.00000  Uiso   1.00
C298   C     0.85872   0.95767   0.31570   0.00000  Uiso   1.00
C299   C     0.83957   0.90551   0.24893   0.00000  Uiso   1.00
H300   H     0.75581   0.13686   0.15124   0.00000  Uiso   1.00
H301   H     0.67009   0.18431   0.26569   0.00000  Uiso   1.00
H302   H     0.83386   0.22576   0.07641   0.00000  Uiso   1.00
H303   H     0.75298   0.00526   0.08902   0.00000  Uiso   1.00
H304   H     0.59165   0.22948   0.42814   0.00000  Uiso   1.00
H305   H     0.93698   0.31686   0.02902   0.00000  Uiso   1.00
H306   H     0.76644   0.85189   0.05561   0.00000  Uiso   1.00
H307   H     0.88365   0.07934   0.42529   0.00000  Uiso   1.00
H308   H     0.80494   0.12364   0.55478   0.00000  Uiso   1.00
H309   H     0.96871   0.16509   0.36550   0.00000  Uiso   1.00
H310   H     0.88783   0.94459   0.37811   0.00000  Uiso   1.00
H311   H     0.70110   0.18024   0.66278   0.00000  Uiso   1.00
H312   H     0.04644   0.26762   0.26366   0.00000  Uiso   1.00
H313   H     0.87589   0.80265   0.29025   0.00000  Uiso   1.00
O314   O     0.59230   0.23506   0.62570   0.00000  Uiso   1.00
O315   O     0.04537   0.34969   0.10206   0.00000  Uiso   1.00
O316   O     0.82161   0.73966   0.13695   0.00000  Uiso   1.00
N317   N     0.62821   0.21180   0.46559   0.00000  Uiso   1.00
N318   N     0.95107   0.29351   0.09245   0.00000  Uiso   1.00
N319   N     0.79163   0.85880   0.11729   0.00000  Uiso   1.00
N320   N     0.68710   0.18530   0.59185   0.00000  Uiso   1.00
N321   N     0.00996   0.26701   0.21871   0.00000  Uiso   1.00
N322   N     0.85053   0.83230   0.24355   0.00000  Uiso   1.00
C323   C     0.28509   0.62368   0.21403   0.00000  Uiso   1.00
C324   C     0.25624   0.64148   0.31421   0.00000  Uiso   1.00
C325   C     0.19918   0.67122   0.32812   0.00000  Uiso   1.00
C326   C     0.18105   0.68345   0.42565   0.00000  Uiso   1.00
C327   C     0.13055   0.71369   0.56894   0.00000  Uiso   1.00
C328   C     0.34522   0.66401   0.21138   0.00000  Uiso   1.00
C329   C     0.36298   0.71268   0.13882   0.00000  Uiso   1.00
C330   C     0.41976   0.74387   0.14978   0.00000  Uiso   1.00
C331   C     0.50741   0.80905   0.13338   0.00000  Uiso   1.00
C332   C     0.30127   0.54421   0.21824   0.00000  Uiso   1.00
C333   C     0.28209   0.49214   0.15142   0.00000  Uiso   1.00
C334   C     0.30188   0.42246   0.16814   0.00000  Uiso   1.00
C335   C     0.32130   0.30163   0.16239   0.00000  Uiso   1.00
C336   C     0.35436   0.59252   0.36250   0.00000  Uiso   1.00
C337   C     0.29387   0.62456   0.39486   0.00000  Uiso   1.00
C338   C     0.27582   0.63674   0.49239   0.00000  Uiso   1.00
C339   C     0.21874   0.66649   0.50644   0.00000  Uiso   1.00
C340   C     0.38285   0.64709   0.29202   0.00000  Uiso   1.00
C341   C     0.43961   0.67820   0.30309   0.00000  Uiso   1.00
C342   C     0.45745   0.72691   0.23057   0.00000  Uiso   1.00
C343   C     0.33890   0.52728   0.29888   0.00000  Uiso   1.00
C344   C     0.35872   0.45767   0.31570   0.00000  Uiso   1.00
C345   C     0.33957   0.40551   0.24893   0.00000  Uiso   1.00
H346   H     0.25581   0.63686   0.15124   0.00000  Uiso   1.00
H347   H     0.17009   0.68431   0.26569   0.00000  Uiso   1.00
H348   H     0.33386   0.72576   0.07641   0.00000  Uiso   1.00
H349   H     0.25298   0.50526   0.08902   0.00000  Uiso   1.00
H350   H     0.09165   0.72948   0.42814   0.00000  Uiso   1.00
H351   H     0.43698   0.81686   0.02902   0.00000  Uiso   1.00
H352   H     0.26644   0.35189   0.05561   0.00000  Uiso   1.00
H353   H     0.38365   0.57934   0.42529   0.00000  Uiso   1.00
H354   H     0.30494   0.62364   0.55478   0.00000  Uiso   1.00
H355   H     0.46871   0.66509   0.36550   0.00000  Uiso   1.00
H356   H     0.38783   0.44459   0.37811   0.00000  Uiso   1.00
H357   H     0.20110   0.68024   0.66278   0.00000  Uiso   1.00
H358   H     0.54644   0.76762   0.26366   0.00000  Uiso   1.00
H359   H     0.37589   0.30265   0.29025   0.00000  Uiso   1.00
O360   O     0.09230   0.73506   0.62570   0.00000  Uiso   1.00
O361   O     0.54537   0.84969   0.10206   0.00000  Uiso   1.00
O362   O     0.32161   0.23966   0.13695   0.00000  Uiso   1.00
N363   N     0.12821   0.71180   0.46559   0.00000  Uiso   1.00
N364   N     0.45107   0.79351   0.09245   0.00000  Uiso   1.00
N365   N     0.29163   0.35880   0.11729   0.00000  Uiso   1.00
N366   N     0.18710   0.68530   0.59185   0.00000  Uiso   1.00
N367   N     0.50996   0.76701   0.21871   0.00000  Uiso   1.00
N368   N     0.35053   0.33230   0.24355   0.00000  Uiso   1.00
