data_job_05460
_audit_creation_date              2018-12-19
_audit_creation_method            'Materials Studio'
_symmetry_space_group_name_H-M    'P1'
_symmetry_Int_Tables_number       1
_symmetry_cell_setting            triclinic
loop_
_symmetry_equiv_pos_as_xyz
  x,y,z
_cell_length_a                    14.0621
_cell_length_b                    44.0348
_cell_length_c                    9.9518
_cell_angle_alpha                 89.9952
_cell_angle_beta                  89.9826
_cell_angle_gamma                 90.0073
loop_
_atom_site_label
_atom_site_type_symbol
_atom_site_fract_x
_atom_site_fract_y
_atom_site_fract_z
_atom_site_U_iso_or_equiv
_atom_site_adp_type
_atom_site_occupancy
C1     C     0.67995   0.10957   0.72117   0.00000  Uiso   1.00
C2     C     0.71368   0.08150   0.64510   0.00000  Uiso   1.00
C3     C     0.80065   0.06711   0.66198   0.00000  Uiso   1.00
C4     C     0.81806   0.04176   0.58276   0.00000  Uiso   1.00
C5     C     0.88067   0.99980   0.47870   0.00000  Uiso   1.00
C6     C     0.65539   0.13314   0.61441   0.00000  Uiso   1.00
C7     C     0.69335   0.16216   0.60551   0.00000  Uiso   1.00
C8     C     0.66168   0.18028   0.50047   0.00000  Uiso   1.00
C9     C     0.63374   0.21849   0.34882   0.00000  Uiso   1.00
C10    C     0.58599   0.10075   0.78701   0.00000  Uiso   1.00
C11    C     0.56559   0.10255   0.92323   0.00000  Uiso   1.00
C12    C     0.47548   0.09340   0.96350   0.00000  Uiso   1.00
C13    C     0.33980   0.08132   0.07984   0.00000  Uiso   1.00
C14    C     0.55621   0.09014   0.55047   0.00000  Uiso   1.00
C15    C     0.64646   0.07095   0.55238   0.00000  Uiso   1.00
C16    C     0.66374   0.04561   0.47312   0.00000  Uiso   1.00
C17    C     0.75073   0.03119   0.48988   0.00000  Uiso   1.00
C18    C     0.58818   0.12258   0.52170   0.00000  Uiso   1.00
C19    C     0.55644   0.14066   0.41665   0.00000  Uiso   1.00
C20    C     0.59434   0.16971   0.40758   0.00000  Uiso   1.00
C21    C     0.51878   0.09019   0.69430   0.00000  Uiso   1.00
C22    C     0.42868   0.08105   0.73437   0.00000  Uiso   1.00
C23    C     0.40815   0.08283   0.87062   0.00000  Uiso   1.00
H24    H     0.73228   0.11779   0.79335   0.00000  Uiso   1.00
H25    H     0.85265   0.07529   0.73373   0.00000  Uiso   1.00
H26    H     0.74535   0.17032   0.67728   0.00000  Uiso   1.00
H27    H     0.61762   0.11072   0.99495   0.00000  Uiso   1.00
H28    H     0.95648   0.02353   0.62671   0.00000  Uiso   1.00
H29    H     0.73021   0.22392   0.50771   0.00000  Uiso   1.00
H30    H     0.46085   0.09822   0.17757   0.00000  Uiso   1.00
H31    H     0.50388   0.08192   0.47828   0.00000  Uiso   1.00
H32    H     0.61172   0.03745   0.40138   0.00000  Uiso   1.00
H33    H     0.50442   0.13249   0.34492   0.00000  Uiso   1.00
H34    H     0.37669   0.07288   0.66259   0.00000  Uiso   1.00
H35    H     0.76093   0.99282   0.35696   0.00000  Uiso   1.00
H36    H     0.53466   0.19321   0.23795   0.00000  Uiso   1.00
H37    H     0.26531   0.06751   0.90782   0.00000  Uiso   1.00
O38    O     0.93378   0.97957   0.44690   0.00000  Uiso   1.00
O39    O     0.63691   0.24248   0.29078   0.00000  Uiso   1.00
O40    O     0.28353   0.07757   0.16963   0.00000  Uiso   1.00
N41    N     0.89565   0.02240   0.57380   0.00000  Uiso   1.00
N42    N     0.68412   0.20975   0.46252   0.00000  Uiso   1.00
N43    N     0.43228   0.09224   0.08879   0.00000  Uiso   1.00
N44    N     0.79043   0.00587   0.42865   0.00000  Uiso   1.00
N45    N     0.57889   0.19322   0.31737   0.00000  Uiso   1.00
N46    N     0.32706   0.07572   0.94363   0.00000  Uiso   1.00
C47    C     0.18398   0.89016   0.93163   0.00000  Uiso   1.00
C48    C     0.21502   0.91868   0.00662   0.00000  Uiso   1.00
C49    C     0.30133   0.93355   0.99097   0.00000  Uiso   1.00
C50    C     0.31618   0.95927   0.06888   0.00000  Uiso   1.00
C51    C     0.37489   0.00196   0.17164   0.00000  Uiso   1.00
C52    C     0.15940   0.86680   0.03934   0.00000  Uiso   1.00
C53    C     0.19895   0.83805   0.05118   0.00000  Uiso   1.00
C54    C     0.16697   0.82010   0.15662   0.00000  Uiso   1.00
C55    C     0.13929   0.78225   0.31012   0.00000  Uiso   1.00
C56    C     0.09041   0.89817   0.86282   0.00000  Uiso   1.00
C57    C     0.07194   0.89578   0.72625   0.00000  Uiso   1.00
C58    C     0.98186   0.90422   0.68308   0.00000  Uiso   1.00
C59    C     0.84706   0.91506   0.56251   0.00000  Uiso   1.00
C60    C     0.05686   0.90939   0.09782   0.00000  Uiso   1.00
C61    C     0.14597   0.92913   0.09689   0.00000  Uiso   1.00
C62    C     0.16068   0.95483   0.17484   0.00000  Uiso   1.00
C63    C     0.24701   0.96974   0.15930   0.00000  Uiso   1.00
C64    C     0.09036   0.87725   0.12961   0.00000  Uiso   1.00
C65    C     0.05830   0.85934   0.23505   0.00000  Uiso   1.00
C66    C     0.09779   0.83057   0.24706   0.00000  Uiso   1.00
C67    C     0.02136   0.90862   0.95309   0.00000  Uiso   1.00
C68    C     0.93129   0.91706   0.91013   0.00000  Uiso   1.00
C69    C     0.91268   0.91469   0.77352   0.00000  Uiso   1.00
H70    H     0.23774   0.88202   0.86136   0.00000  Uiso   1.00
H71    H     0.35476   0.92546   0.92111   0.00000  Uiso   1.00
H72    H     0.25238   0.82997   0.98130   0.00000  Uiso   1.00
H73    H     0.12539   0.88769   0.65643   0.00000  Uiso   1.00
H74    H     0.45405   0.97821   0.02720   0.00000  Uiso   1.00
H75    H     0.23816   0.77688   0.15410   0.00000  Uiso   1.00
H76    H     0.97037   0.89858   0.46903   0.00000  Uiso   1.00
H77    H     0.00309   0.91753   0.16810   0.00000  Uiso   1.00
H78    H     0.10724   0.96292   0.24469   0.00000  Uiso   1.00
H79    H     0.00486   0.86743   0.30488   0.00000  Uiso   1.00
H80    H     0.87787   0.92515   0.98001   0.00000  Uiso   1.00
H81    H     0.25316   0.00862   0.28984   0.00000  Uiso   1.00
H82    H     0.03727   0.80728   0.41673   0.00000  Uiso   1.00
H83    H     0.76948   0.92899   0.73166   0.00000  Uiso   1.00
O84    O     0.42636   0.02262   0.20340   0.00000  Uiso   1.00
O85    O     0.14311   0.75848   0.36986   0.00000  Uiso   1.00
O86    O     0.79178   0.91815   0.47107   0.00000  Uiso   1.00
N87    N     0.39247   0.97914   0.07848   0.00000  Uiso   1.00
N88    N     0.19064   0.79091   0.19714   0.00000  Uiso   1.00
N89    N     0.94027   0.90469   0.55666   0.00000  Uiso   1.00
N90    N     0.28437   0.99550   0.21980   0.00000  Uiso   1.00
N91    N     0.08254   0.80727   0.33845   0.00000  Uiso   1.00
N92    N     0.83217   0.92105   0.69798   0.00000  Uiso   1.00
C93    C     0.29265   0.60957   0.76775   0.00000  Uiso   1.00
C94    C     0.25892   0.58151   0.84385   0.00000  Uiso   1.00
C95    C     0.17195   0.56711   0.82699   0.00000  Uiso   1.00
C96    C     0.15453   0.54176   0.90623   0.00000  Uiso   1.00
C97    C     0.09191   0.49980   0.01034   0.00000  Uiso   1.00
C98    C     0.31721   0.63315   0.87449   0.00000  Uiso   1.00
C99    C     0.27925   0.66217   0.88336   0.00000  Uiso   1.00
C100   C     0.31092   0.68029   0.98838   0.00000  Uiso   1.00
C101   C     0.33886   0.71851   0.13999   0.00000  Uiso   1.00
C102   C     0.38661   0.60076   0.70192   0.00000  Uiso   1.00
C103   C     0.40702   0.60256   0.56571   0.00000  Uiso   1.00
C104   C     0.49712   0.59342   0.52544   0.00000  Uiso   1.00
C105   C     0.63280   0.58135   0.40912   0.00000  Uiso   1.00
C106   C     0.41639   0.59016   0.93848   0.00000  Uiso   1.00
C107   C     0.32613   0.57096   0.93659   0.00000  Uiso   1.00
C108   C     0.30885   0.54563   0.01587   0.00000  Uiso   1.00
C109   C     0.22186   0.53119   0.99913   0.00000  Uiso   1.00
C110   C     0.38442   0.62260   0.96722   0.00000  Uiso   1.00
C111   C     0.41616   0.64068   0.07224   0.00000  Uiso   1.00
C112   C     0.37826   0.66973   0.08128   0.00000  Uiso   1.00
C113   C     0.45382   0.59021   0.79465   0.00000  Uiso   1.00
C114   C     0.54392   0.58107   0.75459   0.00000  Uiso   1.00
C115   C     0.56445   0.58285   0.61834   0.00000  Uiso   1.00
H116   H     0.24032   0.61779   0.69556   0.00000  Uiso   1.00
H117   H     0.11995   0.57528   0.75522   0.00000  Uiso   1.00
H118   H     0.22725   0.67033   0.81158   0.00000  Uiso   1.00
H119   H     0.35499   0.61072   0.49398   0.00000  Uiso   1.00
H120   H     0.01611   0.52351   0.86230   0.00000  Uiso   1.00
H121   H     0.24239   0.72392   0.98109   0.00000  Uiso   1.00
H122   H     0.51175   0.59824   0.31137   0.00000  Uiso   1.00
H123   H     0.46872   0.58194   0.01068   0.00000  Uiso   1.00
H124   H     0.36087   0.53747   0.08763   0.00000  Uiso   1.00
H125   H     0.46817   0.63251   0.14398   0.00000  Uiso   1.00
H126   H     0.59591   0.57291   0.82638   0.00000  Uiso   1.00
H127   H     0.21165   0.49282   0.13209   0.00000  Uiso   1.00
H128   H     0.43794   0.69323   0.25089   0.00000  Uiso   1.00
H129   H     0.70729   0.56755   0.58116   0.00000  Uiso   1.00
O130   O     0.03881   0.47957   0.04216   0.00000  Uiso   1.00
O131   O     0.33569   0.74250   0.19800   0.00000  Uiso   1.00
O132   O     0.68907   0.57760   0.31934   0.00000  Uiso   1.00
N133   N     0.07694   0.52239   0.91521   0.00000  Uiso   1.00
N134   N     0.28849   0.70976   0.02629   0.00000  Uiso   1.00
N135   N     0.54032   0.59226   0.40016   0.00000  Uiso   1.00
N136   N     0.18216   0.50588   0.06039   0.00000  Uiso   1.00
N137   N     0.39371   0.69325   0.17147   0.00000  Uiso   1.00
N138   N     0.64554   0.57575   0.54533   0.00000  Uiso   1.00
C139   C     0.78874   0.39017   0.55727   0.00000  Uiso   1.00
C140   C     0.75771   0.41870   0.48227   0.00000  Uiso   1.00
C141   C     0.67140   0.43356   0.49793   0.00000  Uiso   1.00
C142   C     0.65655   0.45928   0.42001   0.00000  Uiso   1.00
C143   C     0.59785   0.50197   0.31723   0.00000  Uiso   1.00
C144   C     0.81330   0.36682   0.44957   0.00000  Uiso   1.00
C145   C     0.77375   0.33807   0.43774   0.00000  Uiso   1.00
C146   C     0.80572   0.32012   0.33230   0.00000  Uiso   1.00
C147   C     0.83338   0.28227   0.17882   0.00000  Uiso   1.00
C148   C     0.88232   0.39818   0.62606   0.00000  Uiso   1.00
C149   C     0.90080   0.39579   0.76263   0.00000  Uiso   1.00
C150   C     0.99088   0.40424   0.80579   0.00000  Uiso   1.00
C151   C     0.12570   0.41509   0.92634   0.00000  Uiso   1.00
C152   C     0.91586   0.40942   0.39106   0.00000  Uiso   1.00
C153   C     0.82676   0.42915   0.39199   0.00000  Uiso   1.00
C154   C     0.81204   0.45486   0.31403   0.00000  Uiso   1.00
C155   C     0.72573   0.46976   0.32957   0.00000  Uiso   1.00
C156   C     0.88235   0.37728   0.35929   0.00000  Uiso   1.00
C157   C     0.91439   0.35937   0.25385   0.00000  Uiso   1.00
C158   C     0.87489   0.33060   0.24186   0.00000  Uiso   1.00
C159   C     0.95137   0.40864   0.53578   0.00000  Uiso   1.00
C160   C     0.04144   0.41709   0.57873   0.00000  Uiso   1.00
C161   C     0.06006   0.41472   0.71534   0.00000  Uiso   1.00
H162   H     0.73498   0.38203   0.62755   0.00000  Uiso   1.00
H163   H     0.61798   0.42546   0.56779   0.00000  Uiso   1.00
H164   H     0.72032   0.32999   0.50763   0.00000  Uiso   1.00
H165   H     0.84735   0.38770   0.83246   0.00000  Uiso   1.00
H166   H     0.51869   0.47822   0.46169   0.00000  Uiso   1.00
H167   H     0.73451   0.27690   0.33485   0.00000  Uiso   1.00
H168   H     0.00238   0.39860   0.01984   0.00000  Uiso   1.00
H169   H     0.96962   0.41756   0.32077   0.00000  Uiso   1.00
H170   H     0.86549   0.46294   0.24417   0.00000  Uiso   1.00
H171   H     0.96783   0.36746   0.18401   0.00000  Uiso   1.00
H172   H     0.09486   0.42518   0.50884   0.00000  Uiso   1.00
H173   H     0.71958   0.50863   0.19902   0.00000  Uiso   1.00
H174   H     0.93540   0.30731   0.07219   0.00000  Uiso   1.00
H175   H     0.20327   0.42902   0.75717   0.00000  Uiso   1.00
O176   O     0.54639   0.52263   0.28547   0.00000  Uiso   1.00
O177   O     0.82955   0.25851   0.11909   0.00000  Uiso   1.00
O178   O     0.18098   0.41818   0.01777   0.00000  Uiso   1.00
N179   N     0.58027   0.47915   0.41040   0.00000  Uiso   1.00
N180   N     0.78203   0.29093   0.29181   0.00000  Uiso   1.00
N181   N     0.03248   0.40471   0.93220   0.00000  Uiso   1.00
N182   N     0.68837   0.49552   0.26906   0.00000  Uiso   1.00
N183   N     0.89013   0.30730   0.15047   0.00000  Uiso   1.00
N184   N     0.14057   0.42107   0.79087   0.00000  Uiso   1.00
C185   C     0.30397   0.89050   0.43062   0.00000  Uiso   1.00
C186   C     0.27299   0.91895   0.50618   0.00000  Uiso   1.00
C187   C     0.18717   0.93406   0.48974   0.00000  Uiso   1.00
C188   C     0.17229   0.95966   0.56836   0.00000  Uiso   1.00
C189   C     0.11375   0.00230   0.67177   0.00000  Uiso   1.00
C190   C     0.32710   0.86689   0.53785   0.00000  Uiso   1.00
C191   C     0.28677   0.83821   0.54801   0.00000  Uiso   1.00
C192   C     0.31745   0.81999   0.65327   0.00000  Uiso   1.00
C193   C     0.34296   0.78178   0.80579   0.00000  Uiso   1.00
C194   C     0.39829   0.89841   0.36358   0.00000  Uiso   1.00
C195   C     0.41784   0.89623   0.22722   0.00000  Uiso   1.00
C196   C     0.50847   0.90455   0.18577   0.00000  Uiso   1.00
C197   C     0.64451   0.91529   0.06772   0.00000  Uiso   1.00
C198   C     0.43017   0.90912   0.59949   0.00000  Uiso   1.00
C199   C     0.34154   0.92907   0.59791   0.00000  Uiso   1.00
C200   C     0.32679   0.95466   0.67657   0.00000  Uiso   1.00
C201   C     0.24096   0.96980   0.66024   0.00000  Uiso   1.00
C202   C     0.39564   0.87700   0.62957   0.00000  Uiso   1.00
C203   C     0.42639   0.85882   0.73484   0.00000  Uiso   1.00
C204   C     0.38612   0.83012   0.74516   0.00000  Uiso   1.00
C205   C     0.46684   0.90853   0.45530   0.00000  Uiso   1.00
C206   C     0.55746   0.91684   0.41406   0.00000  Uiso   1.00
C207   C     0.57714   0.91468   0.27766   0.00000  Uiso   1.00
H208   H     0.25060   0.88262   0.35922   0.00000  Uiso   1.00
H209   H     0.13414   0.92622   0.41875   0.00000  Uiso   1.00
H210   H     0.23373   0.83039   0.47700   0.00000  Uiso   1.00
H211   H     0.36478   0.88841   0.15627   0.00000  Uiso   1.00
H212   H     0.03523   0.97901   0.52524   0.00000  Uiso   1.00
H213   H     0.24526   0.77694   0.64804   0.00000  Uiso   1.00
H214   H     0.52159   0.89928   0.97171   0.00000  Uiso   1.00
H215   H     0.48354   0.91700   0.67090   0.00000  Uiso   1.00
H216   H     0.37985   0.96248   0.74754   0.00000  Uiso   1.00
H217   H     0.47944   0.86665   0.80579   0.00000  Uiso   1.00
H218   H     0.61049   0.92467   0.48506   0.00000  Uiso   1.00
H219   H     0.23465   0.00844   0.79210   0.00000  Uiso   1.00
H220   H     0.44468   0.80637   0.91490   0.00000  Uiso   1.00
H221   H     0.72101   0.92871   0.23857   0.00000  Uiso   1.00
O222   O     0.06252   0.02302   0.70349   0.00000  Uiso   1.00
O223   O     0.33808   0.75791   0.86458   0.00000  Uiso   1.00
O224   O     0.70061   0.91842   0.97726   0.00000  Uiso   1.00
N225   N     0.09640   0.97970   0.57751   0.00000  Uiso   1.00
N226   N     0.29275   0.79078   0.69233   0.00000  Uiso   1.00
N227   N     0.55110   0.90515   0.06003   0.00000  Uiso   1.00
N228   N     0.20371   0.99554   0.72110   0.00000  Uiso   1.00
N229   N     0.40006   0.80662   0.83593   0.00000  Uiso   1.00
N230   N     0.65842   0.92098   0.20362   0.00000  Uiso   1.00
C231   C     0.80648   0.10937   0.21853   0.00000  Uiso   1.00
C232   C     0.77316   0.08116   0.14319   0.00000  Uiso   1.00
C233   C     0.68657   0.06657   0.16093   0.00000  Uiso   1.00
C234   C     0.66949   0.04111   0.08228   0.00000  Uiso   1.00
C235   C     0.60752   0.99891   0.97939   0.00000  Uiso   1.00
C236   C     0.83018   0.13290   0.11119   0.00000  Uiso   1.00
C237   C     0.79154   0.16183   0.10205   0.00000  Uiso   1.00
C238   C     0.82247   0.17992   0.99647   0.00000  Uiso   1.00
C239   C     0.84907   0.21806   0.84396   0.00000  Uiso   1.00
C240   C     0.90084   0.10083   0.28386   0.00000  Uiso   1.00
C241   C     0.92163   0.10280   0.41990   0.00000  Uiso   1.00
C242   C     0.01206   0.09391   0.45970   0.00000  Uiso   1.00
C243   C     0.14837   0.08226   0.57529   0.00000  Uiso   1.00
C244   C     0.93014   0.09008   0.04730   0.00000  Uiso   1.00
C245   C     0.84033   0.07068   0.05018   0.00000  Uiso   1.00
C246   C     0.82338   0.04523   0.97149   0.00000  Uiso   1.00
C247   C     0.73678   0.03061   0.98911   0.00000  Uiso   1.00
C248   C     0.89734   0.12242   0.01819   0.00000  Uiso   1.00
C249   C     0.92835   0.14048   0.91260   0.00000  Uiso   1.00
C250   C     0.88976   0.16943   0.90330   0.00000  Uiso   1.00
C251   C     0.96801   0.09036   0.19086   0.00000  Uiso   1.00
C252   C     0.05843   0.08146   0.23045   0.00000  Uiso   1.00
C253   C     0.07935   0.08342   0.36653   0.00000  Uiso   1.00
H254   H     0.75420   0.11753   0.29093   0.00000  Uiso   1.00
H255   H     0.63461   0.07469   0.23291   0.00000  Uiso   1.00
H256   H     0.73957   0.16993   0.17404   0.00000  Uiso   1.00
H257   H     0.86963   0.11091   0.49184   0.00000  Uiso   1.00
H258   H     0.53163   0.02258   0.12752   0.00000  Uiso   1.00
H259   H     0.75297   0.22340   0.00343   0.00000  Uiso   1.00
H260   H     0.02723   0.09896   0.67358   0.00000  Uiso   1.00
H261   H     0.98243   0.08192   0.97489   0.00000  Uiso   1.00
H262   H     0.87537   0.03713   0.89952   0.00000  Uiso   1.00
H263   H     0.98033   0.13237   0.84066   0.00000  Uiso   1.00
H264   H     0.11039   0.07335   0.15846   0.00000  Uiso   1.00
H265   H     0.72704   0.99210   0.85693   0.00000  Uiso   1.00
H266   H     0.94838   0.19292   0.73284   0.00000  Uiso   1.00
H267   H     0.22264   0.06847   0.40299   0.00000  Uiso   1.00
O268   O     0.55477   0.97852   0.94832   0.00000  Uiso   1.00
O269   O     0.84517   0.24199   0.78553   0.00000  Uiso   1.00
O270   O     0.20500   0.07872   0.66475   0.00000  Uiso   1.00
N271   N     0.59232   0.02155   0.07420   0.00000  Uiso   1.00
N272   N     0.79925   0.20930   0.95817   0.00000  Uiso   1.00
N273   N     0.05567   0.09297   0.58470   0.00000  Uiso   1.00
N274   N     0.69747   0.00515   0.92860   0.00000  Uiso   1.00
N275   N     0.90439   0.19290   0.81257   0.00000  Uiso   1.00
N276   N     0.16082   0.07656   0.43910   0.00000  Uiso   1.00
C277   C     0.66869   0.39052   0.05828   0.00000  Uiso   1.00
C278   C     0.69969   0.41898   0.98273   0.00000  Uiso   1.00
C279   C     0.78552   0.43408   0.99919   0.00000  Uiso   1.00
C280   C     0.80043   0.45969   0.92057   0.00000  Uiso   1.00
C281   C     0.85901   0.50233   0.81717   0.00000  Uiso   1.00
C282   C     0.64555   0.36691   0.95105   0.00000  Uiso   1.00
C283   C     0.68585   0.33824   0.94090   0.00000  Uiso   1.00
C284   C     0.65516   0.32002   0.83562   0.00000  Uiso   1.00
C285   C     0.62964   0.28182   0.68310   0.00000  Uiso   1.00
C286   C     0.57437   0.39843   0.12531   0.00000  Uiso   1.00
C287   C     0.55481   0.39625   0.26167   0.00000  Uiso   1.00
C288   C     0.46418   0.40456   0.30310   0.00000  Uiso   1.00
C289   C     0.32814   0.41529   0.42114   0.00000  Uiso   1.00
C290   C     0.54251   0.40915   0.88940   0.00000  Uiso   1.00
C291   C     0.63116   0.42910   0.89100   0.00000  Uiso   1.00
C292   C     0.64593   0.45469   0.81234   0.00000  Uiso   1.00
C293   C     0.73177   0.46983   0.82868   0.00000  Uiso   1.00
C294   C     0.57702   0.37703   0.85933   0.00000  Uiso   1.00
C295   C     0.54626   0.35885   0.75405   0.00000  Uiso   1.00
C296   C     0.58651   0.33015   0.74373   0.00000  Uiso   1.00
C297   C     0.50583   0.40855   0.03358   0.00000  Uiso   1.00
C298   C     0.41522   0.41686   0.07482   0.00000  Uiso   1.00
C299   C     0.39553   0.41469   0.21121   0.00000  Uiso   1.00
H300   H     0.72204   0.38264   0.12969   0.00000  Uiso   1.00
H301   H     0.83855   0.42624   0.07018   0.00000  Uiso   1.00
H302   H     0.73887   0.33041   0.01191   0.00000  Uiso   1.00
H303   H     0.60786   0.38842   0.33262   0.00000  Uiso   1.00
H304   H     0.93751   0.47904   0.96371   0.00000  Uiso   1.00
H305   H     0.72732   0.27697   0.84087   0.00000  Uiso   1.00
H306   H     0.45104   0.39928   0.51716   0.00000  Uiso   1.00
H307   H     0.48916   0.41703   0.81798   0.00000  Uiso   1.00
H308   H     0.59288   0.46252   0.74136   0.00000  Uiso   1.00
H309   H     0.49322   0.36669   0.68309   0.00000  Uiso   1.00
H310   H     0.36220   0.42469   0.00380   0.00000  Uiso   1.00
H311   H     0.73812   0.50848   0.69682   0.00000  Uiso   1.00
H312   H     0.52794   0.30641   0.57398   0.00000  Uiso   1.00
H313   H     0.25166   0.42873   0.25028   0.00000  Uiso   1.00
O314   O     0.91026   0.52306   0.78546   0.00000  Uiso   1.00
O315   O     0.63450   0.25795   0.62431   0.00000  Uiso   1.00
O316   O     0.27203   0.41843   0.51159   0.00000  Uiso   1.00
N317   N     0.87634   0.47973   0.91143   0.00000  Uiso   1.00
N318   N     0.67984   0.29081   0.79657   0.00000  Uiso   1.00
N319   N     0.42154   0.40515   0.42884   0.00000  Uiso   1.00
N320   N     0.76905   0.49557   0.76782   0.00000  Uiso   1.00
N321   N     0.57255   0.30665   0.65296   0.00000  Uiso   1.00
N322   N     0.31425   0.42100   0.28524   0.00000  Uiso   1.00
C323   C     0.16616   0.60938   0.27042   0.00000  Uiso   1.00
C324   C     0.19944   0.58117   0.34581   0.00000  Uiso   1.00
C325   C     0.28602   0.56659   0.32810   0.00000  Uiso   1.00
C326   C     0.30306   0.54113   0.40678   0.00000  Uiso   1.00
C327   C     0.36499   0.49892   0.50974   0.00000  Uiso   1.00
C328   C     0.14247   0.63292   0.37773   0.00000  Uiso   1.00
C329   C     0.18114   0.66184   0.38685   0.00000  Uiso   1.00
C330   C     0.15022   0.67994   0.49240   0.00000  Uiso   1.00
C331   C     0.12364   0.71808   0.64485   0.00000  Uiso   1.00
C332   C     0.07180   0.60085   0.20508   0.00000  Uiso   1.00
C333   C     0.05103   0.60282   0.06903   0.00000  Uiso   1.00
C334   C     0.96059   0.59392   0.02923   0.00000  Uiso   1.00
C335   C     0.82428   0.58227   0.91362   0.00000  Uiso   1.00
C336   C     0.04246   0.59010   0.44165   0.00000  Uiso   1.00
C337   C     0.13225   0.57070   0.43881   0.00000  Uiso   1.00
C338   C     0.14917   0.54525   0.51754   0.00000  Uiso   1.00
C339   C     0.23576   0.53063   0.49995   0.00000  Uiso   1.00
C340   C     0.07529   0.62244   0.47073   0.00000  Uiso   1.00
C341   C     0.04429   0.64051   0.57629   0.00000  Uiso   1.00
C342   C     0.08291   0.66945   0.58557   0.00000  Uiso   1.00
C343   C     0.00461   0.59037   0.29808   0.00000  Uiso   1.00
C344   C     0.91418   0.58148   0.25848   0.00000  Uiso   1.00
C345   C     0.89328   0.58343   0.12240   0.00000  Uiso   1.00
H346   H     0.21846   0.61754   0.19802   0.00000  Uiso   1.00
H347   H     0.33800   0.57470   0.25612   0.00000  Uiso   1.00
H348   H     0.23313   0.66994   0.31485   0.00000  Uiso   1.00
H349   H     0.10304   0.61092   0.99709   0.00000  Uiso   1.00
H350   H     0.44091   0.52259   0.36159   0.00000  Uiso   1.00
H351   H     0.21976   0.72342   0.48540   0.00000  Uiso   1.00
H352   H     0.94544   0.59897   0.81534   0.00000  Uiso   1.00
H353   H     0.99015   0.58195   0.51406   0.00000  Uiso   1.00
H354   H     0.09716   0.53715   0.58950   0.00000  Uiso   1.00
H355   H     0.99230   0.63240   0.64823   0.00000  Uiso   1.00
H356   H     0.86221   0.57338   0.33048   0.00000  Uiso   1.00
H357   H     0.24545   0.49212   0.63218   0.00000  Uiso   1.00
H358   H     0.02429   0.69295   0.75598   0.00000  Uiso   1.00
H359   H     0.74998   0.56849   0.08593   0.00000  Uiso   1.00
O360   O     0.41771   0.47854   0.54085   0.00000  Uiso   1.00
O361   O     0.12755   0.74202   0.70326   0.00000  Uiso   1.00
O362   O     0.76766   0.57874   0.82416   0.00000  Uiso   1.00
N363   N     0.38022   0.52156   0.41490   0.00000  Uiso   1.00
N364   N     0.17347   0.70932   0.53067   0.00000  Uiso   1.00
N365   N     0.91699   0.59298   0.90422   0.00000  Uiso   1.00
N366   N     0.27504   0.50517   0.56050   0.00000  Uiso   1.00
N367   N     0.06829   0.69293   0.67627   0.00000  Uiso   1.00
N368   N     0.81181   0.57658   0.04982   0.00000  Uiso   1.00
