data_job_06015
_audit_creation_date              2018-12-19
_audit_creation_method            'Materials Studio'
_symmetry_space_group_name_H-M    'P1'
_symmetry_Int_Tables_number       1
_symmetry_cell_setting            triclinic
loop_
_symmetry_equiv_pos_as_xyz
  x,y,z
_cell_length_a                    7.6172
_cell_length_b                    23.3997
_cell_length_c                    24.1411
_cell_angle_alpha                 117.9760
_cell_angle_beta                  83.5441
_cell_angle_gamma                 89.5506
loop_
_atom_site_label
_atom_site_type_symbol
_atom_site_fract_x
_atom_site_fract_y
_atom_site_fract_z
_atom_site_U_iso_or_equiv
_atom_site_adp_type
_atom_site_occupancy
C1     C     0.05453   0.95155   0.66662   0.00000  Uiso   1.00
C2     C     0.00550   0.88203   0.62750   0.00000  Uiso   1.00
C3     C     0.12333   0.82754   0.59692   0.00000  Uiso   1.00
C4     C     0.05224   0.76827   0.56355   0.00000  Uiso   1.00
C5     C     0.00387   0.66101   0.50319   0.00000  Uiso   1.00
C6     C     0.98093   0.99032   0.63723   0.00000  Uiso   1.00
C7     C     0.07810   0.02689   0.61485   0.00000  Uiso   1.00
C8     C     0.98631   0.05878   0.58967   0.00000  Uiso   1.00
C9     C     0.89977   0.11969   0.54447   0.00000  Uiso   1.00
C10    C     0.94706   0.97657   0.73176   0.00000  Uiso   1.00
C11    C     0.01573   0.00160   0.78886   0.00000  Uiso   1.00
C12    C     0.89542   0.02193   0.84327   0.00000  Uiso   1.00
C13    C     0.75629   0.06149   0.94483   0.00000  Uiso   1.00
C14    C     0.71876   0.94317   0.66173   0.00000  Uiso   1.00
C15    C     0.82312   0.87748   0.62484   0.00000  Uiso   1.00
C16    C     0.75184   0.81827   0.59151   0.00000  Uiso   1.00
C17    C     0.86954   0.76370   0.56089   0.00000  Uiso   1.00
C18    C     0.79856   0.98577   0.63458   0.00000  Uiso   1.00
C19    C     0.70661   0.01762   0.60944   0.00000  Uiso   1.00
C20    C     0.80361   0.05422   0.58701   0.00000  Uiso   1.00
C21    C     0.76468   0.97202   0.72910   0.00000  Uiso   1.00
C22    C     0.64424   0.99232   0.78344   0.00000  Uiso   1.00
C23    C     0.71272   0.01737   0.84061   0.00000  Uiso   1.00
H24    H     0.19652   0.95510   0.66868   0.00000  Uiso   1.00
H25    H     0.26446   0.83109   0.59898   0.00000  Uiso   1.00
H26    H     0.21923   0.03041   0.61691   0.00000  Uiso   1.00
H27    H     0.15687   0.00512   0.79089   0.00000  Uiso   1.00
H28    H     0.25937   0.69159   0.52052   0.00000  Uiso   1.00
H29    H     0.16398   0.11189   0.55834   0.00000  Uiso   1.00
H30    H     0.03250   0.05856   0.92522   0.00000  Uiso   1.00
H31    H     0.57676   0.93963   0.65966   0.00000  Uiso   1.00
H32    H     0.61069   0.81476   0.58946   0.00000  Uiso   1.00
H33    H     0.56547   0.01408   0.60739   0.00000  Uiso   1.00
H34    H     0.50311   0.98879   0.78137   0.00000  Uiso   1.00
H35    H     0.72875   0.67834   0.51279   0.00000  Uiso   1.00
H36    H     0.63337   0.09864   0.55061   0.00000  Uiso   1.00
H37    H     0.50188   0.04531   0.91748   0.00000  Uiso   1.00
O38    O     0.02757   0.60310   0.47062   0.00000  Uiso   1.00
O39    O     0.90243   0.15453   0.52026   0.00000  Uiso   1.00
O40    O     0.72992   0.08456   0.00158   0.00000  Uiso   1.00
N41    N     0.12983   0.70561   0.52834   0.00000  Uiso   1.00
N42    N     0.04065   0.09855   0.56370   0.00000  Uiso   1.00
N43    N     0.91772   0.04871   0.90669   0.00000  Uiso   1.00
N44    N     0.84430   0.69848   0.52418   0.00000  Uiso   1.00
N45    N     0.75513   0.09142   0.55954   0.00000  Uiso   1.00
N46    N     0.63220   0.04158   0.90253   0.00000  Uiso   1.00
C47    C     0.72141   0.33755   0.28457   0.00000  Uiso   1.00
C48    C     0.63804   0.37525   0.25585   0.00000  Uiso   1.00
C49    C     0.72708   0.41250   0.23241   0.00000  Uiso   1.00
C50    C     0.62705   0.44320   0.20812   0.00000  Uiso   1.00
C51    C     0.52535   0.50272   0.16368   0.00000  Uiso   1.00
C52    C     0.61972   0.36201   0.35055   0.00000  Uiso   1.00
C53    C     0.69337   0.38812   0.40673   0.00000  Uiso   1.00
C54    C     0.57792   0.40766   0.46215   0.00000  Uiso   1.00
C55    C     0.44780   0.44659   0.56474   0.00000  Uiso   1.00
C56    C     0.67622   0.26738   0.24630   0.00000  Uiso   1.00
C57    C     0.79736   0.21392   0.21484   0.00000  Uiso   1.00
C58    C     0.72947   0.15380   0.18250   0.00000  Uiso   1.00
C59    C     0.68707   0.04580   0.12322   0.00000  Uiso   1.00
C60    C     0.38543   0.32583   0.28311   0.00000  Uiso   1.00
C61    C     0.45555   0.36888   0.25507   0.00000  Uiso   1.00
C62    C     0.35536   0.39953   0.23080   0.00000  Uiso   1.00
C63    C     0.44424   0.43682   0.20732   0.00000  Uiso   1.00
C64    C     0.43724   0.35564   0.34977   0.00000  Uiso   1.00
C65    C     0.32165   0.37515   0.40512   0.00000  Uiso   1.00
C66    C     0.39510   0.40129   0.46137   0.00000  Uiso   1.00
C67    C     0.49373   0.26101   0.24551   0.00000  Uiso   1.00
C68    C     0.42564   0.20096   0.21323   0.00000  Uiso   1.00
C69    C     0.54666   0.14742   0.18171   0.00000  Uiso   1.00
H70    H     0.86348   0.34251   0.28519   0.00000  Uiso   1.00
H71    H     0.86830   0.41742   0.23303   0.00000  Uiso   1.00
H72    H     0.83460   0.39303   0.40732   0.00000  Uiso   1.00
H73    H     0.93857   0.21887   0.21546   0.00000  Uiso   1.00
H74    H     0.79316   0.49767   0.17489   0.00000  Uiso   1.00
H75    H     0.72210   0.44624   0.54239   0.00000  Uiso   1.00
H76    H     0.94135   0.07898   0.13780   0.00000  Uiso   1.00
H77    H     0.24335   0.32088   0.28250   0.00000  Uiso   1.00
H78    H     0.21414   0.39460   0.23020   0.00000  Uiso   1.00
H79    H     0.18044   0.37022   0.40449   0.00000  Uiso   1.00
H80    H     0.28442   0.19605   0.21263   0.00000  Uiso   1.00
H81    H     0.26222   0.47916   0.17259   0.00000  Uiso   1.00
H82    H     0.19116   0.42772   0.54009   0.00000  Uiso   1.00
H83    H     0.41041   0.06046   0.13550   0.00000  Uiso   1.00
O84    O     0.51966   0.53732   0.13940   0.00000  Uiso   1.00
O85    O     0.42644   0.46982   0.62154   0.00000  Uiso   1.00
O86    O     0.71409   0.98799   0.09073   0.00000  Uiso   1.00
N87    N     0.67222   0.48319   0.18151   0.00000  Uiso   1.00
N88    N     0.60578   0.43511   0.52510   0.00000  Uiso   1.00
N89    N     0.81076   0.09175   0.14686   0.00000  Uiso   1.00
N90    N     0.38652   0.47323   0.18028   0.00000  Uiso   1.00
N91    N     0.32009   0.42515   0.52387   0.00000  Uiso   1.00
N92    N     0.52506   0.08179   0.14563   0.00000  Uiso   1.00
C93    C     0.00467   0.71836   0.05183   0.00000  Uiso   1.00
C94    C     0.89400   0.74169   0.11620   0.00000  Uiso   1.00
C95    C     0.95861   0.76842   0.17409   0.00000  Uiso   1.00
C96    C     0.83589   0.78671   0.22757   0.00000  Uiso   1.00
C97    C     0.69157   0.82415   0.32816   0.00000  Uiso   1.00
C98    C     0.96601   0.64766   0.01218   0.00000  Uiso   1.00
C99    C     0.09116   0.59533   0.98261   0.00000  Uiso   1.00
C100   C     0.02906   0.53447   0.94852   0.00000  Uiso   1.00
C101   C     0.99654   0.42592   0.88759   0.00000  Uiso   1.00
C102   C     0.92592   0.75542   0.02165   0.00000  Uiso   1.00
C103   C     0.01736   0.79369   0.00003   0.00000  Uiso   1.00
C104   C     0.92151   0.82354   0.97390   0.00000  Uiso   1.00
C105   C     0.82674   0.88231   0.92769   0.00000  Uiso   1.00
C106   C     0.67185   0.70331   0.04386   0.00000  Uiso   1.00
C107   C     0.71323   0.73351   0.11186   0.00000  Uiso   1.00
C108   C     0.59038   0.75178   0.16527   0.00000  Uiso   1.00
C109   C     0.65479   0.77853   0.22323   0.00000  Uiso   1.00
C110   C     0.78525   0.63948   0.00785   0.00000  Uiso   1.00
C111   C     0.72294   0.57868   0.97379   0.00000  Uiso   1.00
C112   C     0.84796   0.52628   0.94418   0.00000  Uiso   1.00
C113   C     0.74514   0.74725   0.01732   0.00000  Uiso   1.00
C114   C     0.64913   0.77704   0.99122   0.00000  Uiso   1.00
C115   C     0.74041   0.81535   0.96957   0.00000  Uiso   1.00
H116   H     0.14541   0.72472   0.05520   0.00000  Uiso   1.00
H117   H     0.09852   0.77473   0.17742   0.00000  Uiso   1.00
H118   H     0.23105   0.60167   0.98596   0.00000  Uiso   1.00
H119   H     0.15725   0.80000   0.00339   0.00000  Uiso   1.00
H120   H     0.96681   0.82656   0.31101   0.00000  Uiso   1.00
H121   H     0.24627   0.46165   0.90730   0.00000  Uiso   1.00
H122   H     0.09067   0.87986   0.94404   0.00000  Uiso   1.00
H123   H     0.53111   0.69695   0.04048   0.00000  Uiso   1.00
H124   H     0.45050   0.74544   0.16190   0.00000  Uiso   1.00
H125   H     0.58304   0.57238   0.97044   0.00000  Uiso   1.00
H126   H     0.50924   0.77071   0.98787   0.00000  Uiso   1.00
H127   H     0.44086   0.80278   0.29842   0.00000  Uiso   1.00
H128   H     0.72033   0.43787   0.89470   0.00000  Uiso   1.00
H129   H     0.56471   0.85609   0.93145   0.00000  Uiso   1.00
O130   O     0.66190   0.84705   0.38485   0.00000  Uiso   1.00
O131   O     0.02855   0.36831   0.85518   0.00000  Uiso   1.00
O132   O     0.82440   0.91700   0.90340   0.00000  Uiso   1.00
N133   N     0.85409   0.81432   0.29138   0.00000  Uiso   1.00
N134   N     0.11537   0.47315   0.91395   0.00000  Uiso   1.00
N135   N     0.96990   0.86413   0.94829   0.00000  Uiso   1.00
N136   N     0.57107   0.80153   0.28461   0.00000  Uiso   1.00
N137   N     0.83235   0.46036   0.90717   0.00000  Uiso   1.00
N138   N     0.68689   0.85134   0.94151   0.00000  Uiso   1.00
C139   C     0.94547   0.04845   0.33338   0.00000  Uiso   1.00
C140   C     0.99450   0.11797   0.37250   0.00000  Uiso   1.00
C141   C     0.87667   0.17246   0.40308   0.00000  Uiso   1.00
C142   C     0.94776   0.23173   0.43645   0.00000  Uiso   1.00
C143   C     0.99613   0.33899   0.49681   0.00000  Uiso   1.00
C144   C     0.01907   0.00968   0.36277   0.00000  Uiso   1.00
C145   C     0.92190   0.97311   0.38515   0.00000  Uiso   1.00
C146   C     0.01369   0.94122   0.41033   0.00000  Uiso   1.00
C147   C     0.10023   0.88031   0.45553   0.00000  Uiso   1.00
C148   C     0.05294   0.02343   0.26824   0.00000  Uiso   1.00
C149   C     0.98427   0.99840   0.21114   0.00000  Uiso   1.00
C150   C     0.10458   0.97807   0.15673   0.00000  Uiso   1.00
C151   C     0.24372   0.93851   0.05517   0.00000  Uiso   1.00
C152   C     0.28124   0.05683   0.33827   0.00000  Uiso   1.00
C153   C     0.17688   0.12252   0.37516   0.00000  Uiso   1.00
C154   C     0.24816   0.18173   0.40849   0.00000  Uiso   1.00
C155   C     0.13047   0.23630   0.43911   0.00000  Uiso   1.00
C156   C     0.20144   0.01423   0.36542   0.00000  Uiso   1.00
C157   C     0.29339   0.98238   0.39056   0.00000  Uiso   1.00
C158   C     0.19639   0.94578   0.41299   0.00000  Uiso   1.00
C159   C     0.23532   0.02798   0.27090   0.00000  Uiso   1.00
C160   C     0.35576   0.00768   0.21656   0.00000  Uiso   1.00
C161   C     0.28728   0.98263   0.15939   0.00000  Uiso   1.00
H162   H     0.80348   0.04490   0.33132   0.00000  Uiso   1.00
H163   H     0.73554   0.16891   0.40102   0.00000  Uiso   1.00
H164   H     0.78077   0.96959   0.38309   0.00000  Uiso   1.00
H165   H     0.84313   0.99488   0.20911   0.00000  Uiso   1.00
H166   H     0.74063   0.30841   0.47948   0.00000  Uiso   1.00
H167   H     0.83602   0.88811   0.44166   0.00000  Uiso   1.00
H168   H     0.96750   0.94144   0.07478   0.00000  Uiso   1.00
H169   H     0.42324   0.06037   0.34034   0.00000  Uiso   1.00
H170   H     0.38931   0.18524   0.41054   0.00000  Uiso   1.00
H171   H     0.43453   0.98592   0.39261   0.00000  Uiso   1.00
H172   H     0.49689   0.01121   0.21863   0.00000  Uiso   1.00
H173   H     0.27125   0.32166   0.48721   0.00000  Uiso   1.00
H174   H     0.36663   0.90136   0.44939   0.00000  Uiso   1.00
H175   H     0.49812   0.95469   0.08252   0.00000  Uiso   1.00
O176   O     0.97243   0.39690   0.52938   0.00000  Uiso   1.00
O177   O     0.09757   0.84547   0.47974   0.00000  Uiso   1.00
O178   O     0.27008   0.91544   0.99842   0.00000  Uiso   1.00
N179   N     0.87017   0.29439   0.47166   0.00000  Uiso   1.00
N180   N     0.95935   0.90145   0.43630   0.00000  Uiso   1.00
N181   N     0.08228   0.95129   0.09331   0.00000  Uiso   1.00
N182   N     0.15570   0.30152   0.47582   0.00000  Uiso   1.00
N183   N     0.24487   0.90858   0.44046   0.00000  Uiso   1.00
N184   N     0.36780   0.95842   0.09747   0.00000  Uiso   1.00
C185   C     0.27859   0.66245   0.71543   0.00000  Uiso   1.00
C186   C     0.36196   0.62475   0.74415   0.00000  Uiso   1.00
C187   C     0.27292   0.58750   0.76759   0.00000  Uiso   1.00
C188   C     0.37295   0.55680   0.79188   0.00000  Uiso   1.00
C189   C     0.47465   0.49728   0.83632   0.00000  Uiso   1.00
C190   C     0.38028   0.63799   0.64945   0.00000  Uiso   1.00
C191   C     0.30663   0.61188   0.59327   0.00000  Uiso   1.00
C192   C     0.42208   0.59234   0.53785   0.00000  Uiso   1.00
C193   C     0.55220   0.55341   0.43526   0.00000  Uiso   1.00
C194   C     0.32378   0.73262   0.75370   0.00000  Uiso   1.00
C195   C     0.20264   0.78608   0.78516   0.00000  Uiso   1.00
C196   C     0.27053   0.84620   0.81750   0.00000  Uiso   1.00
C197   C     0.31293   0.95420   0.87678   0.00000  Uiso   1.00
C198   C     0.61457   0.67417   0.71689   0.00000  Uiso   1.00
C199   C     0.54445   0.63112   0.74493   0.00000  Uiso   1.00
C200   C     0.64464   0.60047   0.76920   0.00000  Uiso   1.00
C201   C     0.55576   0.56318   0.79268   0.00000  Uiso   1.00
C202   C     0.56276   0.64436   0.65023   0.00000  Uiso   1.00
C203   C     0.67835   0.62485   0.59488   0.00000  Uiso   1.00
C204   C     0.60490   0.59871   0.53863   0.00000  Uiso   1.00
C205   C     0.50627   0.73898   0.75449   0.00000  Uiso   1.00
C206   C     0.57436   0.79904   0.78677   0.00000  Uiso   1.00
C207   C     0.45334   0.85258   0.81829   0.00000  Uiso   1.00
H208   H     0.13652   0.65749   0.71481   0.00000  Uiso   1.00
H209   H     0.13170   0.58258   0.76697   0.00000  Uiso   1.00
H210   H     0.16540   0.60697   0.59268   0.00000  Uiso   1.00
H211   H     0.06143   0.78113   0.78454   0.00000  Uiso   1.00
H212   H     0.20684   0.50233   0.82511   0.00000  Uiso   1.00
H213   H     0.27790   0.55376   0.45761   0.00000  Uiso   1.00
H214   H     0.05865   0.92102   0.86220   0.00000  Uiso   1.00
H215   H     0.75665   0.67912   0.71750   0.00000  Uiso   1.00
H216   H     0.78586   0.60540   0.76980   0.00000  Uiso   1.00
H217   H     0.81956   0.62978   0.59551   0.00000  Uiso   1.00
H218   H     0.71559   0.80395   0.78737   0.00000  Uiso   1.00
H219   H     0.73778   0.52084   0.82741   0.00000  Uiso   1.00
H220   H     0.80884   0.57228   0.45991   0.00000  Uiso   1.00
H221   H     0.58959   0.93954   0.86450   0.00000  Uiso   1.00
O222   O     0.48034   0.46268   0.86060   0.00000  Uiso   1.00
O223   O     0.57356   0.53018   0.37846   0.00000  Uiso   1.00
O224   O     0.28591   0.01201   0.90927   0.00000  Uiso   1.00
N225   N     0.32778   0.51681   0.81849   0.00000  Uiso   1.00
N226   N     0.39422   0.56489   0.47490   0.00000  Uiso   1.00
N227   N     0.18924   0.90825   0.85314   0.00000  Uiso   1.00
N228   N     0.61347   0.52677   0.81972   0.00000  Uiso   1.00
N229   N     0.67991   0.57485   0.47613   0.00000  Uiso   1.00
N230   N     0.47494   0.91821   0.85437   0.00000  Uiso   1.00
C231   C     0.99533   0.28164   0.94817   0.00000  Uiso   1.00
C232   C     0.10600   0.25831   0.88380   0.00000  Uiso   1.00
C233   C     0.04140   0.23158   0.82592   0.00000  Uiso   1.00
C234   C     0.16411   0.21329   0.77243   0.00000  Uiso   1.00
C235   C     0.30843   0.17585   0.67184   0.00000  Uiso   1.00
C236   C     0.03399   0.35234   0.98782   0.00000  Uiso   1.00
C237   C     0.90884   0.40467   0.01739   0.00000  Uiso   1.00
C238   C     0.97094   0.46553   0.05148   0.00000  Uiso   1.00
C239   C     0.00346   0.57408   0.11241   0.00000  Uiso   1.00
C240   C     0.07408   0.24458   0.97835   0.00000  Uiso   1.00
C241   C     0.98264   0.20631   0.99997   0.00000  Uiso   1.00
C242   C     0.07849   0.17646   0.02610   0.00000  Uiso   1.00
C243   C     0.17326   0.11769   0.07231   0.00000  Uiso   1.00
C244   C     0.32815   0.29669   0.95614   0.00000  Uiso   1.00
C245   C     0.28677   0.26649   0.88814   0.00000  Uiso   1.00
C246   C     0.40962   0.24822   0.83473   0.00000  Uiso   1.00
C247   C     0.34521   0.22147   0.77677   0.00000  Uiso   1.00
C248   C     0.21475   0.36052   0.99215   0.00000  Uiso   1.00
C249   C     0.27706   0.42132   0.02621   0.00000  Uiso   1.00
C250   C     0.15204   0.47372   0.05582   0.00000  Uiso   1.00
C251   C     0.25486   0.25275   0.98268   0.00000  Uiso   1.00
C252   C     0.35087   0.22296   0.00878   0.00000  Uiso   1.00
C253   C     0.25959   0.18465   0.03043   0.00000  Uiso   1.00
H254   H     0.85459   0.27528   0.94480   0.00000  Uiso   1.00
H255   H     0.90148   0.22527   0.82258   0.00000  Uiso   1.00
H256   H     0.76895   0.39833   0.01404   0.00000  Uiso   1.00
H257   H     0.84275   0.20000   0.99661   0.00000  Uiso   1.00
H258   H     0.03319   0.17344   0.68899   0.00000  Uiso   1.00
H259   H     0.75373   0.53835   0.09270   0.00000  Uiso   1.00
H260   H     0.90933   0.12014   0.05596   0.00000  Uiso   1.00
H261   H     0.46889   0.30305   0.95952   0.00000  Uiso   1.00
H262   H     0.54950   0.25456   0.83810   0.00000  Uiso   1.00
H263   H     0.41696   0.42762   0.02956   0.00000  Uiso   1.00
H264   H     0.49076   0.22929   0.01213   0.00000  Uiso   1.00
H265   H     0.55914   0.19722   0.70158   0.00000  Uiso   1.00
H266   H     0.27967   0.56213   0.10530   0.00000  Uiso   1.00
H267   H     0.43528   0.14391   0.06855   0.00000  Uiso   1.00
O268   O     0.33810   0.15295   0.61515   0.00000  Uiso   1.00
O269   O     0.97145   0.63169   0.14482   0.00000  Uiso   1.00
O270   O     0.17560   0.08300   0.09660   0.00000  Uiso   1.00
N271   N     0.14591   0.18568   0.70862   0.00000  Uiso   1.00
N272   N     0.88463   0.52685   0.08605   0.00000  Uiso   1.00
N273   N     0.03010   0.13587   0.05171   0.00000  Uiso   1.00
N274   N     0.42893   0.19847   0.71539   0.00000  Uiso   1.00
N275   N     0.16765   0.53964   0.09283   0.00000  Uiso   1.00
N276   N     0.31311   0.14866   0.05849   0.00000  Uiso   1.00
