data_job_06653
_audit_creation_date              2018-12-19
_audit_creation_method            'Materials Studio'
_symmetry_space_group_name_H-M    'P1'
_symmetry_Int_Tables_number       1
_symmetry_cell_setting            triclinic
loop_
_symmetry_equiv_pos_as_xyz
  x,y,z
_cell_length_a                    24.0964
_cell_length_b                    17.2650
_cell_length_c                    17.3904
_cell_angle_alpha                 85.2127
_cell_angle_beta                  87.8761
_cell_angle_gamma                 87.0760
loop_
_atom_site_label
_atom_site_type_symbol
_atom_site_fract_x
_atom_site_fract_y
_atom_site_fract_z
_atom_site_U_iso_or_equiv
_atom_site_adp_type
_atom_site_occupancy
C1     C     0.10345   0.09649   0.64602   0.00000  Uiso   1.00
C2     C     0.16576   0.09634   0.65853   0.00000  Uiso   1.00
C3     C     0.19950   0.15837   0.63964   0.00000  Uiso   1.00
C4     C     0.25545   0.14658   0.65566   0.00000  Uiso   1.00
C5     C     0.34896   0.15718   0.66991   0.00000  Uiso   1.00
C6     C     0.09513   0.02894   0.59712   0.00000  Uiso   1.00
C7     C     0.06946   0.03431   0.52661   0.00000  Uiso   1.00
C8     C     0.06595   0.96579   0.49095   0.00000  Uiso   1.00
C9     C     0.04975   0.87175   0.40989   0.00000  Uiso   1.00
C10    C     0.07646   0.07425   0.72494   0.00000  Uiso   1.00
C11    C     0.03509   0.11769   0.76189   0.00000  Uiso   1.00
C12    C     0.01586   0.08730   0.83384   0.00000  Uiso   1.00
C13    C     0.97068   0.06360   0.95125   0.00000  Uiso   1.00
C14    C     0.14284   0.96525   0.70808   0.00000  Uiso   1.00
C15    C     0.18716   0.02505   0.69223   0.00000  Uiso   1.00
C16    C     0.24308   0.01317   0.70829   0.00000  Uiso   1.00
C17    C     0.27689   0.07517   0.68943   0.00000  Uiso   1.00
C18    C     0.11652   0.95766   0.63082   0.00000  Uiso   1.00
C19    C     0.11304   0.88912   0.59526   0.00000  Uiso   1.00
C20    C     0.08738   0.89438   0.52471   0.00000  Uiso   1.00
C21    C     0.09786   0.00296   0.75865   0.00000  Uiso   1.00
C22    C     0.07868   0.97250   0.83055   0.00000  Uiso   1.00
C23    C     0.03729   0.01589   0.86761   0.00000  Uiso   1.00
H24    H     0.08679   0.15198   0.61978   0.00000  Uiso   1.00
H25    H     0.18292   0.21352   0.61355   0.00000  Uiso   1.00
H26    H     0.05290   0.08948   0.50054   0.00000  Uiso   1.00
H27    H     0.01854   0.17285   0.73579   0.00000  Uiso   1.00
H28    H     0.29894   0.25030   0.62147   0.00000  Uiso   1.00
H29    H     0.02477   0.98876   0.38321   0.00000  Uiso   1.00
H30    H     0.95232   0.16456   0.87928   0.00000  Uiso   1.00
H31    H     0.15950   0.90975   0.73432   0.00000  Uiso   1.00
H32    H     0.25962   0.95800   0.73437   0.00000  Uiso   1.00
H33    H     0.12960   0.83397   0.62137   0.00000  Uiso   1.00
H34    H     0.09525   0.91733   0.85661   0.00000  Uiso   1.00
H35    H     0.36120   0.04291   0.71954   0.00000  Uiso   1.00
H36    H     0.08702   0.78137   0.48127   0.00000  Uiso   1.00
H37    H     0.01457   0.95717   0.97734   0.00000  Uiso   1.00
O38    O     0.39462   0.18271   0.66845   0.00000  Uiso   1.00
O39    O     0.03491   0.83958   0.35587   0.00000  Uiso   1.00
O40    O     0.93986   0.07022   0.00670   0.00000  Uiso   1.00
N41    N     0.29985   0.19488   0.64456   0.00000  Uiso   1.00
N42    N     0.04352   0.95035   0.42179   0.00000  Uiso   1.00
N43    N     0.97577   0.11470   0.88557   0.00000  Uiso   1.00
N44    N     0.33335   0.08328   0.69733   0.00000  Uiso   1.00
N45    N     0.07702   0.83876   0.47456   0.00000  Uiso   1.00
N46    N     0.00927   0.00311   0.93833   0.00000  Uiso   1.00
C47    C     0.62309   0.15425   0.14116   0.00000  Uiso   1.00
C48    C     0.63013   0.20808   0.06772   0.00000  Uiso   1.00
C49    C     0.64681   0.28409   0.06403   0.00000  Uiso   1.00
C50    C     0.65071   0.32364   0.99132   0.00000  Uiso   1.00
C51    C     0.66350   0.41260   0.88742   0.00000  Uiso   1.00
C52    C     0.56343   0.12851   0.14255   0.00000  Uiso   1.00
C53    C     0.52403   0.13762   0.20178   0.00000  Uiso   1.00
C54    C     0.47179   0.11019   0.19205   0.00000  Uiso   1.00
C55    C     0.38103   0.07556   0.20435   0.00000  Uiso   1.00
C56    C     0.66012   0.08167   0.12923   0.00000  Uiso   1.00
C57    C     0.70201   0.05138   0.17727   0.00000  Uiso   1.00
C58    C     0.73116   0.98449   0.15634   0.00000  Uiso   1.00
C59    C     0.79054   0.87714   0.14795   0.00000  Uiso   1.00
C60    C     0.60036   0.08932   0.01860   0.00000  Uiso   1.00
C61    C     0.61778   0.17280   0.00115   0.00000  Uiso   1.00
C62    C     0.62166   0.21225   0.92843   0.00000  Uiso   1.00
C63    C     0.63835   0.28831   0.92463   0.00000  Uiso   1.00
C64    C     0.55108   0.09324   0.07598   0.00000  Uiso   1.00
C65    C     0.49888   0.06578   0.06617   0.00000  Uiso   1.00
C66    C     0.45942   0.07485   0.12536   0.00000  Uiso   1.00
C67    C     0.64777   0.04640   0.06266   0.00000  Uiso   1.00
C68    C     0.67686   0.97954   0.04166   0.00000  Uiso   1.00
C69    C     0.71880   0.94916   0.08965   0.00000  Uiso   1.00
H70    H     0.63269   0.18171   0.19299   0.00000  Uiso   1.00
H71    H     0.65636   0.31137   0.11557   0.00000  Uiso   1.00
H72    H     0.53360   0.16491   0.25329   0.00000  Uiso   1.00
H73    H     0.71155   0.07869   0.22878   0.00000  Uiso   1.00
H74    H     0.67713   0.43957   0.00036   0.00000  Uiso   1.00
H75    H     0.41829   0.13074   0.29077   0.00000  Uiso   1.00
H76    H     0.79354   0.94892   0.23909   0.00000  Uiso   1.00
H77    H     0.59074   0.06186   0.96677   0.00000  Uiso   1.00
H78    H     0.61211   0.18494   0.87692   0.00000  Uiso   1.00
H79    H     0.48935   0.03849   0.01465   0.00000  Uiso   1.00
H80    H     0.66730   0.95227   0.99014   0.00000  Uiso   1.00
H81    H     0.64121   0.33697   0.80667   0.00000  Uiso   1.00
H82    H     0.38237   0.02813   0.09709   0.00000  Uiso   1.00
H83    H     0.75762   0.84631   0.04540   0.00000  Uiso   1.00
O84    O     0.67396   0.47141   0.84850   0.00000  Uiso   1.00
O85    O     0.33438   0.06622   0.22951   0.00000  Uiso   1.00
O86    O     0.82670   0.82768   0.16170   0.00000  Uiso   1.00
N87    N     0.66575   0.39853   0.96711   0.00000  Uiso   1.00
N88    N     0.42375   0.10980   0.23862   0.00000  Uiso   1.00
N89    N     0.77457   0.93980   0.19031   0.00000  Uiso   1.00
N90    N     0.64643   0.34332   0.86288   0.00000  Uiso   1.00
N91    N     0.40443   0.05459   0.13440   0.00000  Uiso   1.00
N92    N     0.75524   0.88459   0.08609   0.00000  Uiso   1.00
C93    C     0.13275   0.51031   0.24038   0.00000  Uiso   1.00
C94    C     0.10993   0.54562   0.31331   0.00000  Uiso   1.00
C95    C     0.13922   0.55166   0.37960   0.00000  Uiso   1.00
C96    C     0.11091   0.58580   0.44007   0.00000  Uiso   1.00
C97    C     0.08393   0.63647   0.55419   0.00000  Uiso   1.00
C98    C     0.09403   0.44620   0.22615   0.00000  Uiso   1.00
C99    C     0.10995   0.36864   0.21914   0.00000  Uiso   1.00
C100   C     0.06826   0.31910   0.20622   0.00000  Uiso   1.00
C101   C     0.01659   0.21542   0.18496   0.00000  Uiso   1.00
C102   C     0.12415   0.57331   0.17450   0.00000  Uiso   1.00
C103   C     0.16540   0.60262   0.12406   0.00000  Uiso   1.00
C104   C     0.14907   0.66009   0.06765   0.00000  Uiso   1.00
C105   C     0.14418   0.75377   0.96620   0.00000  Uiso   1.00
C106   C     0.03041   0.56022   0.22988   0.00000  Uiso   1.00
C107   C     0.05434   0.57272   0.30760   0.00000  Uiso   1.00
C108   C     0.02599   0.60687   0.36798   0.00000  Uiso   1.00
C109   C     0.05523   0.61296   0.43435   0.00000  Uiso   1.00
C110   C     0.03844   0.47330   0.22044   0.00000  Uiso   1.00
C111   C     0.99672   0.42386   0.20752   0.00000  Uiso   1.00
C112   C     0.01257   0.34625   0.20051   0.00000  Uiso   1.00
C113   C     0.06856   0.60042   0.16880   0.00000  Uiso   1.00
C114   C     0.05217   0.65784   0.11244   0.00000  Uiso   1.00
C115   C     0.09338   0.68724   0.06193   0.00000  Uiso   1.00
H116   H     0.17602   0.48920   0.24482   0.00000  Uiso   1.00
H117   H     0.18223   0.53066   0.38400   0.00000  Uiso   1.00
H118   H     0.15297   0.34768   0.22355   0.00000  Uiso   1.00
H119   H     0.20841   0.58163   0.12849   0.00000  Uiso   1.00
H120   H     0.16460   0.58856   0.53579   0.00000  Uiso   1.00
H121   H     0.10290   0.20274   0.19746   0.00000  Uiso   1.00
H122   H     0.21981   0.69607   0.99700   0.00000  Uiso   1.00
H123   H     0.98713   0.58132   0.22544   0.00000  Uiso   1.00
H124   H     0.98297   0.62784   0.36355   0.00000  Uiso   1.00
H125   H     0.95371   0.44486   0.20311   0.00000  Uiso   1.00
H126   H     0.00915   0.67881   0.10804   0.00000  Uiso   1.00
H127   H     0.00286   0.66743   0.51920   0.00000  Uiso   1.00
H128   H     0.94117   0.28161   0.18086   0.00000  Uiso   1.00
H129   H     0.05808   0.77494   0.98041   0.00000  Uiso   1.00
O130   O     0.08440   0.65691   0.61871   0.00000  Uiso   1.00
O131   O     0.00345   0.15074   0.17482   0.00000  Uiso   1.00
O132   O     0.15684   0.79797   0.91182   0.00000  Uiso   1.00
N133   N     0.12711   0.60075   0.51293   0.00000  Uiso   1.00
N134   N     0.06942   0.24003   0.19662   0.00000  Uiso   1.00
N135   N     0.17872   0.70123   0.00919   0.00000  Uiso   1.00
N136   N     0.04008   0.64319   0.50400   0.00000  Uiso   1.00
N137   N     0.98239   0.28247   0.18769   0.00000  Uiso   1.00
N138   N     0.09169   0.74367   0.00026   0.00000  Uiso   1.00
C139   C     0.63922   0.13610   0.62534   0.00000  Uiso   1.00
C140   C     0.67867   0.13763   0.55466   0.00000  Uiso   1.00
C141   C     0.73320   0.16021   0.55197   0.00000  Uiso   1.00
C142   C     0.76241   0.15749   0.48184   0.00000  Uiso   1.00
C143   C     0.82740   0.16354   0.38200   0.00000  Uiso   1.00
C144   C     0.61999   0.05307   0.63798   0.00000  Uiso   1.00
C145   C     0.62519   0.00457   0.70536   0.00000  Uiso   1.00
C146   C     0.60499   0.93068   0.70537   0.00000  Uiso   1.00
C147   C     0.57885   0.80548   0.73492   0.00000  Uiso   1.00
C148   C     0.58809   0.18676   0.60129   0.00000  Uiso   1.00
C149   C     0.56645   0.25065   0.63782   0.00000  Uiso   1.00
C150   C     0.51938   0.28930   0.60695   0.00000  Uiso   1.00
C151   C     0.44370   0.37168   0.57952   0.00000  Uiso   1.00
C152   C     0.59410   0.09111   0.50556   0.00000  Uiso   1.00
C153   C     0.65416   0.11319   0.48960   0.00000  Uiso   1.00
C154   C     0.68329   0.11044   0.41945   0.00000  Uiso   1.00
C155   C     0.73786   0.13301   0.41666   0.00000  Uiso   1.00
C156   C     0.59549   0.02864   0.57293   0.00000  Uiso   1.00
C157   C     0.57527   0.95480   0.57284   0.00000  Uiso   1.00
C158   C     0.58044   0.90619   0.64020   0.00000  Uiso   1.00
C159   C     0.56358   0.16233   0.53623   0.00000  Uiso   1.00
C160   C     0.51654   0.20088   0.50530   0.00000  Uiso   1.00
C161   C     0.49483   0.26482   0.54177   0.00000  Uiso   1.00
H162   H     0.65830   0.15512   0.67599   0.00000  Uiso   1.00
H163   H     0.75215   0.17911   0.60233   0.00000  Uiso   1.00
H164   H     0.64415   0.02350   0.75570   0.00000  Uiso   1.00
H165   H     0.58542   0.26955   0.68816   0.00000  Uiso   1.00
H166   H     0.84541   0.19490   0.49199   0.00000  Uiso   1.00
H167   H     0.61766   0.86680   0.81538   0.00000  Uiso   1.00
H168   H     0.49382   0.38564   0.67297   0.00000  Uiso   1.00
H169   H     0.57502   0.07209   0.45491   0.00000  Uiso   1.00
H170   H     0.66432   0.09152   0.36912   0.00000  Uiso   1.00
H171   H     0.55631   0.93591   0.52249   0.00000  Uiso   1.00
H172   H     0.49758   0.18196   0.45496   0.00000  Uiso   1.00
H173   H     0.77412   0.12381   0.30271   0.00000  Uiso   1.00
H174   H     0.54637   0.79571   0.62610   0.00000  Uiso   1.00
H175   H     0.42253   0.31454   0.48369   0.00000  Uiso   1.00
O176   O     0.87001   0.17362   0.34491   0.00000  Uiso   1.00
O177   O     0.57121   0.74317   0.76919   0.00000  Uiso   1.00
O178   O     0.40873   0.42387   0.58235   0.00000  Uiso   1.00
N179   N     0.81638   0.17552   0.45921   0.00000  Uiso   1.00
N180   N     0.60345   0.86876   0.76155   0.00000  Uiso   1.00
N181   N     0.48766   0.35381   0.62843   0.00000  Uiso   1.00
N182   N     0.77801   0.13727   0.35736   0.00000  Uiso   1.00
N183   N     0.56509   0.83051   0.65970   0.00000  Uiso   1.00
N184   N     0.44930   0.31556   0.52658   0.00000  Uiso   1.00
C185   C     0.13215   0.49767   0.76739   0.00000  Uiso   1.00
C186   C     0.13831   0.42175   0.81850   0.00000  Uiso   1.00
C187   C     0.15441   0.41459   0.89466   0.00000  Uiso   1.00
C188   C     0.15754   0.34006   0.93147   0.00000  Uiso   1.00
C189   C     0.16898   0.23207   0.01663   0.00000  Uiso   1.00
C190   C     0.07270   0.50231   0.73957   0.00000  Uiso   1.00
C191   C     0.03365   0.56290   0.74937   0.00000  Uiso   1.00
C192   C     0.98155   0.55618   0.71973   0.00000  Uiso   1.00
C193   C     0.89115   0.57329   0.68230   0.00000  Uiso   1.00
C194   C     0.16962   0.48696   0.69609   0.00000  Uiso   1.00
C195   C     0.21204   0.53464   0.66930   0.00000  Uiso   1.00
C196   C     0.24153   0.51500   0.60303   0.00000  Uiso   1.00
C197   C     0.30161   0.50827   0.49809   0.00000  Uiso   1.00
C198   C     0.10908   0.37803   0.69732   0.00000  Uiso   1.00
C199   C     0.12578   0.35677   0.78044   0.00000  Uiso   1.00
C200   C     0.12888   0.28223   0.81714   0.00000  Uiso   1.00
C201   C     0.14499   0.27496   0.89334   0.00000  Uiso   1.00
C202   C     0.06017   0.43733   0.70152   0.00000  Uiso   1.00
C203   C     0.00812   0.43053   0.67185   0.00000  Uiso   1.00
C204   C     0.96900   0.49108   0.68160   0.00000  Uiso   1.00
C205   C     0.15709   0.42197   0.65803   0.00000  Uiso   1.00
C206   C     0.18652   0.40227   0.59179   0.00000  Uiso   1.00
C207   C     0.22897   0.44990   0.56491   0.00000  Uiso   1.00
H208   H     0.14190   0.54826   0.79702   0.00000  Uiso   1.00
H209   H     0.16410   0.46490   0.92409   0.00000  Uiso   1.00
H210   H     0.04336   0.61318   0.77881   0.00000  Uiso   1.00
H211   H     0.22172   0.58492   0.69876   0.00000  Uiso   1.00
H212   H     0.18316   0.34382   0.04821   0.00000  Uiso   1.00
H213   H     0.92858   0.65649   0.74186   0.00000  Uiso   1.00
H214   H     0.30470   0.59690   0.57305   0.00000  Uiso   1.00
H215   H     0.09932   0.32744   0.66769   0.00000  Uiso   1.00
H216   H     0.11918   0.23195   0.78768   0.00000  Uiso   1.00
H217   H     0.99844   0.38023   0.64240   0.00000  Uiso   1.00
H218   H     0.17681   0.35197   0.56235   0.00000  Uiso   1.00
H219   H     0.14670   0.15475   0.93749   0.00000  Uiso   1.00
H220   H     0.89212   0.46742   0.63113   0.00000  Uiso   1.00
H221   H     0.26824   0.40783   0.46234   0.00000  Uiso   1.00
O222   O     0.17875   0.19045   0.07412   0.00000  Uiso   1.00
O223   O     0.84475   0.60068   0.67218   0.00000  Uiso   1.00
O224   O     0.33821   0.52250   0.45073   0.00000  Uiso   1.00
N225   N     0.17187   0.31242   0.00568   0.00000  Uiso   1.00
N226   N     0.93384   0.60475   0.71927   0.00000  Uiso   1.00
N227   N     0.28547   0.54905   0.56144   0.00000  Uiso   1.00
N228   N     0.15225   0.21068   0.94610   0.00000  Uiso   1.00
N229   N     0.91423   0.50301   0.65969   0.00000  Uiso   1.00
N230   N     0.26586   0.44731   0.50187   0.00000  Uiso   1.00
C231   C     0.62921   0.61778   0.15788   0.00000  Uiso   1.00
C232   C     0.60553   0.69180   0.19147   0.00000  Uiso   1.00
C233   C     0.63497   0.75703   0.20157   0.00000  Uiso   1.00
C234   C     0.60579   0.81879   0.23324   0.00000  Uiso   1.00
C235   C     0.57762   0.93426   0.28220   0.00000  Uiso   1.00
C236   C     0.59339   0.60590   0.08974   0.00000  Uiso   1.00
C237   C     0.61262   0.59890   0.01430   0.00000  Uiso   1.00
C238   C     0.57322   0.58835   0.96033   0.00000  Uiso   1.00
C239   C     0.52621   0.57041   0.85136   0.00000  Uiso   1.00
C240   C     0.61731   0.55131   0.21866   0.00000  Uiso   1.00
C241   C     0.65665   0.49839   0.25161   0.00000  Uiso   1.00
C242   C     0.63738   0.44185   0.30618   0.00000  Uiso   1.00
C243   C     0.62752   0.33914   0.39739   0.00000  Uiso   1.00
C244   C     0.52504   0.61146   0.19618   0.00000  Uiso   1.00
C245   C     0.54896   0.68836   0.21228   0.00000  Uiso   1.00
C246   C     0.51972   0.75004   0.24395   0.00000  Uiso   1.00
C247   C     0.54911   0.81535   0.25409   0.00000  Uiso   1.00
C248   C     0.53682   0.60247   0.11054   0.00000  Uiso   1.00
C249   C     0.49737   0.59191   0.05668   0.00000  Uiso   1.00
C250   C     0.51654   0.58491   0.98117   0.00000  Uiso   1.00
C251   C     0.56074   0.54787   0.23947   0.00000  Uiso   1.00
C252   C     0.54140   0.49140   0.29399   0.00000  Uiso   1.00
C253   C     0.58070   0.43841   0.32702   0.00000  Uiso   1.00
H254   H     0.67326   0.62045   0.14168   0.00000  Uiso   1.00
H255   H     0.67875   0.75967   0.18545   0.00000  Uiso   1.00
H256   H     0.65641   0.60156   0.99822   0.00000  Uiso   1.00
H257   H     0.70043   0.50106   0.23550   0.00000  Uiso   1.00
H258   H     0.65989   0.91251   0.24313   0.00000  Uiso   1.00
H259   H     0.61278   0.57910   0.84834   0.00000  Uiso   1.00
H260   H     0.70561   0.36719   0.34869   0.00000  Uiso   1.00
H261   H     0.48099   0.60878   0.21238   0.00000  Uiso   1.00
H262   H     0.47594   0.74737   0.26004   0.00000  Uiso   1.00
H263   H     0.45359   0.58926   0.07280   0.00000  Uiso   1.00
H264   H     0.49762   0.48876   0.31008   0.00000  Uiso   1.00
H265   H     0.49528   0.90253   0.30367   0.00000  Uiso   1.00
H266   H     0.44817   0.56912   0.90888   0.00000  Uiso   1.00
H267   H     0.54100   0.35720   0.40923   0.00000  Uiso   1.00
O268   O     0.57772   0.99890   0.30345   0.00000  Uiso   1.00
O269   O     0.51592   0.56147   0.78551   0.00000  Uiso   1.00
O270   O     0.63771   0.28344   0.44195   0.00000  Uiso   1.00
N271   N     0.62184   0.89114   0.25085   0.00000  Uiso   1.00
N272   N     0.57780   0.57943   0.88175   0.00000  Uiso   1.00
N273   N     0.66458   0.38130   0.34952   0.00000  Uiso   1.00
N274   N     0.53327   0.88577   0.28343   0.00000  Uiso   1.00
N275   N     0.48922   0.57406   0.91432   0.00000  Uiso   1.00
N276   N     0.57601   0.37592   0.38209   0.00000  Uiso   1.00
C277   C     0.87679   0.77742   0.42549   0.00000  Uiso   1.00
C278   C     0.81517   0.80225   0.42936   0.00000  Uiso   1.00
C279   C     0.77142   0.75268   0.43313   0.00000  Uiso   1.00
C280   C     0.71804   0.78679   0.43630   0.00000  Uiso   1.00
C281   C     0.62376   0.81306   0.44243   0.00000  Uiso   1.00
C282   C     0.90258   0.81108   0.49343   0.00000  Uiso   1.00
C283   C     0.93232   0.76892   0.55107   0.00000  Uiso   1.00
C284   C     0.95251   0.81046   0.60817   0.00000  Uiso   1.00
C285   C     0.99397   0.85044   0.71374   0.00000  Uiso   1.00
C286   C     0.90098   0.82086   0.35296   0.00000  Uiso   1.00
C287   C     0.92938   0.78693   0.29249   0.00000  Uiso   1.00
C288   C     0.94824   0.83672   0.23133   0.00000  Uiso   1.00
C289   C     0.98721   0.89188   0.11880   0.00000  Uiso   1.00
C290   C     0.85979   0.92616   0.42442   0.00000  Uiso   1.00
C291   C     0.80594   0.88304   0.42878   0.00000  Uiso   1.00
C292   C     0.75261   0.91724   0.43194   0.00000  Uiso   1.00
C293   C     0.70878   0.86773   0.43571   0.00000  Uiso   1.00
C294   C     0.89334   0.89186   0.49285   0.00000  Uiso   1.00
C295   C     0.91350   0.93348   0.54988   0.00000  Uiso   1.00
C296   C     0.94326   0.89140   0.60759   0.00000  Uiso   1.00
C297   C     0.89174   0.90165   0.35237   0.00000  Uiso   1.00
C298   C     0.91056   0.95149   0.29130   0.00000  Uiso   1.00
C299   C     0.93899   0.91765   0.23075   0.00000  Uiso   1.00
H300   H     0.88399   0.71453   0.42595   0.00000  Uiso   1.00
H301   H     0.77859   0.69016   0.43358   0.00000  Uiso   1.00
H302   H     0.93946   0.70640   0.55150   0.00000  Uiso   1.00
H303   H     0.93652   0.72442   0.29296   0.00000  Uiso   1.00
H304   H     0.65766   0.69878   0.44182   0.00000  Uiso   1.00
H305   H     0.99689   0.73302   0.69043   0.00000  Uiso   1.00
H306   H     0.99070   0.77100   0.14526   0.00000  Uiso   1.00
H307   H     0.85260   0.98906   0.42396   0.00000  Uiso   1.00
H308   H     0.74547   0.97976   0.43149   0.00000  Uiso   1.00
H309   H     0.90635   0.99600   0.54941   0.00000  Uiso   1.00
H310   H     0.90341   0.01401   0.29087   0.00000  Uiso   1.00
H311   H     0.63078   0.93383   0.44012   0.00000  Uiso   1.00
H312   H     0.97002   0.96807   0.68874   0.00000  Uiso   1.00
H313   H     0.96382   0.00605   0.14356   0.00000  Uiso   1.00
O314   O     0.57432   0.80523   0.44598   0.00000  Uiso   1.00
O315   O     0.01938   0.85016   0.77215   0.00000  Uiso   1.00
O316   O     0.01125   0.89999   0.05689   0.00000  Uiso   1.00
N317   N     0.66603   0.75538   0.44037   0.00000  Uiso   1.00
N318   N     0.98319   0.78739   0.67282   0.00000  Uiso   1.00
N319   N     0.97741   0.82290   0.16313   0.00000  Uiso   1.00
N320   N     0.65157   0.88185   0.43946   0.00000  Uiso   1.00
N321   N     0.96872   0.91387   0.67191   0.00000  Uiso   1.00
N322   N     0.96295   0.94937   0.16222   0.00000  Uiso   1.00
C323   C     0.35276   0.73933   0.00610   0.00000  Uiso   1.00
C324   C     0.34482   0.68711   0.08044   0.00000  Uiso   1.00
C325   C     0.32966   0.61034   0.08528   0.00000  Uiso   1.00
C326   C     0.32458   0.57253   0.15868   0.00000  Uiso   1.00
C327   C     0.31080   0.48571   0.26405   0.00000  Uiso   1.00
C328   C     0.41171   0.76740   0.00686   0.00000  Uiso   1.00
C329   C     0.45278   0.75815   0.94983   0.00000  Uiso   1.00
C330   C     0.50400   0.78794   0.96128   0.00000  Uiso   1.00
C331   C     0.59405   0.82582   0.95239   0.00000  Uiso   1.00
C332   C     0.31404   0.81102   0.01442   0.00000  Uiso   1.00
C333   C     0.27301   0.83845   0.96374   0.00000  Uiso   1.00
C334   C     0.24201   0.90498   0.98155   0.00000  Uiso   1.00
C335   C     0.18043   0.01058   0.98441   0.00000  Uiso   1.00
C336   C     0.37070   0.80871   0.12784   0.00000  Uiso   1.00
C337   C     0.35457   0.72480   0.14656   0.00000  Uiso   1.00
C338   C     0.34951   0.68710   0.21997   0.00000  Uiso   1.00
C339   C     0.33434   0.61029   0.22492   0.00000  Uiso   1.00
C340   C     0.42145   0.80509   0.07298   0.00000  Uiso   1.00
C341   C     0.47262   0.83491   0.08452   0.00000  Uiso   1.00
C342   C     0.51376   0.82570   0.02752   0.00000  Uiso   1.00
C343   C     0.32379   0.84870   0.08055   0.00000  Uiso   1.00
C344   C     0.29285   0.91521   0.09844   0.00000  Uiso   1.00
C345   C     0.25177   0.94274   0.04779   0.00000  Uiso   1.00
H346   H     0.34518   0.70999   0.95462   0.00000  Uiso   1.00
H347   H     0.32213   0.58119   0.03409   0.00000  Uiso   1.00
H348   H     0.44522   0.72899   0.89866   0.00000  Uiso   1.00
H349   H     0.26548   0.80927   0.91258   0.00000  Uiso   1.00
H350   H     0.30090   0.45501   0.15137   0.00000  Uiso   1.00
H351   H     0.56044   0.76666   0.86579   0.00000  Uiso   1.00
H352   H     0.18142   0.93596   0.89513   0.00000  Uiso   1.00
H353   H     0.37828   0.83805   0.17932   0.00000  Uiso   1.00
H354   H     0.35705   0.71628   0.27113   0.00000  Uiso   1.00
H355   H     0.48014   0.86407   0.13569   0.00000  Uiso   1.00
H356   H     0.30040   0.94436   0.14961   0.00000  Uiso   1.00
H357   H     0.32924   0.56465   0.34375   0.00000  Uiso   1.00
H358   H     0.58878   0.87630   0.05817   0.00000  Uiso   1.00
H359   H     0.20976   0.04561   0.08751   0.00000  Uiso   1.00
O360   O     0.30052   0.42740   0.30390   0.00000  Uiso   1.00
O361   O     0.64103   0.83629   0.92922   0.00000  Uiso   1.00
O362   O     0.14376   0.05841   0.96772   0.00000  Uiso   1.00
N363   N     0.31047   0.49753   0.18405   0.00000  Uiso   1.00
N364   N     0.55313   0.78889   0.91705   0.00000  Uiso   1.00
N365   N     0.19879   0.94719   0.94447   0.00000  Uiso   1.00
N366   N     0.32572   0.55652   0.28757   0.00000  Uiso   1.00
N367   N     0.56838   0.84789   0.02057   0.00000  Uiso   1.00
N368   N     0.21404   0.00619   0.04799   0.00000  Uiso   1.00
C369   C     0.84016   0.38942   0.89837   0.00000  Uiso   1.00
C370   C     0.86421   0.35457   0.82585   0.00000  Uiso   1.00
C371   C     0.83585   0.34804   0.75886   0.00000  Uiso   1.00
C372   C     0.86522   0.31444   0.69893   0.00000  Uiso   1.00
C373   C     0.89410   0.26433   0.58526   0.00000  Uiso   1.00
C374   C     0.87798   0.45426   0.91360   0.00000  Uiso   1.00
C375   C     0.86119   0.53156   0.92039   0.00000  Uiso   1.00
C376   C     0.90214   0.58188   0.93433   0.00000  Uiso   1.00
C377   C     0.95239   0.68654   0.95695   0.00000  Uiso   1.00
C378   C     0.84858   0.32650   0.96437   0.00000  Uiso   1.00
C379   C     0.80708   0.29638   0.01386   0.00000  Uiso   1.00
C380   C     0.82328   0.23914   0.07057   0.00000  Uiso   1.00
C381   C     0.82789   0.14543   0.17201   0.00000  Uiso   1.00
C382   C     0.94274   0.34136   0.91108   0.00000  Uiso   1.00
C383   C     0.91993   0.32846   0.83275   0.00000  Uiso   1.00
C384   C     0.94934   0.29486   0.77291   0.00000  Uiso   1.00
C385   C     0.92103   0.28828   0.70584   0.00000  Uiso   1.00
C386   C     0.93369   0.42816   0.92050   0.00000  Uiso   1.00
C387   C     0.97468   0.47838   0.93444   0.00000  Uiso   1.00
C388   C     0.95796   0.55573   0.94125   0.00000  Uiso   1.00
C389   C     0.90430   0.30039   0.97127   0.00000  Uiso   1.00
C390   C     0.92057   0.24320   0.02791   0.00000  Uiso   1.00
C391   C     0.87910   0.21299   0.07748   0.00000  Uiso   1.00
H392   H     0.79678   0.40975   0.89300   0.00000  Uiso   1.00
H393   H     0.79274   0.36826   0.75353   0.00000  Uiso   1.00
H394   H     0.81807   0.55174   0.91505   0.00000  Uiso   1.00
H395   H     0.76397   0.31660   0.00851   0.00000  Uiso   1.00
H396   H     0.81283   0.31077   0.60195   0.00000  Uiso   1.00
H397   H     0.86624   0.69765   0.94253   0.00000  Uiso   1.00
H398   H     0.75215   0.20180   0.13961   0.00000  Uiso   1.00
H399   H     0.98612   0.32103   0.91645   0.00000  Uiso   1.00
H400   H     0.99246   0.27466   0.77827   0.00000  Uiso   1.00
H401   H     0.01779   0.45815   0.93978   0.00000  Uiso   1.00
H402   H     0.96369   0.22301   0.03324   0.00000  Uiso   1.00
H403   H     0.97493   0.23481   0.62202   0.00000  Uiso   1.00
H404   H     0.02834   0.62169   0.96261   0.00000  Uiso   1.00
H405   H     0.91426   0.12584   0.15968   0.00000  Uiso   1.00
O406   O     0.89464   0.24391   0.52065   0.00000  Uiso   1.00
O407   O     0.96471   0.75149   0.96751   0.00000  Uiso   1.00
O408   O     0.81503   0.10094   0.22605   0.00000  Uiso   1.00
N409   N     0.85011   0.29924   0.62564   0.00000  Uiso   1.00
N410   N     0.90004   0.66096   0.94406   0.00000  Uiso   1.00
N411   N     0.79338   0.19739   0.12832   0.00000  Uiso   1.00
N412   N     0.93733   0.25836   0.63644   0.00000  Uiso   1.00
N413   N     0.98727   0.62008   0.95486   0.00000  Uiso   1.00
N414   N     0.88061   0.15652   0.13912   0.00000  Uiso   1.00
C415   C     0.33682   0.76987   0.52011   0.00000  Uiso   1.00
C416   C     0.29797   0.76263   0.59132   0.00000  Uiso   1.00
C417   C     0.24444   0.73627   0.59363   0.00000  Uiso   1.00
C418   C     0.21564   0.73399   0.66436   0.00000  Uiso   1.00
C419   C     0.15168   0.71925   0.76488   0.00000  Uiso   1.00
C420   C     0.35297   0.85448   0.51086   0.00000  Uiso   1.00
C421   C     0.34568   0.90535   0.44550   0.00000  Uiso   1.00
C422   C     0.36319   0.98038   0.44851   0.00000  Uiso   1.00
C423   C     0.38464   0.10822   0.42409   0.00000  Uiso   1.00
C424   C     0.38971   0.72185   0.54143   0.00000  Uiso   1.00
C425   C     0.41332   0.66120   0.50178   0.00000  Uiso   1.00
C426   C     0.46177   0.62458   0.53052   0.00000  Uiso   1.00
C427   C     0.54027   0.54649   0.55357   0.00000  Uiso   1.00
C428   C     0.38089   0.81268   0.64164   0.00000  Uiso   1.00
C429   C     0.32191   0.78589   0.65733   0.00000  Uiso   1.00
C430   C     0.29319   0.78364   0.72808   0.00000  Uiso   1.00
C431   C     0.23962   0.75728   0.73049   0.00000  Uiso   1.00
C432   C     0.37690   0.87774   0.57686   0.00000  Uiso   1.00
C433   C     0.39443   0.95271   0.57996   0.00000  Uiso   1.00
C434   C     0.38717   0.00368   0.51463   0.00000  Uiso   1.00
C435   C     0.41365   0.74510   0.60744   0.00000  Uiso   1.00
C436   C     0.46208   0.70857   0.63624   0.00000  Uiso   1.00
C437   C     0.48576   0.64788   0.59664   0.00000  Uiso   1.00
H438   H     0.31818   0.75177   0.46872   0.00000  Uiso   1.00
H439   H     0.22592   0.71829   0.54253   0.00000  Uiso   1.00
H440   H     0.32715   0.88733   0.39443   0.00000  Uiso   1.00
H441   H     0.39479   0.64323   0.45070   0.00000  Uiso   1.00
H442   H     0.13419   0.69145   0.65346   0.00000  Uiso   1.00
H443   H     0.34765   0.04788   0.34118   0.00000  Uiso   1.00
H444   H     0.49027   0.53314   0.45984   0.00000  Uiso   1.00
H445   H     0.39953   0.83079   0.69303   0.00000  Uiso   1.00
H446   H     0.31173   0.80164   0.77915   0.00000  Uiso   1.00
H447   H     0.41296   0.97069   0.63105   0.00000  Uiso   1.00
H448   H     0.48059   0.72658   0.68732   0.00000  Uiso   1.00
H449   H     0.20383   0.75911   0.84552   0.00000  Uiso   1.00
H450   H     0.41730   0.11553   0.53323   0.00000  Uiso   1.00
H451   H     0.55991   0.60079   0.65189   0.00000  Uiso   1.00
O452   O     0.10978   0.70470   0.80209   0.00000  Uiso   1.00
O453   O     0.38985   0.17232   0.39238   0.00000  Uiso   1.00
O454   O     0.57695   0.49698   0.54806   0.00000  Uiso   1.00
N455   N     0.16263   0.71136   0.68685   0.00000  Uiso   1.00
N456   N     0.36220   0.04460   0.39489   0.00000  Uiso   1.00
N457   N     0.49554   0.56337   0.50581   0.00000  Uiso   1.00
N458   N     0.20011   0.74776   0.79019   0.00000  Uiso   1.00
N459   N     0.39968   0.08101   0.49823   0.00000  Uiso   1.00
N460   N     0.53302   0.59978   0.60915   0.00000  Uiso   1.00
C461   C     0.84217   0.39195   0.36674   0.00000  Uiso   1.00
C462   C     0.83570   0.46520   0.31180   0.00000  Uiso   1.00
C463   C     0.81881   0.46808   0.23615   0.00000  Uiso   1.00
C464   C     0.81552   0.54075   0.19541   0.00000  Uiso   1.00
C465   C     0.80351   0.64423   0.10496   0.00000  Uiso   1.00
C466   C     0.90193   0.38871   0.39322   0.00000  Uiso   1.00
C467   C     0.94071   0.32728   0.38603   0.00000  Uiso   1.00
C468   C     0.99317   0.33555   0.41384   0.00000  Uiso   1.00
C469   C     0.08396   0.32027   0.44984   0.00000  Uiso   1.00
C470   C     0.80547   0.40687   0.43782   0.00000  Uiso   1.00
C471   C     0.76315   0.36070   0.46815   0.00000  Uiso   1.00
C472   C     0.73441   0.38426   0.53353   0.00000  Uiso   1.00
C473   C     0.67543   0.39717   0.63877   0.00000  Uiso   1.00
C474   C     0.86638   0.51587   0.42894   0.00000  Uiso   1.00
C475   C     0.84885   0.53250   0.34559   0.00000  Uiso   1.00
C476   C     0.84559   0.60518   0.30496   0.00000  Uiso   1.00
C477   C     0.82870   0.60817   0.22926   0.00000  Uiso   1.00
C478   C     0.91508   0.45601   0.42700   0.00000  Uiso   1.00
C479   C     0.96749   0.46438   0.45484   0.00000  Uiso   1.00
C480   C     0.00635   0.40298   0.44769   0.00000  Uiso   1.00
C481   C     0.81861   0.47418   0.47160   0.00000  Uiso   1.00
C482   C     0.78994   0.49780   0.53696   0.00000  Uiso   1.00
C483   C     0.74758   0.45168   0.56737   0.00000  Uiso   1.00
H484   H     0.83193   0.33955   0.34044   0.00000  Uiso   1.00
H485   H     0.80864   0.41598   0.21002   0.00000  Uiso   1.00
H486   H     0.93052   0.27520   0.35989   0.00000  Uiso   1.00
H487   H     0.75299   0.30862   0.44199   0.00000  Uiso   1.00
H488   H     0.78864   0.53039   0.08032   0.00000  Uiso   1.00
H489   H     0.04562   0.23354   0.39634   0.00000  Uiso   1.00
H490   H     0.67126   0.30401   0.56947   0.00000  Uiso   1.00
H491   H     0.87662   0.56827   0.45524   0.00000  Uiso   1.00
H492   H     0.85577   0.65726   0.33112   0.00000  Uiso   1.00
H493   H     0.97765   0.51647   0.48098   0.00000  Uiso   1.00
H494   H     0.80012   0.54989   0.56308   0.00000  Uiso   1.00
H495   H     0.82689   0.72622   0.17860   0.00000  Uiso   1.00
H496   H     0.08388   0.42936   0.49463   0.00000  Uiso   1.00
H497   H     0.70952   0.49984   0.66775   0.00000  Uiso   1.00
O498   O     0.79327   0.68272   0.04573   0.00000  Uiso   1.00
O499   O     0.13041   0.29324   0.46035   0.00000  Uiso   1.00
O500   O     0.63926   0.38570   0.68749   0.00000  Uiso   1.00
N501   N     0.80049   0.56427   0.12049   0.00000  Uiso   1.00
N502   N     0.04075   0.28673   0.41594   0.00000  Uiso   1.00
N503   N     0.69077   0.35261   0.57781   0.00000  Uiso   1.00
N504   N     0.82107   0.66965   0.17337   0.00000  Uiso   1.00
N505   N     0.06134   0.39211   0.46882   0.00000  Uiso   1.00
N506   N     0.71136   0.45798   0.63070   0.00000  Uiso   1.00
C507   C     0.34654   0.27783   0.98263   0.00000  Uiso   1.00
C508   C     0.37031   0.20372   0.94930   0.00000  Uiso   1.00
C509   C     0.34095   0.13839   0.93935   0.00000  Uiso   1.00
C510   C     0.37022   0.07656   0.90792   0.00000  Uiso   1.00
C511   C     0.39853   0.96095   0.85936   0.00000  Uiso   1.00
C512   C     0.38226   0.28998   0.05079   0.00000  Uiso   1.00
C513   C     0.36293   0.29718   0.12615   0.00000  Uiso   1.00
C514   C     0.40226   0.30798   0.18015   0.00000  Uiso   1.00
C515   C     0.44911   0.32634   0.28914   0.00000  Uiso   1.00
C516   C     0.35844   0.34415   0.92168   0.00000  Uiso   1.00
C517   C     0.31911   0.39692   0.88851   0.00000  Uiso   1.00
C518   C     0.33839   0.45333   0.83382   0.00000  Uiso   1.00
C519   C     0.34827   0.55581   0.74235   0.00000  Uiso   1.00
C520   C     0.45073   0.28420   0.94451   0.00000  Uiso   1.00
C521   C     0.42690   0.20718   0.92860   0.00000  Uiso   1.00
C522   C     0.45623   0.14544   0.89718   0.00000  Uiso   1.00
C523   C     0.42691   0.08003   0.88718   0.00000  Uiso   1.00
C524   C     0.43885   0.29344   0.03009   0.00000  Uiso   1.00
C525   C     0.47821   0.30423   0.08399   0.00000  Uiso   1.00
C526   C     0.45896   0.31144   0.15942   0.00000  Uiso   1.00
C527   C     0.41504   0.34761   0.90098   0.00000  Uiso   1.00
C528   C     0.43439   0.40396   0.84634   0.00000  Uiso   1.00
C529   C     0.39508   0.45680   0.81308   0.00000  Uiso   1.00
H530   H     0.30248   0.27514   0.99875   0.00000  Uiso   1.00
H531   H     0.29715   0.13573   0.95538   0.00000  Uiso   1.00
H532   H     0.31914   0.29451   0.14215   0.00000  Uiso   1.00
H533   H     0.27532   0.39422   0.90454   0.00000  Uiso   1.00
H534   H     0.31621   0.98269   0.89820   0.00000  Uiso   1.00
H535   H     0.36256   0.31751   0.29202   0.00000  Uiso   1.00
H536   H     0.27016   0.52778   0.79096   0.00000  Uiso   1.00
H537   H     0.49479   0.28690   0.92840   0.00000  Uiso   1.00
H538   H     0.50002   0.14813   0.88117   0.00000  Uiso   1.00
H539   H     0.52200   0.30691   0.06795   0.00000  Uiso   1.00
H540   H     0.47818   0.40663   0.83033   0.00000  Uiso   1.00
H541   H     0.48087   0.99276   0.83797   0.00000  Uiso   1.00
H542   H     0.52722   0.32758   0.23179   0.00000  Uiso   1.00
H543   H     0.43482   0.53784   0.73073   0.00000  Uiso   1.00
O544   O     0.39852   0.89622   0.83831   0.00000  Uiso   1.00
O545   O     0.45932   0.33550   0.35498   0.00000  Uiso   1.00
O546   O     0.33809   0.61136   0.69760   0.00000  Uiso   1.00
N547   N     0.35424   0.00411   0.89049   0.00000  Uiso   1.00
N548   N     0.39758   0.31713   0.25869   0.00000  Uiso   1.00
N549   N     0.31119   0.51373   0.79026   0.00000  Uiso   1.00
N550   N     0.44285   0.00953   0.85808   0.00000  Uiso   1.00
N551   N     0.48618   0.32255   0.22628   0.00000  Uiso   1.00
N552   N     0.39979   0.51914   0.75785   0.00000  Uiso   1.00
