data_job_02713
_audit_creation_date              2018-12-19
_audit_creation_method            'Materials Studio'
_symmetry_space_group_name_H-M    'P1'
_symmetry_Int_Tables_number       1
_symmetry_cell_setting            triclinic
loop_
_symmetry_equiv_pos_as_xyz
  x,y,z
_cell_length_a                    17.3728
_cell_length_b                    26.4418
_cell_length_c                    14.2975
_cell_angle_alpha                 90.0000
_cell_angle_beta                  83.3024
_cell_angle_gamma                 90.0000
loop_
_atom_site_label
_atom_site_type_symbol
_atom_site_fract_x
_atom_site_fract_y
_atom_site_fract_z
_atom_site_U_iso_or_equiv
_atom_site_adp_type
_atom_site_occupancy
C1     C     0.77681   0.16625   0.20687   0.00000  Uiso   1.00
C2     C     0.71808   0.13292   0.16465   0.00000  Uiso   1.00
C3     C     0.63872   0.14117   0.17196   0.00000  Uiso   1.00
C4     C     0.59490   0.10631   0.12840   0.00000  Uiso   1.00
C5     C     0.49848   0.06087   0.07035   0.00000  Uiso   1.00
C6     C     0.81933   0.13166   0.26904   0.00000  Uiso   1.00
C7     C     0.82511   0.13886   0.36412   0.00000  Uiso   1.00
C8     C     0.86653   0.10294   0.40844   0.00000  Uiso   1.00
C9     C     0.92735   0.05558   0.51244   0.00000  Uiso   1.00
C10    C     0.83639   0.18167   0.12500   0.00000  Uiso   1.00
C11    C     0.85652   0.23092   0.09899   0.00000  Uiso   1.00
C12    C     0.91233   0.23711   0.02205   0.00000  Uiso   1.00
C13    C     0.99963   0.26739   0.90242   0.00000  Uiso   1.00
C14    C     0.84012   0.08966   0.11651   0.00000  Uiso   1.00
C15    C     0.75247   0.09132   0.11557   0.00000  Uiso   1.00
C16    C     0.70876   0.05644   0.07199   0.00000  Uiso   1.00
C17    C     0.62935   0.06464   0.07923   0.00000  Uiso   1.00
C18    C     0.85372   0.09007   0.21997   0.00000  Uiso   1.00
C19    C     0.89515   0.05413   0.26415   0.00000  Uiso   1.00
C20    C     0.90098   0.06127   0.35927   0.00000  Uiso   1.00
C21    C     0.87078   0.14008   0.07592   0.00000  Uiso   1.00
C22    C     0.92656   0.14619   0.99902   0.00000  Uiso   1.00
C23    C     0.94678   0.19544   0.97289   0.00000  Uiso   1.00
H24    H     0.75004   0.19863   0.24508   0.00000  Uiso   1.00
H25    H     0.61213   0.17336   0.20995   0.00000  Uiso   1.00
H26    H     0.79850   0.17106   0.40208   0.00000  Uiso   1.00
H27    H     0.82990   0.26310   0.13699   0.00000  Uiso   1.00
H28    H     0.47439   0.12699   0.14939   0.00000  Uiso   1.00
H29    H     0.86738   0.12214   0.55450   0.00000  Uiso   1.00
H30    H     0.93361   0.31624   0.99550   0.00000  Uiso   1.00
H31    H     0.86689   0.05728   0.07830   0.00000  Uiso   1.00
H32    H     0.73539   0.02425   0.03401   0.00000  Uiso   1.00
H33    H     0.92176   0.02195   0.22615   0.00000  Uiso   1.00
H34    H     0.95316   0.11399   0.96105   0.00000  Uiso   1.00
H35    H     0.57444   0.00597   0.00660   0.00000  Uiso   1.00
H36    H     0.96743   0.00112   0.41170   0.00000  Uiso   1.00
H37    H     0.03365   0.19521   0.85270   0.00000  Uiso   1.00
O38    O     0.43580   0.04730   0.05190   0.00000  Uiso   1.00
O39    O     0.95139   0.04094   0.58338   0.00000  Uiso   1.00
O40    O     0.03828   0.29559   0.84998   0.00000  Uiso   1.00
N41    N     0.51599   0.10305   0.12184   0.00000  Uiso   1.00
N42    N     0.88339   0.09851   0.50060   0.00000  Uiso   1.00
N43    N     0.94533   0.27997   0.97800   0.00000  Uiso   1.00
N44    N     0.56982   0.03793   0.04501   0.00000  Uiso   1.00
N45    N     0.93723   0.03339   0.42376   0.00000  Uiso   1.00
N46    N     0.99916   0.21485   0.90116   0.00000  Uiso   1.00
C47    C     0.27681   0.66625   0.20687   0.00000  Uiso   1.00
C48    C     0.21808   0.63292   0.16465   0.00000  Uiso   1.00
C49    C     0.13872   0.64117   0.17196   0.00000  Uiso   1.00
C50    C     0.09490   0.60631   0.12840   0.00000  Uiso   1.00
C51    C     0.99848   0.56087   0.07035   0.00000  Uiso   1.00
C52    C     0.31933   0.63166   0.26904   0.00000  Uiso   1.00
C53    C     0.32511   0.63886   0.36412   0.00000  Uiso   1.00
C54    C     0.36653   0.60294   0.40844   0.00000  Uiso   1.00
C55    C     0.42735   0.55558   0.51244   0.00000  Uiso   1.00
C56    C     0.33639   0.68167   0.12500   0.00000  Uiso   1.00
C57    C     0.35652   0.73092   0.09899   0.00000  Uiso   1.00
C58    C     0.41233   0.73711   0.02205   0.00000  Uiso   1.00
C59    C     0.49963   0.76739   0.90242   0.00000  Uiso   1.00
C60    C     0.34012   0.58966   0.11651   0.00000  Uiso   1.00
C61    C     0.25247   0.59132   0.11557   0.00000  Uiso   1.00
C62    C     0.20876   0.55644   0.07199   0.00000  Uiso   1.00
C63    C     0.12935   0.56464   0.07923   0.00000  Uiso   1.00
C64    C     0.35372   0.59007   0.21997   0.00000  Uiso   1.00
C65    C     0.39515   0.55413   0.26415   0.00000  Uiso   1.00
C66    C     0.40098   0.56127   0.35927   0.00000  Uiso   1.00
C67    C     0.37078   0.64008   0.07592   0.00000  Uiso   1.00
C68    C     0.42656   0.64619   0.99902   0.00000  Uiso   1.00
C69    C     0.44678   0.69544   0.97289   0.00000  Uiso   1.00
H70    H     0.25004   0.69863   0.24508   0.00000  Uiso   1.00
H71    H     0.11213   0.67336   0.20995   0.00000  Uiso   1.00
H72    H     0.29850   0.67106   0.40208   0.00000  Uiso   1.00
H73    H     0.32990   0.76310   0.13699   0.00000  Uiso   1.00
H74    H     0.97439   0.62699   0.14939   0.00000  Uiso   1.00
H75    H     0.36738   0.62214   0.55450   0.00000  Uiso   1.00
H76    H     0.43361   0.81624   0.99550   0.00000  Uiso   1.00
H77    H     0.36689   0.55728   0.07830   0.00000  Uiso   1.00
H78    H     0.23539   0.52425   0.03401   0.00000  Uiso   1.00
H79    H     0.42176   0.52195   0.22615   0.00000  Uiso   1.00
H80    H     0.45316   0.61399   0.96105   0.00000  Uiso   1.00
H81    H     0.07444   0.50597   0.00660   0.00000  Uiso   1.00
H82    H     0.46743   0.50112   0.41170   0.00000  Uiso   1.00
H83    H     0.53365   0.69521   0.85270   0.00000  Uiso   1.00
O84    O     0.93580   0.54730   0.05190   0.00000  Uiso   1.00
O85    O     0.45139   0.54094   0.58338   0.00000  Uiso   1.00
O86    O     0.53828   0.79559   0.84998   0.00000  Uiso   1.00
N87    N     0.01599   0.60305   0.12184   0.00000  Uiso   1.00
N88    N     0.38339   0.59851   0.50060   0.00000  Uiso   1.00
N89    N     0.44533   0.77997   0.97800   0.00000  Uiso   1.00
N90    N     0.06982   0.53793   0.04501   0.00000  Uiso   1.00
N91    N     0.43723   0.53339   0.42376   0.00000  Uiso   1.00
N92    N     0.49916   0.71485   0.90116   0.00000  Uiso   1.00
C93    C     0.22319   0.16625   0.29313   0.00000  Uiso   1.00
C94    C     0.28192   0.13292   0.33535   0.00000  Uiso   1.00
C95    C     0.36128   0.14117   0.32804   0.00000  Uiso   1.00
C96    C     0.40510   0.10631   0.37160   0.00000  Uiso   1.00
C97    C     0.50152   0.06087   0.42965   0.00000  Uiso   1.00
C98    C     0.18067   0.13166   0.23096   0.00000  Uiso   1.00
C99    C     0.17489   0.13886   0.13588   0.00000  Uiso   1.00
C100   C     0.13347   0.10294   0.09156   0.00000  Uiso   1.00
C101   C     0.07265   0.05558   0.98756   0.00000  Uiso   1.00
C102   C     0.16361   0.18167   0.37500   0.00000  Uiso   1.00
C103   C     0.14348   0.23092   0.40101   0.00000  Uiso   1.00
C104   C     0.08767   0.23711   0.47795   0.00000  Uiso   1.00
C105   C     0.00037   0.26739   0.59758   0.00000  Uiso   1.00
C106   C     0.15988   0.08966   0.38349   0.00000  Uiso   1.00
C107   C     0.24753   0.09132   0.38443   0.00000  Uiso   1.00
C108   C     0.29124   0.05644   0.42801   0.00000  Uiso   1.00
C109   C     0.37065   0.06464   0.42077   0.00000  Uiso   1.00
C110   C     0.14628   0.09007   0.28003   0.00000  Uiso   1.00
C111   C     0.10485   0.05413   0.23585   0.00000  Uiso   1.00
C112   C     0.09902   0.06127   0.14073   0.00000  Uiso   1.00
C113   C     0.12922   0.14008   0.42408   0.00000  Uiso   1.00
C114   C     0.07344   0.14619   0.50098   0.00000  Uiso   1.00
C115   C     0.05322   0.19544   0.52711   0.00000  Uiso   1.00
H116   H     0.24996   0.19863   0.25492   0.00000  Uiso   1.00
H117   H     0.38787   0.17336   0.29005   0.00000  Uiso   1.00
H118   H     0.20150   0.17106   0.09792   0.00000  Uiso   1.00
H119   H     0.17010   0.26310   0.36301   0.00000  Uiso   1.00
H120   H     0.52561   0.12699   0.35061   0.00000  Uiso   1.00
H121   H     0.13262   0.12214   0.94550   0.00000  Uiso   1.00
H122   H     0.06639   0.31624   0.50450   0.00000  Uiso   1.00
H123   H     0.13311   0.05728   0.42170   0.00000  Uiso   1.00
H124   H     0.26461   0.02425   0.46599   0.00000  Uiso   1.00
H125   H     0.07824   0.02195   0.27385   0.00000  Uiso   1.00
H126   H     0.04684   0.11399   0.53895   0.00000  Uiso   1.00
H127   H     0.42556   0.00597   0.49340   0.00000  Uiso   1.00
H128   H     0.03257   0.00112   0.08830   0.00000  Uiso   1.00
H129   H     0.96635   0.19521   0.64730   0.00000  Uiso   1.00
O130   O     0.56420   0.04730   0.44810   0.00000  Uiso   1.00
O131   O     0.04861   0.04094   0.91662   0.00000  Uiso   1.00
O132   O     0.96172   0.29559   0.65002   0.00000  Uiso   1.00
N133   N     0.48401   0.10305   0.37816   0.00000  Uiso   1.00
N134   N     0.11661   0.09851   0.99940   0.00000  Uiso   1.00
N135   N     0.05467   0.27997   0.52200   0.00000  Uiso   1.00
N136   N     0.43018   0.03793   0.45499   0.00000  Uiso   1.00
N137   N     0.06277   0.03339   0.07624   0.00000  Uiso   1.00
N138   N     0.00084   0.21485   0.59884   0.00000  Uiso   1.00
C139   C     0.72319   0.66625   0.29313   0.00000  Uiso   1.00
C140   C     0.78192   0.63292   0.33535   0.00000  Uiso   1.00
C141   C     0.86128   0.64117   0.32804   0.00000  Uiso   1.00
C142   C     0.90510   0.60631   0.37160   0.00000  Uiso   1.00
C143   C     0.00152   0.56087   0.42965   0.00000  Uiso   1.00
C144   C     0.68067   0.63166   0.23096   0.00000  Uiso   1.00
C145   C     0.67489   0.63886   0.13588   0.00000  Uiso   1.00
C146   C     0.63347   0.60294   0.09156   0.00000  Uiso   1.00
C147   C     0.57265   0.55558   0.98756   0.00000  Uiso   1.00
C148   C     0.66361   0.68167   0.37500   0.00000  Uiso   1.00
C149   C     0.64348   0.73092   0.40101   0.00000  Uiso   1.00
C150   C     0.58767   0.73711   0.47795   0.00000  Uiso   1.00
C151   C     0.50037   0.76739   0.59758   0.00000  Uiso   1.00
C152   C     0.65988   0.58966   0.38349   0.00000  Uiso   1.00
C153   C     0.74753   0.59132   0.38443   0.00000  Uiso   1.00
C154   C     0.79124   0.55644   0.42801   0.00000  Uiso   1.00
C155   C     0.87065   0.56464   0.42077   0.00000  Uiso   1.00
C156   C     0.64628   0.59007   0.28003   0.00000  Uiso   1.00
C157   C     0.60485   0.55413   0.23585   0.00000  Uiso   1.00
C158   C     0.59902   0.56127   0.14073   0.00000  Uiso   1.00
C159   C     0.62922   0.64008   0.42408   0.00000  Uiso   1.00
C160   C     0.57344   0.64619   0.50098   0.00000  Uiso   1.00
C161   C     0.55322   0.69544   0.52711   0.00000  Uiso   1.00
H162   H     0.74996   0.69863   0.25492   0.00000  Uiso   1.00
H163   H     0.88787   0.67336   0.29005   0.00000  Uiso   1.00
H164   H     0.70150   0.67106   0.09792   0.00000  Uiso   1.00
H165   H     0.67010   0.76310   0.36301   0.00000  Uiso   1.00
H166   H     0.02561   0.62699   0.35061   0.00000  Uiso   1.00
H167   H     0.63262   0.62214   0.94550   0.00000  Uiso   1.00
H168   H     0.56639   0.81624   0.50450   0.00000  Uiso   1.00
H169   H     0.63311   0.55728   0.42170   0.00000  Uiso   1.00
H170   H     0.76461   0.52425   0.46599   0.00000  Uiso   1.00
H171   H     0.57824   0.52195   0.27385   0.00000  Uiso   1.00
H172   H     0.54684   0.61399   0.53895   0.00000  Uiso   1.00
H173   H     0.92556   0.50597   0.49340   0.00000  Uiso   1.00
H174   H     0.53257   0.50112   0.08830   0.00000  Uiso   1.00
H175   H     0.46635   0.69521   0.64730   0.00000  Uiso   1.00
O176   O     0.06420   0.54730   0.44810   0.00000  Uiso   1.00
O177   O     0.54861   0.54094   0.91662   0.00000  Uiso   1.00
O178   O     0.46172   0.79559   0.65002   0.00000  Uiso   1.00
N179   N     0.98401   0.60305   0.37816   0.00000  Uiso   1.00
N180   N     0.61661   0.59851   0.99940   0.00000  Uiso   1.00
N181   N     0.55467   0.77997   0.52200   0.00000  Uiso   1.00
N182   N     0.93018   0.53793   0.45499   0.00000  Uiso   1.00
N183   N     0.56277   0.53339   0.07624   0.00000  Uiso   1.00
N184   N     0.50084   0.71485   0.59884   0.00000  Uiso   1.00
C185   C     0.22319   0.83375   0.79313   0.00000  Uiso   1.00
C186   C     0.28192   0.86708   0.83535   0.00000  Uiso   1.00
C187   C     0.36128   0.85883   0.82804   0.00000  Uiso   1.00
C188   C     0.40510   0.89369   0.87160   0.00000  Uiso   1.00
C189   C     0.50152   0.93913   0.92965   0.00000  Uiso   1.00
C190   C     0.18067   0.86834   0.73096   0.00000  Uiso   1.00
C191   C     0.17489   0.86114   0.63588   0.00000  Uiso   1.00
C192   C     0.13347   0.89706   0.59156   0.00000  Uiso   1.00
C193   C     0.07265   0.94442   0.48756   0.00000  Uiso   1.00
C194   C     0.16361   0.81833   0.87500   0.00000  Uiso   1.00
C195   C     0.14348   0.76908   0.90101   0.00000  Uiso   1.00
C196   C     0.08767   0.76289   0.97795   0.00000  Uiso   1.00
C197   C     0.00037   0.73261   0.09758   0.00000  Uiso   1.00
C198   C     0.15988   0.91034   0.88349   0.00000  Uiso   1.00
C199   C     0.24753   0.90868   0.88443   0.00000  Uiso   1.00
C200   C     0.29124   0.94356   0.92801   0.00000  Uiso   1.00
C201   C     0.37065   0.93536   0.92077   0.00000  Uiso   1.00
C202   C     0.14628   0.90993   0.78003   0.00000  Uiso   1.00
C203   C     0.10485   0.94587   0.73585   0.00000  Uiso   1.00
C204   C     0.09902   0.93873   0.64073   0.00000  Uiso   1.00
C205   C     0.12922   0.85992   0.92408   0.00000  Uiso   1.00
C206   C     0.07344   0.85381   0.00098   0.00000  Uiso   1.00
C207   C     0.05322   0.80456   0.02711   0.00000  Uiso   1.00
H208   H     0.24996   0.80137   0.75492   0.00000  Uiso   1.00
H209   H     0.38787   0.82664   0.79005   0.00000  Uiso   1.00
H210   H     0.20150   0.82894   0.59792   0.00000  Uiso   1.00
H211   H     0.17010   0.73690   0.86301   0.00000  Uiso   1.00
H212   H     0.52561   0.87301   0.85061   0.00000  Uiso   1.00
H213   H     0.13262   0.87786   0.44550   0.00000  Uiso   1.00
H214   H     0.06639   0.68376   0.00450   0.00000  Uiso   1.00
H215   H     0.13311   0.94272   0.92170   0.00000  Uiso   1.00
H216   H     0.26461   0.97575   0.96599   0.00000  Uiso   1.00
H217   H     0.07824   0.97805   0.77385   0.00000  Uiso   1.00
H218   H     0.04684   0.88601   0.03895   0.00000  Uiso   1.00
H219   H     0.42556   0.99403   0.99340   0.00000  Uiso   1.00
H220   H     0.03257   0.99888   0.58830   0.00000  Uiso   1.00
H221   H     0.96635   0.80479   0.14730   0.00000  Uiso   1.00
O222   O     0.56420   0.95270   0.94810   0.00000  Uiso   1.00
O223   O     0.04861   0.95906   0.41662   0.00000  Uiso   1.00
O224   O     0.96172   0.70441   0.15002   0.00000  Uiso   1.00
N225   N     0.48401   0.89695   0.87816   0.00000  Uiso   1.00
N226   N     0.11661   0.90149   0.49940   0.00000  Uiso   1.00
N227   N     0.05467   0.72003   0.02200   0.00000  Uiso   1.00
N228   N     0.43018   0.96207   0.95499   0.00000  Uiso   1.00
N229   N     0.06277   0.96661   0.57624   0.00000  Uiso   1.00
N230   N     0.00084   0.78515   0.09884   0.00000  Uiso   1.00
C231   C     0.72319   0.33375   0.79313   0.00000  Uiso   1.00
C232   C     0.78192   0.36708   0.83535   0.00000  Uiso   1.00
C233   C     0.86128   0.35883   0.82804   0.00000  Uiso   1.00
C234   C     0.90510   0.39369   0.87160   0.00000  Uiso   1.00
C235   C     0.00152   0.43913   0.92965   0.00000  Uiso   1.00
C236   C     0.68067   0.36834   0.73096   0.00000  Uiso   1.00
C237   C     0.67489   0.36114   0.63588   0.00000  Uiso   1.00
C238   C     0.63347   0.39706   0.59156   0.00000  Uiso   1.00
C239   C     0.57265   0.44442   0.48756   0.00000  Uiso   1.00
C240   C     0.66361   0.31833   0.87500   0.00000  Uiso   1.00
C241   C     0.64348   0.26908   0.90101   0.00000  Uiso   1.00
C242   C     0.58767   0.26289   0.97795   0.00000  Uiso   1.00
C243   C     0.50037   0.23261   0.09758   0.00000  Uiso   1.00
C244   C     0.65988   0.41034   0.88349   0.00000  Uiso   1.00
C245   C     0.74753   0.40868   0.88443   0.00000  Uiso   1.00
C246   C     0.79124   0.44356   0.92801   0.00000  Uiso   1.00
C247   C     0.87065   0.43536   0.92077   0.00000  Uiso   1.00
C248   C     0.64628   0.40993   0.78003   0.00000  Uiso   1.00
C249   C     0.60485   0.44587   0.73585   0.00000  Uiso   1.00
C250   C     0.59902   0.43873   0.64073   0.00000  Uiso   1.00
C251   C     0.62922   0.35992   0.92408   0.00000  Uiso   1.00
C252   C     0.57344   0.35381   0.00098   0.00000  Uiso   1.00
C253   C     0.55322   0.30456   0.02711   0.00000  Uiso   1.00
H254   H     0.74996   0.30137   0.75492   0.00000  Uiso   1.00
H255   H     0.88787   0.32664   0.79005   0.00000  Uiso   1.00
H256   H     0.70150   0.32894   0.59792   0.00000  Uiso   1.00
H257   H     0.67010   0.23690   0.86301   0.00000  Uiso   1.00
H258   H     0.02561   0.37301   0.85061   0.00000  Uiso   1.00
H259   H     0.63262   0.37786   0.44550   0.00000  Uiso   1.00
H260   H     0.56639   0.18376   0.00450   0.00000  Uiso   1.00
H261   H     0.63311   0.44272   0.92170   0.00000  Uiso   1.00
H262   H     0.76461   0.47575   0.96599   0.00000  Uiso   1.00
H263   H     0.57824   0.47805   0.77385   0.00000  Uiso   1.00
H264   H     0.54684   0.38601   0.03895   0.00000  Uiso   1.00
H265   H     0.92556   0.49403   0.99340   0.00000  Uiso   1.00
H266   H     0.53257   0.49888   0.58830   0.00000  Uiso   1.00
H267   H     0.46635   0.30479   0.14730   0.00000  Uiso   1.00
O268   O     0.06420   0.45270   0.94810   0.00000  Uiso   1.00
O269   O     0.54861   0.45906   0.41662   0.00000  Uiso   1.00
O270   O     0.46172   0.20441   0.15002   0.00000  Uiso   1.00
N271   N     0.98401   0.39695   0.87816   0.00000  Uiso   1.00
N272   N     0.61661   0.40149   0.49940   0.00000  Uiso   1.00
N273   N     0.55467   0.22003   0.02200   0.00000  Uiso   1.00
N274   N     0.93018   0.46207   0.95499   0.00000  Uiso   1.00
N275   N     0.56277   0.46661   0.57624   0.00000  Uiso   1.00
N276   N     0.50084   0.28515   0.09884   0.00000  Uiso   1.00
C277   C     0.77681   0.83375   0.70687   0.00000  Uiso   1.00
C278   C     0.71808   0.86708   0.66465   0.00000  Uiso   1.00
C279   C     0.63872   0.85883   0.67196   0.00000  Uiso   1.00
C280   C     0.59490   0.89369   0.62840   0.00000  Uiso   1.00
C281   C     0.49848   0.93913   0.57035   0.00000  Uiso   1.00
C282   C     0.81933   0.86834   0.76904   0.00000  Uiso   1.00
C283   C     0.82511   0.86114   0.86412   0.00000  Uiso   1.00
C284   C     0.86653   0.89706   0.90844   0.00000  Uiso   1.00
C285   C     0.92735   0.94442   0.01244   0.00000  Uiso   1.00
C286   C     0.83639   0.81833   0.62500   0.00000  Uiso   1.00
C287   C     0.85652   0.76908   0.59899   0.00000  Uiso   1.00
C288   C     0.91233   0.76289   0.52205   0.00000  Uiso   1.00
C289   C     0.99963   0.73261   0.40242   0.00000  Uiso   1.00
C290   C     0.84012   0.91034   0.61651   0.00000  Uiso   1.00
C291   C     0.75247   0.90868   0.61557   0.00000  Uiso   1.00
C292   C     0.70876   0.94356   0.57199   0.00000  Uiso   1.00
C293   C     0.62935   0.93536   0.57923   0.00000  Uiso   1.00
C294   C     0.85372   0.90993   0.71997   0.00000  Uiso   1.00
C295   C     0.89515   0.94587   0.76415   0.00000  Uiso   1.00
C296   C     0.90098   0.93873   0.85927   0.00000  Uiso   1.00
C297   C     0.87078   0.85992   0.57592   0.00000  Uiso   1.00
C298   C     0.92656   0.85381   0.49902   0.00000  Uiso   1.00
C299   C     0.94678   0.80456   0.47289   0.00000  Uiso   1.00
H300   H     0.75004   0.80137   0.74508   0.00000  Uiso   1.00
H301   H     0.61213   0.82664   0.70995   0.00000  Uiso   1.00
H302   H     0.79850   0.82894   0.90208   0.00000  Uiso   1.00
H303   H     0.82990   0.73690   0.63699   0.00000  Uiso   1.00
H304   H     0.47439   0.87301   0.64939   0.00000  Uiso   1.00
H305   H     0.86738   0.87786   0.05450   0.00000  Uiso   1.00
H306   H     0.93361   0.68376   0.49550   0.00000  Uiso   1.00
H307   H     0.86689   0.94272   0.57830   0.00000  Uiso   1.00
H308   H     0.73539   0.97575   0.53401   0.00000  Uiso   1.00
H309   H     0.92176   0.97805   0.72615   0.00000  Uiso   1.00
H310   H     0.95316   0.88601   0.46105   0.00000  Uiso   1.00
H311   H     0.57444   0.99403   0.50660   0.00000  Uiso   1.00
H312   H     0.96743   0.99888   0.91170   0.00000  Uiso   1.00
H313   H     0.03365   0.80479   0.35270   0.00000  Uiso   1.00
O314   O     0.43580   0.95270   0.55190   0.00000  Uiso   1.00
O315   O     0.95139   0.95906   0.08338   0.00000  Uiso   1.00
O316   O     0.03828   0.70441   0.34998   0.00000  Uiso   1.00
N317   N     0.51599   0.89695   0.62184   0.00000  Uiso   1.00
N318   N     0.88339   0.90149   0.00060   0.00000  Uiso   1.00
N319   N     0.94533   0.72003   0.47800   0.00000  Uiso   1.00
N320   N     0.56982   0.96207   0.54501   0.00000  Uiso   1.00
N321   N     0.93723   0.96661   0.92376   0.00000  Uiso   1.00
N322   N     0.99916   0.78515   0.40116   0.00000  Uiso   1.00
C323   C     0.27681   0.33375   0.70687   0.00000  Uiso   1.00
C324   C     0.21808   0.36708   0.66465   0.00000  Uiso   1.00
C325   C     0.13872   0.35883   0.67196   0.00000  Uiso   1.00
C326   C     0.09490   0.39369   0.62840   0.00000  Uiso   1.00
C327   C     0.99848   0.43913   0.57035   0.00000  Uiso   1.00
C328   C     0.31933   0.36834   0.76904   0.00000  Uiso   1.00
C329   C     0.32511   0.36114   0.86412   0.00000  Uiso   1.00
C330   C     0.36653   0.39706   0.90844   0.00000  Uiso   1.00
C331   C     0.42735   0.44442   0.01244   0.00000  Uiso   1.00
C332   C     0.33639   0.31833   0.62500   0.00000  Uiso   1.00
C333   C     0.35652   0.26908   0.59899   0.00000  Uiso   1.00
C334   C     0.41233   0.26289   0.52205   0.00000  Uiso   1.00
C335   C     0.49963   0.23261   0.40242   0.00000  Uiso   1.00
C336   C     0.34012   0.41034   0.61651   0.00000  Uiso   1.00
C337   C     0.25247   0.40868   0.61557   0.00000  Uiso   1.00
C338   C     0.20876   0.44356   0.57199   0.00000  Uiso   1.00
C339   C     0.12935   0.43536   0.57923   0.00000  Uiso   1.00
C340   C     0.35372   0.40993   0.71997   0.00000  Uiso   1.00
C341   C     0.39515   0.44587   0.76415   0.00000  Uiso   1.00
C342   C     0.40098   0.43873   0.85927   0.00000  Uiso   1.00
C343   C     0.37078   0.35992   0.57592   0.00000  Uiso   1.00
C344   C     0.42656   0.35381   0.49902   0.00000  Uiso   1.00
C345   C     0.44678   0.30456   0.47289   0.00000  Uiso   1.00
H346   H     0.25004   0.30137   0.74508   0.00000  Uiso   1.00
H347   H     0.11213   0.32664   0.70995   0.00000  Uiso   1.00
H348   H     0.29850   0.32894   0.90208   0.00000  Uiso   1.00
H349   H     0.32990   0.23690   0.63699   0.00000  Uiso   1.00
H350   H     0.97439   0.37301   0.64939   0.00000  Uiso   1.00
H351   H     0.36738   0.37786   0.05450   0.00000  Uiso   1.00
H352   H     0.43361   0.18376   0.49550   0.00000  Uiso   1.00
H353   H     0.36689   0.44272   0.57830   0.00000  Uiso   1.00
H354   H     0.23539   0.47575   0.53401   0.00000  Uiso   1.00
H355   H     0.42176   0.47805   0.72615   0.00000  Uiso   1.00
H356   H     0.45316   0.38601   0.46105   0.00000  Uiso   1.00
H357   H     0.07444   0.49403   0.50660   0.00000  Uiso   1.00
H358   H     0.46743   0.49888   0.91170   0.00000  Uiso   1.00
H359   H     0.53365   0.30479   0.35270   0.00000  Uiso   1.00
O360   O     0.93580   0.45270   0.55190   0.00000  Uiso   1.00
O361   O     0.45139   0.45906   0.08338   0.00000  Uiso   1.00
O362   O     0.53828   0.20441   0.34998   0.00000  Uiso   1.00
N363   N     0.01599   0.39695   0.62184   0.00000  Uiso   1.00
N364   N     0.38339   0.40149   0.00060   0.00000  Uiso   1.00
N365   N     0.44533   0.22003   0.47800   0.00000  Uiso   1.00
N366   N     0.06982   0.46207   0.54501   0.00000  Uiso   1.00
N367   N     0.43723   0.46661   0.92376   0.00000  Uiso   1.00
N368   N     0.49916   0.28515   0.40116   0.00000  Uiso   1.00
