data_job_04179
_audit_creation_date              2018-12-19
_audit_creation_method            'Materials Studio'
_symmetry_space_group_name_H-M    'P1'
_symmetry_Int_Tables_number       1
_symmetry_cell_setting            triclinic
loop_
_symmetry_equiv_pos_as_xyz
  x,y,z
_cell_length_a                    23.1895
_cell_length_b                    23.1895
_cell_length_c                    8.3828
_cell_angle_alpha                 90.0000
_cell_angle_beta                  90.0000
_cell_angle_gamma                 120.0000
loop_
_atom_site_label
_atom_site_type_symbol
_atom_site_fract_x
_atom_site_fract_y
_atom_site_fract_z
_atom_site_U_iso_or_equiv
_atom_site_adp_type
_atom_site_occupancy
C1     C     0.45993   0.30938   0.36290   0.00000  Uiso   1.00
C2     C     0.52503   0.35147   0.45274   0.00000  Uiso   1.00
C3     C     0.58694   0.36128   0.40821   0.00000  Uiso   1.00
C4     C     0.64040   0.40150   0.50637   0.00000  Uiso   1.00
C5     C     0.74273   0.46237   0.62497   0.00000  Uiso   1.00
C6     C     0.41207   0.25820   0.48233   0.00000  Uiso   1.00
C7     C     0.37900   0.18960   0.46266   0.00000  Uiso   1.00
C8     C     0.33736   0.15131   0.58573   0.00000  Uiso   1.00
C9     C     0.26428   0.06738   0.75021   0.00000  Uiso   1.00
C10    C     0.43230   0.35545   0.32737   0.00000  Uiso   1.00
C11    C     0.41622   0.36860   0.17741   0.00000  Uiso   1.00
C12    C     0.39159   0.41218   0.17002   0.00000  Uiso   1.00
C13    C     0.34992   0.47924   0.09391   0.00000  Uiso   1.00
C14    C     0.44476   0.36336   0.61643   0.00000  Uiso   1.00
C15    C     0.51679   0.38079   0.59046   0.00000  Uiso   1.00
C16    C     0.57017   0.42100   0.68871   0.00000  Uiso   1.00
C17    C     0.63215   0.43087   0.64432   0.00000  Uiso   1.00
C18    C     0.40383   0.28752   0.62004   0.00000  Uiso   1.00
C19    C     0.36223   0.24932   0.74316   0.00000  Uiso   1.00
C20    C     0.32911   0.18068   0.72369   0.00000  Uiso   1.00
C21    C     0.42406   0.38477   0.46508   0.00000  Uiso   1.00
C22    C     0.39945   0.42833   0.45792   0.00000  Uiso   1.00
C23    C     0.38334   0.44155   0.30798   0.00000  Uiso   1.00
H24    H     0.46633   0.28655   0.25569   0.00000  Uiso   1.00
H25    H     0.59329   0.33858   0.30163   0.00000  Uiso   1.00
H26    H     0.38538   0.16693   0.35607   0.00000  Uiso   1.00
H27    H     0.42260   0.34591   0.07087   0.00000  Uiso   1.00
H28    H     0.73041   0.40917   0.41333   0.00000  Uiso   1.00
H29    H     0.29200   0.04724   0.52809   0.00000  Uiso   1.00
H30    H     0.37048   0.42464   0.92669   0.00000  Uiso   1.00
H31    H     0.43835   0.38618   0.72365   0.00000  Uiso   1.00
H32    H     0.56378   0.44368   0.79527   0.00000  Uiso   1.00
H33    H     0.35586   0.27203   0.84971   0.00000  Uiso   1.00
H34    H     0.39308   0.45101   0.56451   0.00000  Uiso   1.00
H35    H     0.70646   0.49447   0.81399   0.00000  Uiso   1.00
H36    H     0.26804   0.13254   0.92874   0.00000  Uiso   1.00
H37    H     0.34652   0.50995   0.32735   0.00000  Uiso   1.00
O38    O     0.80145   0.48783   0.65236   0.00000  Uiso   1.00
O39    O     0.22625   0.01299   0.80290   0.00000  Uiso   1.00
O40    O     0.32922   0.50814   0.01388   0.00000  Uiso   1.00
N41    N     0.70756   0.42137   0.49778   0.00000  Uiso   1.00
N42    N     0.29768   0.08298   0.60508   0.00000  Uiso   1.00
N43    N     0.37104   0.43581   0.04283   0.00000  Uiso   1.00
N44    N     0.69468   0.46727   0.71337   0.00000  Uiso   1.00
N45    N     0.28479   0.12888   0.82067   0.00000  Uiso   1.00
N46    N     0.35815   0.48171   0.25842   0.00000  Uiso   1.00
C47    C     0.69062   0.15055   0.69623   0.00000  Uiso   1.00
C48    C     0.64853   0.17356   0.78608   0.00000  Uiso   1.00
C49    C     0.63872   0.22566   0.74154   0.00000  Uiso   1.00
C50    C     0.59850   0.23890   0.83970   0.00000  Uiso   1.00
C51    C     0.53763   0.28036   0.95831   0.00000  Uiso   1.00
C52    C     0.74180   0.15386   0.81567   0.00000  Uiso   1.00
C53    C     0.81040   0.18940   0.79599   0.00000  Uiso   1.00
C54    C     0.84869   0.18605   0.91906   0.00000  Uiso   1.00
C55    C     0.93262   0.19690   0.08355   0.00000  Uiso   1.00
C56    C     0.64455   0.07684   0.66071   0.00000  Uiso   1.00
C57    C     0.63140   0.04761   0.51074   0.00000  Uiso   1.00
C58    C     0.58782   0.97942   0.50335   0.00000  Uiso   1.00
C59    C     0.52076   0.87068   0.42724   0.00000  Uiso   1.00
C60    C     0.63664   0.08141   0.94977   0.00000  Uiso   1.00
C61    C     0.61921   0.13600   0.92379   0.00000  Uiso   1.00
C62    C     0.57900   0.14917   0.02204   0.00000  Uiso   1.00
C63    C     0.56913   0.20128   0.97766   0.00000  Uiso   1.00
C64    C     0.71248   0.11631   0.95337   0.00000  Uiso   1.00
C65    C     0.75068   0.11290   0.07650   0.00000  Uiso   1.00
C66    C     0.81932   0.14843   0.05702   0.00000  Uiso   1.00
C67    C     0.61523   0.03929   0.79842   0.00000  Uiso   1.00
C68    C     0.57167   0.97112   0.79125   0.00000  Uiso   1.00
C69    C     0.55845   0.94180   0.64131   0.00000  Uiso   1.00
H70    H     0.71345   0.17978   0.58902   0.00000  Uiso   1.00
H71    H     0.66142   0.25471   0.63496   0.00000  Uiso   1.00
H72    H     0.83307   0.21845   0.68940   0.00000  Uiso   1.00
H73    H     0.65409   0.07669   0.40421   0.00000  Uiso   1.00
H74    H     0.59083   0.32124   0.74666   0.00000  Uiso   1.00
H75    H     0.95276   0.24476   0.86142   0.00000  Uiso   1.00
H76    H     0.57536   0.94583   0.26002   0.00000  Uiso   1.00
H77    H     0.61382   0.05217   0.05698   0.00000  Uiso   1.00
H78    H     0.55632   0.12010   0.12861   0.00000  Uiso   1.00
H79    H     0.72797   0.08383   0.18304   0.00000  Uiso   1.00
H80    H     0.54899   0.94208   0.89785   0.00000  Uiso   1.00
H81    H     0.50553   0.21198   0.14732   0.00000  Uiso   1.00
H82    H     0.86746   0.13550   0.26208   0.00000  Uiso   1.00
H83    H     0.49005   0.83658   0.66068   0.00000  Uiso   1.00
O84    O     0.51217   0.31362   0.98569   0.00000  Uiso   1.00
O85    O     0.98701   0.21326   0.13623   0.00000  Uiso   1.00
O86    O     0.49186   0.82108   0.34722   0.00000  Uiso   1.00
N87    N     0.57863   0.28620   0.83111   0.00000  Uiso   1.00
N88    N     0.91702   0.21470   0.93842   0.00000  Uiso   1.00
N89    N     0.56419   0.93523   0.37616   0.00000  Uiso   1.00
N90    N     0.53273   0.22741   0.04670   0.00000  Uiso   1.00
N91    N     0.87112   0.15591   0.15401   0.00000  Uiso   1.00
N92    N     0.51829   0.87643   0.59175   0.00000  Uiso   1.00
C93    C     0.84945   0.54007   0.02956   0.00000  Uiso   1.00
C94    C     0.82644   0.47497   0.11941   0.00000  Uiso   1.00
C95    C     0.77434   0.41306   0.07487   0.00000  Uiso   1.00
C96    C     0.76110   0.35960   0.17304   0.00000  Uiso   1.00
C97    C     0.71964   0.25727   0.29164   0.00000  Uiso   1.00
C98    C     0.84614   0.58793   0.14900   0.00000  Uiso   1.00
C99    C     0.81060   0.62100   0.12932   0.00000  Uiso   1.00
C100   C     0.81395   0.66264   0.25239   0.00000  Uiso   1.00
C101   C     0.80310   0.73572   0.41688   0.00000  Uiso   1.00
C102   C     0.92316   0.56771   0.99404   0.00000  Uiso   1.00
C103   C     0.95239   0.58378   0.84408   0.00000  Uiso   1.00
C104   C     0.02058   0.60841   0.83669   0.00000  Uiso   1.00
C105   C     0.12932   0.65008   0.76057   0.00000  Uiso   1.00
C106   C     0.91859   0.55524   0.28310   0.00000  Uiso   1.00
C107   C     0.86400   0.48321   0.25712   0.00000  Uiso   1.00
C108   C     0.85083   0.42983   0.35538   0.00000  Uiso   1.00
C109   C     0.79872   0.36785   0.31099   0.00000  Uiso   1.00
C110   C     0.88369   0.59617   0.28671   0.00000  Uiso   1.00
C111   C     0.88710   0.63777   0.40983   0.00000  Uiso   1.00
C112   C     0.85157   0.67089   0.39035   0.00000  Uiso   1.00
C113   C     0.96071   0.57594   0.13175   0.00000  Uiso   1.00
C114   C     0.02888   0.60055   0.12459   0.00000  Uiso   1.00
C115   C     0.05820   0.61666   0.97464   0.00000  Uiso   1.00
H116   H     0.82022   0.53367   0.92236   0.00000  Uiso   1.00
H117   H     0.74529   0.40671   0.96830   0.00000  Uiso   1.00
H118   H     0.78155   0.61462   0.02274   0.00000  Uiso   1.00
H119   H     0.92331   0.57740   0.73754   0.00000  Uiso   1.00
H120   H     0.67876   0.26959   0.08000   0.00000  Uiso   1.00
H121   H     0.75524   0.70800   0.19475   0.00000  Uiso   1.00
H122   H     0.05417   0.62952   0.59336   0.00000  Uiso   1.00
H123   H     0.94783   0.56165   0.39032   0.00000  Uiso   1.00
H124   H     0.87990   0.43622   0.46194   0.00000  Uiso   1.00
H125   H     0.91617   0.64414   0.51638   0.00000  Uiso   1.00
H126   H     0.05792   0.60692   0.23118   0.00000  Uiso   1.00
H127   H     0.78802   0.29354   0.48066   0.00000  Uiso   1.00
H128   H     0.86450   0.73196   0.59541   0.00000  Uiso   1.00
H129   H     0.16342   0.65348   0.99402   0.00000  Uiso   1.00
O130   O     0.68638   0.19855   0.31903   0.00000  Uiso   1.00
O131   O     0.78674   0.77375   0.46957   0.00000  Uiso   1.00
O132   O     0.17892   0.67078   0.68055   0.00000  Uiso   1.00
N133   N     0.71380   0.29244   0.16444   0.00000  Uiso   1.00
N134   N     0.78530   0.70232   0.27175   0.00000  Uiso   1.00
N135   N     0.06477   0.62896   0.70950   0.00000  Uiso   1.00
N136   N     0.77259   0.30532   0.38004   0.00000  Uiso   1.00
N137   N     0.84409   0.71521   0.48734   0.00000  Uiso   1.00
N138   N     0.12357   0.64185   0.92509   0.00000  Uiso   1.00
C139   C     0.54007   0.69062   0.36290   0.00000  Uiso   1.00
C140   C     0.47497   0.64853   0.45274   0.00000  Uiso   1.00
C141   C     0.41306   0.63872   0.40821   0.00000  Uiso   1.00
C142   C     0.35960   0.59850   0.50637   0.00000  Uiso   1.00
C143   C     0.25727   0.53763   0.62497   0.00000  Uiso   1.00
C144   C     0.58793   0.74180   0.48233   0.00000  Uiso   1.00
C145   C     0.62100   0.81040   0.46266   0.00000  Uiso   1.00
C146   C     0.66264   0.84869   0.58573   0.00000  Uiso   1.00
C147   C     0.73572   0.93262   0.75021   0.00000  Uiso   1.00
C148   C     0.56770   0.64455   0.32737   0.00000  Uiso   1.00
C149   C     0.58378   0.63140   0.17741   0.00000  Uiso   1.00
C150   C     0.60841   0.58782   0.17002   0.00000  Uiso   1.00
C151   C     0.65008   0.52076   0.09391   0.00000  Uiso   1.00
C152   C     0.55524   0.63664   0.61643   0.00000  Uiso   1.00
C153   C     0.48321   0.61921   0.59046   0.00000  Uiso   1.00
C154   C     0.42983   0.57900   0.68871   0.00000  Uiso   1.00
C155   C     0.36785   0.56913   0.64432   0.00000  Uiso   1.00
C156   C     0.59617   0.71248   0.62004   0.00000  Uiso   1.00
C157   C     0.63777   0.75068   0.74316   0.00000  Uiso   1.00
C158   C     0.67089   0.81932   0.72369   0.00000  Uiso   1.00
C159   C     0.57594   0.61523   0.46508   0.00000  Uiso   1.00
C160   C     0.60055   0.57167   0.45792   0.00000  Uiso   1.00
C161   C     0.61666   0.55845   0.30798   0.00000  Uiso   1.00
H162   H     0.53367   0.71345   0.25569   0.00000  Uiso   1.00
H163   H     0.40671   0.66142   0.30163   0.00000  Uiso   1.00
H164   H     0.61462   0.83307   0.35607   0.00000  Uiso   1.00
H165   H     0.57740   0.65409   0.07087   0.00000  Uiso   1.00
H166   H     0.26959   0.59083   0.41333   0.00000  Uiso   1.00
H167   H     0.70800   0.95276   0.52809   0.00000  Uiso   1.00
H168   H     0.62952   0.57536   0.92669   0.00000  Uiso   1.00
H169   H     0.56165   0.61382   0.72365   0.00000  Uiso   1.00
H170   H     0.43622   0.55632   0.79527   0.00000  Uiso   1.00
H171   H     0.64414   0.72797   0.84971   0.00000  Uiso   1.00
H172   H     0.60692   0.54899   0.56451   0.00000  Uiso   1.00
H173   H     0.29354   0.50553   0.81399   0.00000  Uiso   1.00
H174   H     0.73196   0.86746   0.92874   0.00000  Uiso   1.00
H175   H     0.65348   0.49005   0.32735   0.00000  Uiso   1.00
O176   O     0.19855   0.51217   0.65236   0.00000  Uiso   1.00
O177   O     0.77375   0.98701   0.80290   0.00000  Uiso   1.00
O178   O     0.67078   0.49186   0.01388   0.00000  Uiso   1.00
N179   N     0.29244   0.57863   0.49778   0.00000  Uiso   1.00
N180   N     0.70232   0.91702   0.60508   0.00000  Uiso   1.00
N181   N     0.62896   0.56419   0.04283   0.00000  Uiso   1.00
N182   N     0.30532   0.53273   0.71337   0.00000  Uiso   1.00
N183   N     0.71521   0.87112   0.82067   0.00000  Uiso   1.00
N184   N     0.64185   0.51829   0.25842   0.00000  Uiso   1.00
C185   C     0.30938   0.84945   0.69623   0.00000  Uiso   1.00
C186   C     0.35147   0.82644   0.78608   0.00000  Uiso   1.00
C187   C     0.36128   0.77434   0.74154   0.00000  Uiso   1.00
C188   C     0.40150   0.76110   0.83970   0.00000  Uiso   1.00
C189   C     0.46237   0.71964   0.95831   0.00000  Uiso   1.00
C190   C     0.25820   0.84614   0.81567   0.00000  Uiso   1.00
C191   C     0.18960   0.81060   0.79599   0.00000  Uiso   1.00
C192   C     0.15131   0.81395   0.91906   0.00000  Uiso   1.00
C193   C     0.06738   0.80310   0.08355   0.00000  Uiso   1.00
C194   C     0.35545   0.92316   0.66071   0.00000  Uiso   1.00
C195   C     0.36860   0.95239   0.51074   0.00000  Uiso   1.00
C196   C     0.41218   0.02058   0.50335   0.00000  Uiso   1.00
C197   C     0.47924   0.12932   0.42724   0.00000  Uiso   1.00
C198   C     0.36336   0.91859   0.94977   0.00000  Uiso   1.00
C199   C     0.38079   0.86400   0.92379   0.00000  Uiso   1.00
C200   C     0.42100   0.85083   0.02204   0.00000  Uiso   1.00
C201   C     0.43087   0.79872   0.97766   0.00000  Uiso   1.00
C202   C     0.28752   0.88369   0.95337   0.00000  Uiso   1.00
C203   C     0.24932   0.88710   0.07650   0.00000  Uiso   1.00
C204   C     0.18068   0.85157   0.05702   0.00000  Uiso   1.00
C205   C     0.38477   0.96071   0.79842   0.00000  Uiso   1.00
C206   C     0.42833   0.02888   0.79125   0.00000  Uiso   1.00
C207   C     0.44155   0.05820   0.64131   0.00000  Uiso   1.00
H208   H     0.28655   0.82022   0.58902   0.00000  Uiso   1.00
H209   H     0.33858   0.74529   0.63496   0.00000  Uiso   1.00
H210   H     0.16693   0.78155   0.68940   0.00000  Uiso   1.00
H211   H     0.34591   0.92331   0.40421   0.00000  Uiso   1.00
H212   H     0.40917   0.67876   0.74666   0.00000  Uiso   1.00
H213   H     0.04724   0.75524   0.86142   0.00000  Uiso   1.00
H214   H     0.42464   0.05417   0.26002   0.00000  Uiso   1.00
H215   H     0.38618   0.94783   0.05698   0.00000  Uiso   1.00
H216   H     0.44368   0.87990   0.12861   0.00000  Uiso   1.00
H217   H     0.27203   0.91617   0.18304   0.00000  Uiso   1.00
H218   H     0.45101   0.05792   0.89785   0.00000  Uiso   1.00
H219   H     0.49447   0.78802   0.14732   0.00000  Uiso   1.00
H220   H     0.13254   0.86450   0.26208   0.00000  Uiso   1.00
H221   H     0.50995   0.16342   0.66068   0.00000  Uiso   1.00
O222   O     0.48783   0.68638   0.98569   0.00000  Uiso   1.00
O223   O     0.01299   0.78674   0.13623   0.00000  Uiso   1.00
O224   O     0.50814   0.17892   0.34722   0.00000  Uiso   1.00
N225   N     0.42137   0.71380   0.83111   0.00000  Uiso   1.00
N226   N     0.08298   0.78530   0.93842   0.00000  Uiso   1.00
N227   N     0.43581   0.06477   0.37616   0.00000  Uiso   1.00
N228   N     0.46727   0.77259   0.04670   0.00000  Uiso   1.00
N229   N     0.12888   0.84409   0.15401   0.00000  Uiso   1.00
N230   N     0.48171   0.12357   0.59175   0.00000  Uiso   1.00
C231   C     0.15055   0.45993   0.02956   0.00000  Uiso   1.00
C232   C     0.17356   0.52503   0.11941   0.00000  Uiso   1.00
C233   C     0.22566   0.58694   0.07487   0.00000  Uiso   1.00
C234   C     0.23890   0.64040   0.17304   0.00000  Uiso   1.00
C235   C     0.28036   0.74273   0.29164   0.00000  Uiso   1.00
C236   C     0.15386   0.41207   0.14900   0.00000  Uiso   1.00
C237   C     0.18940   0.37900   0.12932   0.00000  Uiso   1.00
C238   C     0.18605   0.33736   0.25239   0.00000  Uiso   1.00
C239   C     0.19690   0.26428   0.41688   0.00000  Uiso   1.00
C240   C     0.07684   0.43229   0.99404   0.00000  Uiso   1.00
C241   C     0.04761   0.41622   0.84408   0.00000  Uiso   1.00
C242   C     0.97942   0.39159   0.83669   0.00000  Uiso   1.00
C243   C     0.87068   0.34992   0.76057   0.00000  Uiso   1.00
C244   C     0.08141   0.44476   0.28310   0.00000  Uiso   1.00
C245   C     0.13600   0.51679   0.25712   0.00000  Uiso   1.00
C246   C     0.14917   0.57017   0.35538   0.00000  Uiso   1.00
C247   C     0.20128   0.63215   0.31099   0.00000  Uiso   1.00
C248   C     0.11631   0.40383   0.28671   0.00000  Uiso   1.00
C249   C     0.11290   0.36223   0.40983   0.00000  Uiso   1.00
C250   C     0.14843   0.32911   0.39035   0.00000  Uiso   1.00
C251   C     0.03929   0.42406   0.13175   0.00000  Uiso   1.00
C252   C     0.97112   0.39945   0.12459   0.00000  Uiso   1.00
C253   C     0.94180   0.38334   0.97464   0.00000  Uiso   1.00
H254   H     0.17978   0.46633   0.92236   0.00000  Uiso   1.00
H255   H     0.25471   0.59329   0.96830   0.00000  Uiso   1.00
H256   H     0.21845   0.38538   0.02274   0.00000  Uiso   1.00
H257   H     0.07669   0.42260   0.73754   0.00000  Uiso   1.00
H258   H     0.32124   0.73041   0.08000   0.00000  Uiso   1.00
H259   H     0.24476   0.29200   0.19475   0.00000  Uiso   1.00
H260   H     0.94583   0.37048   0.59336   0.00000  Uiso   1.00
H261   H     0.05217   0.43835   0.39032   0.00000  Uiso   1.00
H262   H     0.12010   0.56378   0.46194   0.00000  Uiso   1.00
H263   H     0.08383   0.35586   0.51638   0.00000  Uiso   1.00
H264   H     0.94208   0.39308   0.23118   0.00000  Uiso   1.00
H265   H     0.21198   0.70646   0.48066   0.00000  Uiso   1.00
H266   H     0.13550   0.26804   0.59541   0.00000  Uiso   1.00
H267   H     0.83658   0.34652   0.99402   0.00000  Uiso   1.00
O268   O     0.31362   0.80145   0.31903   0.00000  Uiso   1.00
O269   O     0.21326   0.22625   0.46957   0.00000  Uiso   1.00
O270   O     0.82108   0.32922   0.68055   0.00000  Uiso   1.00
N271   N     0.28620   0.70756   0.16444   0.00000  Uiso   1.00
N272   N     0.21470   0.29768   0.27175   0.00000  Uiso   1.00
N273   N     0.93523   0.37104   0.70950   0.00000  Uiso   1.00
N274   N     0.22741   0.69468   0.38004   0.00000  Uiso   1.00
N275   N     0.15591   0.28479   0.48734   0.00000  Uiso   1.00
N276   N     0.87643   0.35815   0.92509   0.00000  Uiso   1.00
