data_job_02714
_audit_creation_date              2018-12-19
_audit_creation_method            'Materials Studio'
_symmetry_space_group_name_H-M    'P1'
_symmetry_Int_Tables_number       1
_symmetry_cell_setting            triclinic
loop_
_symmetry_equiv_pos_as_xyz
  x,y,z
_cell_length_a                    23.7881
_cell_length_b                    23.7881
_cell_length_c                    11.8818
_cell_angle_alpha                 90.0000
_cell_angle_beta                  90.0000
_cell_angle_gamma                 120.0000
loop_
_atom_site_label
_atom_site_type_symbol
_atom_site_fract_x
_atom_site_fract_y
_atom_site_fract_z
_atom_site_U_iso_or_equiv
_atom_site_adp_type
_atom_site_occupancy
C1     C     0.40860   0.57830   0.58832   0.00000  Uiso   1.00
C2     C     0.40840   0.55965   0.46547   0.00000  Uiso   1.00
C3     C     0.46120   0.58761   0.39301   0.00000  Uiso   1.00
C4     C     0.45110   0.56374   0.28380   0.00000  Uiso   1.00
C5     C     0.46003   0.54242   0.09841   0.00000  Uiso   1.00
C6     C     0.35545   0.59604   0.59880   0.00000  Uiso   1.00
C7     C     0.36374   0.65459   0.63846   0.00000  Uiso   1.00
C8     C     0.30906   0.66134   0.64149   0.00000  Uiso   1.00
C9     C     0.23577   0.69650   0.66316   0.00000  Uiso   1.00
C10    C     0.38530   0.51609   0.65608   0.00000  Uiso   1.00
C11    C     0.41867   0.50742   0.74393   0.00000  Uiso   1.00
C12    C     0.38912   0.44686   0.79521   0.00000  Uiso   1.00
C13    C     0.36218   0.35788   0.90583   0.00000  Uiso   1.00
C14    C     0.29676   0.48619   0.52322   0.00000  Uiso   1.00
C15    C     0.34765   0.50962   0.43011   0.00000  Uiso   1.00
C16    C     0.33747   0.48570   0.32098   0.00000  Uiso   1.00
C17    C     0.39025   0.51362   0.24837   0.00000  Uiso   1.00
C18    C     0.29471   0.54601   0.56344   0.00000  Uiso   1.00
C19    C     0.24001   0.55268   0.56642   0.00000  Uiso   1.00
C20    C     0.24821   0.61122   0.60606   0.00000  Uiso   1.00
C21    C     0.32456   0.46606   0.62072   0.00000  Uiso   1.00
C22    C     0.29494   0.40551   0.67189   0.00000  Uiso   1.00
C23    C     0.32827   0.39674   0.75979   0.00000  Uiso   1.00
H24    H     0.45588   0.61725   0.61586   0.00000  Uiso   1.00
H25    H     0.50820   0.62633   0.42041   0.00000  Uiso   1.00
H26    H     0.41075   0.69329   0.66582   0.00000  Uiso   1.00
H27    H     0.46568   0.54614   0.77127   0.00000  Uiso   1.00
H28    H     0.53941   0.61435   0.18811   0.00000  Uiso   1.00
H29    H     0.33392   0.75554   0.70562   0.00000  Uiso   1.00
H30    H     0.44975   0.44524   0.92798   0.00000  Uiso   1.00
H31    H     0.24947   0.44724   0.49569   0.00000  Uiso   1.00
H32    H     0.29046   0.44699   0.29364   0.00000  Uiso   1.00
H33    H     0.19301   0.51395   0.53906   0.00000  Uiso   1.00
H34    H     0.24794   0.36680   0.64450   0.00000  Uiso   1.00
H35    H     0.36268   0.46879   0.08522   0.00000  Uiso   1.00
H36    H     0.15719   0.60998   0.60273   0.00000  Uiso   1.00
H37    H     0.27302   0.29968   0.82509   0.00000  Uiso   1.00
O38    O     0.48173   0.54449   0.00591   0.00000  Uiso   1.00
O39    O     0.21214   0.72971   0.68488   0.00000  Uiso   1.00
O40    O     0.36410   0.32261   0.97660   0.00000  Uiso   1.00
N41    N     0.49219   0.58012   0.19163   0.00000  Uiso   1.00
N42    N     0.30008   0.71212   0.67545   0.00000  Uiso   1.00
N43    N     0.40836   0.42203   0.88336   0.00000  Uiso   1.00
N44    N     0.39710   0.50179   0.13627   0.00000  Uiso   1.00
N45    N     0.20498   0.63380   0.62009   0.00000  Uiso   1.00
N46    N     0.31327   0.34370   0.82799   0.00000  Uiso   1.00
C47    C     0.42170   0.83030   0.92166   0.00000  Uiso   1.00
C48    C     0.44035   0.84874   0.79881   0.00000  Uiso   1.00
C49    C     0.41239   0.87359   0.72635   0.00000  Uiso   1.00
C50    C     0.43626   0.88736   0.61713   0.00000  Uiso   1.00
C51    C     0.45758   0.91760   0.43174   0.00000  Uiso   1.00
C52    C     0.40396   0.75941   0.93213   0.00000  Uiso   1.00
C53    C     0.34541   0.70915   0.97179   0.00000  Uiso   1.00
C54    C     0.33866   0.64772   0.97482   0.00000  Uiso   1.00
C55    C     0.30350   0.53928   0.99650   0.00000  Uiso   1.00
C56    C     0.48391   0.86921   0.98942   0.00000  Uiso   1.00
C57    C     0.49258   0.91126   0.07726   0.00000  Uiso   1.00
C58    C     0.55314   0.94226   0.12855   0.00000  Uiso   1.00
C59    C     0.64212   0.00430   0.23916   0.00000  Uiso   1.00
C60    C     0.51381   0.81057   0.85655   0.00000  Uiso   1.00
C61    C     0.49038   0.83803   0.76345   0.00000  Uiso   1.00
C62    C     0.51430   0.85177   0.65432   0.00000  Uiso   1.00
C63    C     0.48638   0.87663   0.58171   0.00000  Uiso   1.00
C64    C     0.45399   0.74870   0.89677   0.00000  Uiso   1.00
C65    C     0.44732   0.68733   0.89976   0.00000  Uiso   1.00
C66    C     0.38878   0.63698   0.93940   0.00000  Uiso   1.00
C67    C     0.53394   0.85850   0.95405   0.00000  Uiso   1.00
C68    C     0.59449   0.88944   0.00522   0.00000  Uiso   1.00
C69    C     0.60326   0.93153   0.09312   0.00000  Uiso   1.00
H70    H     0.38275   0.83863   0.94919   0.00000  Uiso   1.00
H71    H     0.37367   0.88187   0.75374   0.00000  Uiso   1.00
H72    H     0.30671   0.71745   0.99916   0.00000  Uiso   1.00
H73    H     0.45386   0.91953   0.10460   0.00000  Uiso   1.00
H74    H     0.38565   0.92506   0.52145   0.00000  Uiso   1.00
H75    H     0.24446   0.57838   0.03895   0.00000  Uiso   1.00
H76    H     0.55476   0.00451   0.26131   0.00000  Uiso   1.00
H77    H     0.55276   0.80223   0.82902   0.00000  Uiso   1.00
H78    H     0.55301   0.84347   0.62697   0.00000  Uiso   1.00
H79    H     0.48605   0.67905   0.87239   0.00000  Uiso   1.00
H80    H     0.63320   0.88114   0.97783   0.00000  Uiso   1.00
H81    H     0.53121   0.89389   0.41855   0.00000  Uiso   1.00
H82    H     0.39002   0.54721   0.93606   0.00000  Uiso   1.00
H83    H     0.70032   0.97334   0.15842   0.00000  Uiso   1.00
O84    O     0.45551   0.93724   0.33924   0.00000  Uiso   1.00
O85    O     0.27029   0.48242   0.01821   0.00000  Uiso   1.00
O86    O     0.67739   0.04149   0.30994   0.00000  Uiso   1.00
N87    N     0.41988   0.91207   0.52496   0.00000  Uiso   1.00
N88    N     0.28788   0.58795   0.00878   0.00000  Uiso   1.00
N89    N     0.57797   0.98633   0.21669   0.00000  Uiso   1.00
N90    N     0.49821   0.89530   0.46960   0.00000  Uiso   1.00
N91    N     0.36620   0.57118   0.95342   0.00000  Uiso   1.00
N92    N     0.65630   0.96956   0.16133   0.00000  Uiso   1.00
C93    C     0.16970   0.59140   0.25499   0.00000  Uiso   1.00
C94    C     0.15126   0.59160   0.13214   0.00000  Uiso   1.00
C95    C     0.12641   0.53880   0.05968   0.00000  Uiso   1.00
C96    C     0.11264   0.54890   0.95047   0.00000  Uiso   1.00
C97    C     0.08240   0.53997   0.76507   0.00000  Uiso   1.00
C98    C     0.24059   0.64455   0.26547   0.00000  Uiso   1.00
C99    C     0.29085   0.63626   0.30512   0.00000  Uiso   1.00
C100   C     0.35228   0.69094   0.30816   0.00000  Uiso   1.00
C101   C     0.46072   0.76423   0.32983   0.00000  Uiso   1.00
C102   C     0.13079   0.61470   0.32275   0.00000  Uiso   1.00
C103   C     0.08874   0.58133   0.41060   0.00000  Uiso   1.00
C104   C     0.05774   0.61088   0.46188   0.00000  Uiso   1.00
C105   C     0.99570   0.63782   0.57250   0.00000  Uiso   1.00
C106   C     0.18943   0.70324   0.18989   0.00000  Uiso   1.00
C107   C     0.16197   0.65235   0.09678   0.00000  Uiso   1.00
C108   C     0.14823   0.66253   0.98765   0.00000  Uiso   1.00
C109   C     0.12337   0.60975   0.91504   0.00000  Uiso   1.00
C110   C     0.25130   0.70529   0.23010   0.00000  Uiso   1.00
C111   C     0.31267   0.75999   0.23309   0.00000  Uiso   1.00
C112   C     0.36302   0.75179   0.27273   0.00000  Uiso   1.00
C113   C     0.14150   0.67544   0.28739   0.00000  Uiso   1.00
C114   C     0.11056   0.70506   0.33855   0.00000  Uiso   1.00
C115   C     0.06847   0.67173   0.42645   0.00000  Uiso   1.00
H116   H     0.16137   0.54412   0.28253   0.00000  Uiso   1.00
H117   H     0.11813   0.49180   0.08708   0.00000  Uiso   1.00
H118   H     0.28255   0.58925   0.33249   0.00000  Uiso   1.00
H119   H     0.08047   0.53432   0.43794   0.00000  Uiso   1.00
H120   H     0.07494   0.46059   0.85478   0.00000  Uiso   1.00
H121   H     0.42162   0.66608   0.37228   0.00000  Uiso   1.00
H122   H     0.99549   0.55025   0.59465   0.00000  Uiso   1.00
H123   H     0.19777   0.75053   0.16236   0.00000  Uiso   1.00
H124   H     0.15653   0.70954   0.96031   0.00000  Uiso   1.00
H125   H     0.32095   0.80699   0.20572   0.00000  Uiso   1.00
H126   H     0.11886   0.75206   0.31117   0.00000  Uiso   1.00
H127   H     0.10611   0.63732   0.75189   0.00000  Uiso   1.00
H128   H     0.45279   0.84281   0.26940   0.00000  Uiso   1.00
H129   H     0.02666   0.72698   0.49175   0.00000  Uiso   1.00
O130   O     0.06276   0.51827   0.67258   0.00000  Uiso   1.00
O131   O     0.51758   0.78786   0.35155   0.00000  Uiso   1.00
O132   O     0.95851   0.63590   0.64327   0.00000  Uiso   1.00
N133   N     0.08793   0.50781   0.85830   0.00000  Uiso   1.00
N134   N     0.41205   0.69992   0.34212   0.00000  Uiso   1.00
N135   N     0.01367   0.59164   0.55003   0.00000  Uiso   1.00
N136   N     0.10470   0.60290   0.80293   0.00000  Uiso   1.00
N137   N     0.42882   0.79502   0.28675   0.00000  Uiso   1.00
N138   N     0.03044   0.68673   0.49466   0.00000  Uiso   1.00
C139   C     0.59140   0.42170   0.58832   0.00000  Uiso   1.00
C140   C     0.59160   0.44035   0.46547   0.00000  Uiso   1.00
C141   C     0.53880   0.41239   0.39301   0.00000  Uiso   1.00
C142   C     0.54890   0.43626   0.28380   0.00000  Uiso   1.00
C143   C     0.53997   0.45758   0.09841   0.00000  Uiso   1.00
C144   C     0.64455   0.40396   0.59880   0.00000  Uiso   1.00
C145   C     0.63626   0.34541   0.63846   0.00000  Uiso   1.00
C146   C     0.69094   0.33866   0.64149   0.00000  Uiso   1.00
C147   C     0.76423   0.30350   0.66316   0.00000  Uiso   1.00
C148   C     0.61470   0.48391   0.65608   0.00000  Uiso   1.00
C149   C     0.58133   0.49258   0.74393   0.00000  Uiso   1.00
C150   C     0.61088   0.55314   0.79521   0.00000  Uiso   1.00
C151   C     0.63782   0.64212   0.90583   0.00000  Uiso   1.00
C152   C     0.70324   0.51381   0.52322   0.00000  Uiso   1.00
C153   C     0.65235   0.49038   0.43011   0.00000  Uiso   1.00
C154   C     0.66253   0.51430   0.32098   0.00000  Uiso   1.00
C155   C     0.60975   0.48638   0.24837   0.00000  Uiso   1.00
C156   C     0.70529   0.45399   0.56344   0.00000  Uiso   1.00
C157   C     0.75999   0.44732   0.56642   0.00000  Uiso   1.00
C158   C     0.75179   0.38878   0.60606   0.00000  Uiso   1.00
C159   C     0.67544   0.53394   0.62072   0.00000  Uiso   1.00
C160   C     0.70506   0.59449   0.67189   0.00000  Uiso   1.00
C161   C     0.67173   0.60326   0.75979   0.00000  Uiso   1.00
H162   H     0.54412   0.38275   0.61586   0.00000  Uiso   1.00
H163   H     0.49180   0.37367   0.42041   0.00000  Uiso   1.00
H164   H     0.58925   0.30671   0.66582   0.00000  Uiso   1.00
H165   H     0.53432   0.45386   0.77127   0.00000  Uiso   1.00
H166   H     0.46059   0.38565   0.18811   0.00000  Uiso   1.00
H167   H     0.66608   0.24446   0.70562   0.00000  Uiso   1.00
H168   H     0.55025   0.55476   0.92798   0.00000  Uiso   1.00
H169   H     0.75053   0.55276   0.49569   0.00000  Uiso   1.00
H170   H     0.70954   0.55301   0.29364   0.00000  Uiso   1.00
H171   H     0.80699   0.48605   0.53906   0.00000  Uiso   1.00
H172   H     0.75206   0.63320   0.64450   0.00000  Uiso   1.00
H173   H     0.63732   0.53121   0.08522   0.00000  Uiso   1.00
H174   H     0.84281   0.39002   0.60273   0.00000  Uiso   1.00
H175   H     0.72698   0.70032   0.82509   0.00000  Uiso   1.00
O176   O     0.51827   0.45551   0.00591   0.00000  Uiso   1.00
O177   O     0.78786   0.27029   0.68488   0.00000  Uiso   1.00
O178   O     0.63590   0.67739   0.97660   0.00000  Uiso   1.00
N179   N     0.50781   0.41988   0.19163   0.00000  Uiso   1.00
N180   N     0.69992   0.28788   0.67545   0.00000  Uiso   1.00
N181   N     0.59164   0.57797   0.88336   0.00000  Uiso   1.00
N182   N     0.60290   0.49821   0.13627   0.00000  Uiso   1.00
N183   N     0.79502   0.36620   0.62009   0.00000  Uiso   1.00
N184   N     0.68673   0.65630   0.82799   0.00000  Uiso   1.00
C185   C     0.57830   0.16970   0.92166   0.00000  Uiso   1.00
C186   C     0.55965   0.15126   0.79881   0.00000  Uiso   1.00
C187   C     0.58761   0.12641   0.72635   0.00000  Uiso   1.00
C188   C     0.56374   0.11264   0.61713   0.00000  Uiso   1.00
C189   C     0.54242   0.08240   0.43174   0.00000  Uiso   1.00
C190   C     0.59604   0.24059   0.93213   0.00000  Uiso   1.00
C191   C     0.65459   0.29085   0.97179   0.00000  Uiso   1.00
C192   C     0.66134   0.35228   0.97482   0.00000  Uiso   1.00
C193   C     0.69650   0.46072   0.99650   0.00000  Uiso   1.00
C194   C     0.51609   0.13079   0.98942   0.00000  Uiso   1.00
C195   C     0.50742   0.08874   0.07726   0.00000  Uiso   1.00
C196   C     0.44686   0.05774   0.12855   0.00000  Uiso   1.00
C197   C     0.35788   0.99570   0.23916   0.00000  Uiso   1.00
C198   C     0.48619   0.18943   0.85655   0.00000  Uiso   1.00
C199   C     0.50962   0.16197   0.76345   0.00000  Uiso   1.00
C200   C     0.48570   0.14823   0.65432   0.00000  Uiso   1.00
C201   C     0.51362   0.12337   0.58171   0.00000  Uiso   1.00
C202   C     0.54601   0.25130   0.89677   0.00000  Uiso   1.00
C203   C     0.55268   0.31267   0.89976   0.00000  Uiso   1.00
C204   C     0.61122   0.36302   0.93940   0.00000  Uiso   1.00
C205   C     0.46606   0.14150   0.95405   0.00000  Uiso   1.00
C206   C     0.40551   0.11056   0.00522   0.00000  Uiso   1.00
C207   C     0.39674   0.06847   0.09312   0.00000  Uiso   1.00
H208   H     0.61725   0.16137   0.94919   0.00000  Uiso   1.00
H209   H     0.62633   0.11813   0.75374   0.00000  Uiso   1.00
H210   H     0.69329   0.28255   0.99916   0.00000  Uiso   1.00
H211   H     0.54614   0.08047   0.10460   0.00000  Uiso   1.00
H212   H     0.61435   0.07494   0.52145   0.00000  Uiso   1.00
H213   H     0.75554   0.42162   0.03895   0.00000  Uiso   1.00
H214   H     0.44524   0.99549   0.26131   0.00000  Uiso   1.00
H215   H     0.44724   0.19777   0.82902   0.00000  Uiso   1.00
H216   H     0.44699   0.15653   0.62697   0.00000  Uiso   1.00
H217   H     0.51395   0.32095   0.87239   0.00000  Uiso   1.00
H218   H     0.36680   0.11886   0.97783   0.00000  Uiso   1.00
H219   H     0.46879   0.10611   0.41855   0.00000  Uiso   1.00
H220   H     0.60998   0.45279   0.93606   0.00000  Uiso   1.00
H221   H     0.29968   0.02666   0.15842   0.00000  Uiso   1.00
O222   O     0.54449   0.06276   0.33924   0.00000  Uiso   1.00
O223   O     0.72971   0.51758   0.01821   0.00000  Uiso   1.00
O224   O     0.32261   0.95851   0.30994   0.00000  Uiso   1.00
N225   N     0.58012   0.08793   0.52496   0.00000  Uiso   1.00
N226   N     0.71212   0.41205   0.00878   0.00000  Uiso   1.00
N227   N     0.42203   0.01367   0.21669   0.00000  Uiso   1.00
N228   N     0.50179   0.10470   0.46960   0.00000  Uiso   1.00
N229   N     0.63380   0.42882   0.95342   0.00000  Uiso   1.00
N230   N     0.34370   0.03044   0.16133   0.00000  Uiso   1.00
C231   C     0.83030   0.40860   0.25499   0.00000  Uiso   1.00
C232   C     0.84874   0.40840   0.13214   0.00000  Uiso   1.00
C233   C     0.87359   0.46120   0.05968   0.00000  Uiso   1.00
C234   C     0.88736   0.45110   0.95047   0.00000  Uiso   1.00
C235   C     0.91760   0.46003   0.76507   0.00000  Uiso   1.00
C236   C     0.75941   0.35545   0.26547   0.00000  Uiso   1.00
C237   C     0.70915   0.36374   0.30512   0.00000  Uiso   1.00
C238   C     0.64772   0.30906   0.30816   0.00000  Uiso   1.00
C239   C     0.53928   0.23577   0.32983   0.00000  Uiso   1.00
C240   C     0.86921   0.38530   0.32275   0.00000  Uiso   1.00
C241   C     0.91126   0.41867   0.41060   0.00000  Uiso   1.00
C242   C     0.94226   0.38912   0.46188   0.00000  Uiso   1.00
C243   C     0.00430   0.36218   0.57250   0.00000  Uiso   1.00
C244   C     0.81057   0.29676   0.18989   0.00000  Uiso   1.00
C245   C     0.83803   0.34765   0.09678   0.00000  Uiso   1.00
C246   C     0.85177   0.33747   0.98765   0.00000  Uiso   1.00
C247   C     0.87663   0.39025   0.91504   0.00000  Uiso   1.00
C248   C     0.74870   0.29471   0.23010   0.00000  Uiso   1.00
C249   C     0.68733   0.24001   0.23309   0.00000  Uiso   1.00
C250   C     0.63698   0.24821   0.27273   0.00000  Uiso   1.00
C251   C     0.85850   0.32456   0.28739   0.00000  Uiso   1.00
C252   C     0.88944   0.29494   0.33855   0.00000  Uiso   1.00
C253   C     0.93153   0.32827   0.42645   0.00000  Uiso   1.00
H254   H     0.83863   0.45588   0.28253   0.00000  Uiso   1.00
H255   H     0.88187   0.50820   0.08708   0.00000  Uiso   1.00
H256   H     0.71745   0.41075   0.33249   0.00000  Uiso   1.00
H257   H     0.91953   0.46568   0.43794   0.00000  Uiso   1.00
H258   H     0.92506   0.53941   0.85478   0.00000  Uiso   1.00
H259   H     0.57838   0.33392   0.37228   0.00000  Uiso   1.00
H260   H     0.00451   0.44975   0.59465   0.00000  Uiso   1.00
H261   H     0.80223   0.24947   0.16236   0.00000  Uiso   1.00
H262   H     0.84347   0.29046   0.96031   0.00000  Uiso   1.00
H263   H     0.67905   0.19301   0.20572   0.00000  Uiso   1.00
H264   H     0.88114   0.24794   0.31117   0.00000  Uiso   1.00
H265   H     0.89389   0.36268   0.75189   0.00000  Uiso   1.00
H266   H     0.54721   0.15719   0.26940   0.00000  Uiso   1.00
H267   H     0.97334   0.27302   0.49175   0.00000  Uiso   1.00
O268   O     0.93724   0.48173   0.67258   0.00000  Uiso   1.00
O269   O     0.48242   0.21214   0.35155   0.00000  Uiso   1.00
O270   O     0.04149   0.36410   0.64327   0.00000  Uiso   1.00
N271   N     0.91207   0.49219   0.85830   0.00000  Uiso   1.00
N272   N     0.58795   0.30008   0.34212   0.00000  Uiso   1.00
N273   N     0.98633   0.40836   0.55003   0.00000  Uiso   1.00
N274   N     0.89530   0.39710   0.80293   0.00000  Uiso   1.00
N275   N     0.57118   0.20498   0.28675   0.00000  Uiso   1.00
N276   N     0.96956   0.31327   0.49466   0.00000  Uiso   1.00
