data_job_00772
_audit_creation_date              2018-12-19
_audit_creation_method            'Materials Studio'
_symmetry_space_group_name_H-M    'P1'
_symmetry_Int_Tables_number       1
_symmetry_cell_setting            triclinic
loop_
_symmetry_equiv_pos_as_xyz
  x,y,z
_cell_length_a                    28.1687
_cell_length_b                    14.6316
_cell_length_c                    11.6649
_cell_angle_alpha                 90.0000
_cell_angle_beta                  98.3572
_cell_angle_gamma                 90.0000
loop_
_atom_site_label
_atom_site_type_symbol
_atom_site_fract_x
_atom_site_fract_y
_atom_site_fract_z
_atom_site_U_iso_or_equiv
_atom_site_adp_type
_atom_site_occupancy
C1     C     0.64118   0.19693   0.14159   0.00000  Uiso   1.00
C2     C     0.61842   0.25649   0.04113   0.00000  Uiso   1.00
C3     C     0.60775   0.22908   0.92638   0.00000  Uiso   1.00
C4     C     0.58701   0.29375   0.84747   0.00000  Uiso   1.00
C5     C     0.55317   0.37273   0.68618   0.00000  Uiso   1.00
C6     C     0.68617   0.24745   0.19642   0.00000  Uiso   1.00
C7     C     0.73244   0.21242   0.21225   0.00000  Uiso   1.00
C8     C     0.76873   0.26949   0.26409   0.00000  Uiso   1.00
C9     C     0.84006   0.33440   0.34397   0.00000  Uiso   1.00
C10    C     0.60673   0.19898   0.23103   0.00000  Uiso   1.00
C11    C     0.58623   0.12320   0.27599   0.00000  Uiso   1.00
C12    C     0.55565   0.13945   0.35699   0.00000  Uiso   1.00
C13    C     0.50364   0.12910   0.49061   0.00000  Uiso   1.00
C14    C     0.62334   0.36054   0.20551   0.00000  Uiso   1.00
C15    C     0.60873   0.34536   0.07584   0.00000  Uiso   1.00
C16    C     0.58800   0.41009   0.99709   0.00000  Uiso   1.00
C17    C     0.57730   0.38278   0.88225   0.00000  Uiso   1.00
C18    C     0.67648   0.33631   0.23113   0.00000  Uiso   1.00
C19    C     0.71270   0.39343   0.28296   0.00000  Uiso   1.00
C20    C     0.75902   0.35851   0.29886   0.00000  Uiso   1.00
C21    C     0.59704   0.28784   0.26574   0.00000  Uiso   1.00
C22    C     0.56649   0.30421   0.34670   0.00000  Uiso   1.00
C23    C     0.54594   0.22847   0.39177   0.00000  Uiso   1.00
H24    H     0.64873   0.12775   0.11457   0.00000  Uiso   1.00
H25    H     0.61526   0.16031   0.89955   0.00000  Uiso   1.00
H26    H     0.73993   0.14365   0.18539   0.00000  Uiso   1.00
H27    H     0.59374   0.05444   0.24911   0.00000  Uiso   1.00
H28    H     0.57389   0.23560   0.67646   0.00000  Uiso   1.00
H29    H     0.83677   0.20047   0.27920   0.00000  Uiso   1.00
H30    H     0.52850   0.01235   0.41358   0.00000  Uiso   1.00
H31    H     0.61579   0.42972   0.23254   0.00000  Uiso   1.00
H32    H     0.58051   0.47885   0.02398   0.00000  Uiso   1.00
H33    H     0.70519   0.46220   0.30982   0.00000  Uiso   1.00
H34    H     0.55900   0.37298   0.37354   0.00000  Uiso   1.00
H35    H     0.54569   0.49414   0.77745   0.00000  Uiso   1.00
H36    H     0.80857   0.45901   0.38020   0.00000  Uiso   1.00
H37    H     0.50030   0.27089   0.51457   0.00000  Uiso   1.00
O38    O     0.53719   0.39175   0.58762   0.00000  Uiso   1.00
O39    O     0.88208   0.34565   0.37843   0.00000  Uiso   1.00
O40    O     0.47763   0.09884   0.55471   0.00000  Uiso   1.00
N41    N     0.57208   0.28970   0.72885   0.00000  Uiso   1.00
N42    N     0.81787   0.25686   0.29237   0.00000  Uiso   1.00
N43    N     0.52967   0.08098   0.41802   0.00000  Uiso   1.00
N44    N     0.55691   0.42882   0.78319   0.00000  Uiso   1.00
N45    N     0.80269   0.39598   0.34671   0.00000  Uiso   1.00
N46    N     0.51449   0.22010   0.47236   0.00000  Uiso   1.00
C47    C     0.14118   0.69693   0.14159   0.00000  Uiso   1.00
C48    C     0.11842   0.75649   0.04113   0.00000  Uiso   1.00
C49    C     0.10775   0.72908   0.92638   0.00000  Uiso   1.00
C50    C     0.08701   0.79375   0.84747   0.00000  Uiso   1.00
C51    C     0.05317   0.87273   0.68618   0.00000  Uiso   1.00
C52    C     0.18617   0.74745   0.19642   0.00000  Uiso   1.00
C53    C     0.23244   0.71242   0.21225   0.00000  Uiso   1.00
C54    C     0.26873   0.76949   0.26409   0.00000  Uiso   1.00
C55    C     0.34006   0.83440   0.34397   0.00000  Uiso   1.00
C56    C     0.10673   0.69898   0.23103   0.00000  Uiso   1.00
C57    C     0.08623   0.62320   0.27599   0.00000  Uiso   1.00
C58    C     0.05565   0.63945   0.35699   0.00000  Uiso   1.00
C59    C     0.00364   0.62910   0.49061   0.00000  Uiso   1.00
C60    C     0.12334   0.86054   0.20551   0.00000  Uiso   1.00
C61    C     0.10873   0.84536   0.07584   0.00000  Uiso   1.00
C62    C     0.08800   0.91009   0.99709   0.00000  Uiso   1.00
C63    C     0.07730   0.88278   0.88225   0.00000  Uiso   1.00
C64    C     0.17648   0.83631   0.23113   0.00000  Uiso   1.00
C65    C     0.21270   0.89343   0.28296   0.00000  Uiso   1.00
C66    C     0.25902   0.85851   0.29886   0.00000  Uiso   1.00
C67    C     0.09704   0.78784   0.26574   0.00000  Uiso   1.00
C68    C     0.06649   0.80421   0.34670   0.00000  Uiso   1.00
C69    C     0.04594   0.72847   0.39177   0.00000  Uiso   1.00
H70    H     0.14873   0.62775   0.11457   0.00000  Uiso   1.00
H71    H     0.11526   0.66031   0.89955   0.00000  Uiso   1.00
H72    H     0.23993   0.64365   0.18539   0.00000  Uiso   1.00
H73    H     0.09374   0.55444   0.24911   0.00000  Uiso   1.00
H74    H     0.07389   0.73560   0.67646   0.00000  Uiso   1.00
H75    H     0.33677   0.70047   0.27920   0.00000  Uiso   1.00
H76    H     0.02850   0.51235   0.41358   0.00000  Uiso   1.00
H77    H     0.11579   0.92972   0.23254   0.00000  Uiso   1.00
H78    H     0.08051   0.97885   0.02398   0.00000  Uiso   1.00
H79    H     0.20519   0.96220   0.30982   0.00000  Uiso   1.00
H80    H     0.05900   0.87298   0.37354   0.00000  Uiso   1.00
H81    H     0.04569   0.99414   0.77745   0.00000  Uiso   1.00
H82    H     0.30857   0.95901   0.38020   0.00000  Uiso   1.00
H83    H     0.00030   0.77089   0.51457   0.00000  Uiso   1.00
O84    O     0.03719   0.89175   0.58762   0.00000  Uiso   1.00
O85    O     0.38208   0.84565   0.37843   0.00000  Uiso   1.00
O86    O     0.97763   0.59884   0.55471   0.00000  Uiso   1.00
N87    N     0.07208   0.78970   0.72885   0.00000  Uiso   1.00
N88    N     0.31787   0.75686   0.29237   0.00000  Uiso   1.00
N89    N     0.02967   0.58098   0.41802   0.00000  Uiso   1.00
N90    N     0.05691   0.92882   0.78319   0.00000  Uiso   1.00
N91    N     0.30269   0.89598   0.34671   0.00000  Uiso   1.00
N92    N     0.01449   0.72010   0.47236   0.00000  Uiso   1.00
C93    C     0.35882   0.19693   0.35841   0.00000  Uiso   1.00
C94    C     0.38158   0.25649   0.45887   0.00000  Uiso   1.00
C95    C     0.39225   0.22908   0.57362   0.00000  Uiso   1.00
C96    C     0.41299   0.29375   0.65253   0.00000  Uiso   1.00
C97    C     0.44683   0.37273   0.81382   0.00000  Uiso   1.00
C98    C     0.31383   0.24745   0.30358   0.00000  Uiso   1.00
C99    C     0.26756   0.21242   0.28775   0.00000  Uiso   1.00
C100   C     0.23127   0.26949   0.23591   0.00000  Uiso   1.00
C101   C     0.15994   0.33440   0.15603   0.00000  Uiso   1.00
C102   C     0.39327   0.19898   0.26897   0.00000  Uiso   1.00
C103   C     0.41377   0.12320   0.22401   0.00000  Uiso   1.00
C104   C     0.44435   0.13945   0.14301   0.00000  Uiso   1.00
C105   C     0.49636   0.12910   0.00939   0.00000  Uiso   1.00
C106   C     0.37666   0.36054   0.29449   0.00000  Uiso   1.00
C107   C     0.39127   0.34536   0.42416   0.00000  Uiso   1.00
C108   C     0.41200   0.41009   0.50291   0.00000  Uiso   1.00
C109   C     0.42270   0.38278   0.61775   0.00000  Uiso   1.00
C110   C     0.32352   0.33631   0.26887   0.00000  Uiso   1.00
C111   C     0.28730   0.39343   0.21704   0.00000  Uiso   1.00
C112   C     0.24098   0.35851   0.20114   0.00000  Uiso   1.00
C113   C     0.40296   0.28784   0.23426   0.00000  Uiso   1.00
C114   C     0.43351   0.30421   0.15330   0.00000  Uiso   1.00
C115   C     0.45406   0.22847   0.10823   0.00000  Uiso   1.00
H116   H     0.35127   0.12775   0.38543   0.00000  Uiso   1.00
H117   H     0.38474   0.16031   0.60045   0.00000  Uiso   1.00
H118   H     0.26007   0.14365   0.31461   0.00000  Uiso   1.00
H119   H     0.40626   0.05444   0.25089   0.00000  Uiso   1.00
H120   H     0.42611   0.23560   0.82354   0.00000  Uiso   1.00
H121   H     0.16323   0.20047   0.22080   0.00000  Uiso   1.00
H122   H     0.47150   0.01235   0.08642   0.00000  Uiso   1.00
H123   H     0.38421   0.42972   0.26746   0.00000  Uiso   1.00
H124   H     0.41949   0.47885   0.47602   0.00000  Uiso   1.00
H125   H     0.29481   0.46220   0.19018   0.00000  Uiso   1.00
H126   H     0.44100   0.37298   0.12646   0.00000  Uiso   1.00
H127   H     0.45431   0.49414   0.72255   0.00000  Uiso   1.00
H128   H     0.19143   0.45901   0.11980   0.00000  Uiso   1.00
H129   H     0.49970   0.27089   0.98543   0.00000  Uiso   1.00
O130   O     0.46281   0.39175   0.91238   0.00000  Uiso   1.00
O131   O     0.11792   0.34565   0.12157   0.00000  Uiso   1.00
O132   O     0.52237   0.09884   0.94529   0.00000  Uiso   1.00
N133   N     0.42792   0.28970   0.77115   0.00000  Uiso   1.00
N134   N     0.18213   0.25686   0.20763   0.00000  Uiso   1.00
N135   N     0.47033   0.08098   0.08198   0.00000  Uiso   1.00
N136   N     0.44309   0.42882   0.71681   0.00000  Uiso   1.00
N137   N     0.19731   0.39598   0.15329   0.00000  Uiso   1.00
N138   N     0.48551   0.22010   0.02764   0.00000  Uiso   1.00
C139   C     0.85882   0.69693   0.35841   0.00000  Uiso   1.00
C140   C     0.88158   0.75649   0.45887   0.00000  Uiso   1.00
C141   C     0.89225   0.72908   0.57362   0.00000  Uiso   1.00
C142   C     0.91299   0.79375   0.65253   0.00000  Uiso   1.00
C143   C     0.94683   0.87273   0.81382   0.00000  Uiso   1.00
C144   C     0.81383   0.74745   0.30358   0.00000  Uiso   1.00
C145   C     0.76756   0.71242   0.28775   0.00000  Uiso   1.00
C146   C     0.73127   0.76949   0.23591   0.00000  Uiso   1.00
C147   C     0.65994   0.83440   0.15603   0.00000  Uiso   1.00
C148   C     0.89327   0.69898   0.26897   0.00000  Uiso   1.00
C149   C     0.91377   0.62320   0.22401   0.00000  Uiso   1.00
C150   C     0.94435   0.63945   0.14301   0.00000  Uiso   1.00
C151   C     0.99636   0.62910   0.00939   0.00000  Uiso   1.00
C152   C     0.87666   0.86054   0.29449   0.00000  Uiso   1.00
C153   C     0.89127   0.84536   0.42416   0.00000  Uiso   1.00
C154   C     0.91200   0.91009   0.50291   0.00000  Uiso   1.00
C155   C     0.92270   0.88278   0.61775   0.00000  Uiso   1.00
C156   C     0.82352   0.83631   0.26887   0.00000  Uiso   1.00
C157   C     0.78730   0.89343   0.21704   0.00000  Uiso   1.00
C158   C     0.74098   0.85851   0.20114   0.00000  Uiso   1.00
C159   C     0.90296   0.78784   0.23426   0.00000  Uiso   1.00
C160   C     0.93351   0.80421   0.15330   0.00000  Uiso   1.00
C161   C     0.95406   0.72847   0.10823   0.00000  Uiso   1.00
H162   H     0.85127   0.62775   0.38543   0.00000  Uiso   1.00
H163   H     0.88474   0.66031   0.60045   0.00000  Uiso   1.00
H164   H     0.76007   0.64365   0.31461   0.00000  Uiso   1.00
H165   H     0.90626   0.55444   0.25089   0.00000  Uiso   1.00
H166   H     0.92611   0.73560   0.82354   0.00000  Uiso   1.00
H167   H     0.66323   0.70047   0.22080   0.00000  Uiso   1.00
H168   H     0.97150   0.51235   0.08642   0.00000  Uiso   1.00
H169   H     0.88421   0.92972   0.26746   0.00000  Uiso   1.00
H170   H     0.91949   0.97885   0.47602   0.00000  Uiso   1.00
H171   H     0.79481   0.96220   0.19018   0.00000  Uiso   1.00
H172   H     0.94100   0.87298   0.12646   0.00000  Uiso   1.00
H173   H     0.95431   0.99414   0.72255   0.00000  Uiso   1.00
H174   H     0.69143   0.95901   0.11980   0.00000  Uiso   1.00
H175   H     0.99970   0.77089   0.98543   0.00000  Uiso   1.00
O176   O     0.96281   0.89175   0.91238   0.00000  Uiso   1.00
O177   O     0.61792   0.84565   0.12157   0.00000  Uiso   1.00
O178   O     0.02237   0.59884   0.94529   0.00000  Uiso   1.00
N179   N     0.92792   0.78970   0.77115   0.00000  Uiso   1.00
N180   N     0.68213   0.75686   0.20763   0.00000  Uiso   1.00
N181   N     0.97033   0.58098   0.08198   0.00000  Uiso   1.00
N182   N     0.94309   0.92882   0.71681   0.00000  Uiso   1.00
N183   N     0.69731   0.89598   0.15329   0.00000  Uiso   1.00
N184   N     0.98551   0.72010   0.02764   0.00000  Uiso   1.00
C185   C     0.35882   0.80307   0.85841   0.00000  Uiso   1.00
C186   C     0.38158   0.74351   0.95887   0.00000  Uiso   1.00
C187   C     0.39225   0.77092   0.07362   0.00000  Uiso   1.00
C188   C     0.41299   0.70625   0.15253   0.00000  Uiso   1.00
C189   C     0.44683   0.62727   0.31382   0.00000  Uiso   1.00
C190   C     0.31383   0.75255   0.80358   0.00000  Uiso   1.00
C191   C     0.26756   0.78758   0.78775   0.00000  Uiso   1.00
C192   C     0.23127   0.73051   0.73591   0.00000  Uiso   1.00
C193   C     0.15994   0.66560   0.65603   0.00000  Uiso   1.00
C194   C     0.39327   0.80102   0.76897   0.00000  Uiso   1.00
C195   C     0.41377   0.87680   0.72401   0.00000  Uiso   1.00
C196   C     0.44435   0.86055   0.64301   0.00000  Uiso   1.00
C197   C     0.49636   0.87090   0.50939   0.00000  Uiso   1.00
C198   C     0.37666   0.63946   0.79449   0.00000  Uiso   1.00
C199   C     0.39127   0.65464   0.92416   0.00000  Uiso   1.00
C200   C     0.41200   0.58991   0.00291   0.00000  Uiso   1.00
C201   C     0.42270   0.61722   0.11775   0.00000  Uiso   1.00
C202   C     0.32352   0.66369   0.76887   0.00000  Uiso   1.00
C203   C     0.28730   0.60657   0.71704   0.00000  Uiso   1.00
C204   C     0.24098   0.64149   0.70114   0.00000  Uiso   1.00
C205   C     0.40296   0.71216   0.73426   0.00000  Uiso   1.00
C206   C     0.43351   0.69579   0.65330   0.00000  Uiso   1.00
C207   C     0.45406   0.77153   0.60823   0.00000  Uiso   1.00
H208   H     0.35127   0.87225   0.88543   0.00000  Uiso   1.00
H209   H     0.38474   0.83969   0.10045   0.00000  Uiso   1.00
H210   H     0.26007   0.85635   0.81461   0.00000  Uiso   1.00
H211   H     0.40626   0.94556   0.75089   0.00000  Uiso   1.00
H212   H     0.42611   0.76440   0.32354   0.00000  Uiso   1.00
H213   H     0.16323   0.79953   0.72080   0.00000  Uiso   1.00
H214   H     0.47150   0.98765   0.58642   0.00000  Uiso   1.00
H215   H     0.38421   0.57028   0.76746   0.00000  Uiso   1.00
H216   H     0.41949   0.52115   0.97602   0.00000  Uiso   1.00
H217   H     0.29481   0.53780   0.69018   0.00000  Uiso   1.00
H218   H     0.44100   0.62702   0.62646   0.00000  Uiso   1.00
H219   H     0.45431   0.50586   0.22255   0.00000  Uiso   1.00
H220   H     0.19143   0.54099   0.61980   0.00000  Uiso   1.00
H221   H     0.49970   0.72911   0.48543   0.00000  Uiso   1.00
O222   O     0.46281   0.60825   0.41238   0.00000  Uiso   1.00
O223   O     0.11792   0.65435   0.62157   0.00000  Uiso   1.00
O224   O     0.52237   0.90116   0.44529   0.00000  Uiso   1.00
N225   N     0.42792   0.71030   0.27115   0.00000  Uiso   1.00
N226   N     0.18213   0.74314   0.70763   0.00000  Uiso   1.00
N227   N     0.47033   0.91902   0.58198   0.00000  Uiso   1.00
N228   N     0.44309   0.57118   0.21681   0.00000  Uiso   1.00
N229   N     0.19731   0.60402   0.65329   0.00000  Uiso   1.00
N230   N     0.48551   0.77990   0.52764   0.00000  Uiso   1.00
C231   C     0.85882   0.30307   0.85841   0.00000  Uiso   1.00
C232   C     0.88158   0.24351   0.95887   0.00000  Uiso   1.00
C233   C     0.89225   0.27092   0.07362   0.00000  Uiso   1.00
C234   C     0.91299   0.20625   0.15253   0.00000  Uiso   1.00
C235   C     0.94683   0.12727   0.31382   0.00000  Uiso   1.00
C236   C     0.81383   0.25255   0.80358   0.00000  Uiso   1.00
C237   C     0.76756   0.28758   0.78775   0.00000  Uiso   1.00
C238   C     0.73127   0.23051   0.73591   0.00000  Uiso   1.00
C239   C     0.65994   0.16560   0.65603   0.00000  Uiso   1.00
C240   C     0.89327   0.30102   0.76897   0.00000  Uiso   1.00
C241   C     0.91377   0.37680   0.72401   0.00000  Uiso   1.00
C242   C     0.94435   0.36055   0.64301   0.00000  Uiso   1.00
C243   C     0.99636   0.37090   0.50939   0.00000  Uiso   1.00
C244   C     0.87666   0.13946   0.79449   0.00000  Uiso   1.00
C245   C     0.89127   0.15464   0.92416   0.00000  Uiso   1.00
C246   C     0.91200   0.08991   0.00291   0.00000  Uiso   1.00
C247   C     0.92270   0.11722   0.11775   0.00000  Uiso   1.00
C248   C     0.82352   0.16369   0.76887   0.00000  Uiso   1.00
C249   C     0.78730   0.10657   0.71704   0.00000  Uiso   1.00
C250   C     0.74098   0.14149   0.70114   0.00000  Uiso   1.00
C251   C     0.90296   0.21216   0.73426   0.00000  Uiso   1.00
C252   C     0.93351   0.19579   0.65330   0.00000  Uiso   1.00
C253   C     0.95406   0.27153   0.60823   0.00000  Uiso   1.00
H254   H     0.85127   0.37225   0.88543   0.00000  Uiso   1.00
H255   H     0.88474   0.33969   0.10045   0.00000  Uiso   1.00
H256   H     0.76007   0.35635   0.81461   0.00000  Uiso   1.00
H257   H     0.90626   0.44556   0.75089   0.00000  Uiso   1.00
H258   H     0.92611   0.26440   0.32354   0.00000  Uiso   1.00
H259   H     0.66323   0.29953   0.72080   0.00000  Uiso   1.00
H260   H     0.97150   0.48765   0.58642   0.00000  Uiso   1.00
H261   H     0.88421   0.07028   0.76746   0.00000  Uiso   1.00
H262   H     0.91949   0.02115   0.97602   0.00000  Uiso   1.00
H263   H     0.79481   0.03780   0.69018   0.00000  Uiso   1.00
H264   H     0.94100   0.12702   0.62646   0.00000  Uiso   1.00
H265   H     0.95431   0.00586   0.22255   0.00000  Uiso   1.00
H266   H     0.69143   0.04099   0.61980   0.00000  Uiso   1.00
H267   H     0.99970   0.22911   0.48543   0.00000  Uiso   1.00
O268   O     0.96281   0.10825   0.41238   0.00000  Uiso   1.00
O269   O     0.61792   0.15435   0.62157   0.00000  Uiso   1.00
O270   O     0.02237   0.40116   0.44529   0.00000  Uiso   1.00
N271   N     0.92792   0.21030   0.27115   0.00000  Uiso   1.00
N272   N     0.68213   0.24314   0.70763   0.00000  Uiso   1.00
N273   N     0.97033   0.41902   0.58198   0.00000  Uiso   1.00
N274   N     0.94309   0.07118   0.21681   0.00000  Uiso   1.00
N275   N     0.69731   0.10402   0.65329   0.00000  Uiso   1.00
N276   N     0.98551   0.27990   0.52764   0.00000  Uiso   1.00
C277   C     0.64118   0.80307   0.64159   0.00000  Uiso   1.00
C278   C     0.61842   0.74351   0.54113   0.00000  Uiso   1.00
C279   C     0.60775   0.77092   0.42638   0.00000  Uiso   1.00
C280   C     0.58701   0.70625   0.34747   0.00000  Uiso   1.00
C281   C     0.55317   0.62727   0.18618   0.00000  Uiso   1.00
C282   C     0.68617   0.75255   0.69642   0.00000  Uiso   1.00
C283   C     0.73244   0.78758   0.71225   0.00000  Uiso   1.00
C284   C     0.76873   0.73051   0.76409   0.00000  Uiso   1.00
C285   C     0.84006   0.66560   0.84397   0.00000  Uiso   1.00
C286   C     0.60673   0.80102   0.73103   0.00000  Uiso   1.00
C287   C     0.58623   0.87680   0.77599   0.00000  Uiso   1.00
C288   C     0.55565   0.86055   0.85699   0.00000  Uiso   1.00
C289   C     0.50364   0.87090   0.99061   0.00000  Uiso   1.00
C290   C     0.62334   0.63946   0.70551   0.00000  Uiso   1.00
C291   C     0.60873   0.65464   0.57584   0.00000  Uiso   1.00
C292   C     0.58800   0.58991   0.49709   0.00000  Uiso   1.00
C293   C     0.57730   0.61722   0.38225   0.00000  Uiso   1.00
C294   C     0.67648   0.66369   0.73113   0.00000  Uiso   1.00
C295   C     0.71270   0.60657   0.78296   0.00000  Uiso   1.00
C296   C     0.75902   0.64149   0.79886   0.00000  Uiso   1.00
C297   C     0.59704   0.71216   0.76574   0.00000  Uiso   1.00
C298   C     0.56649   0.69579   0.84670   0.00000  Uiso   1.00
C299   C     0.54594   0.77153   0.89177   0.00000  Uiso   1.00
H300   H     0.64873   0.87225   0.61457   0.00000  Uiso   1.00
H301   H     0.61526   0.83969   0.39955   0.00000  Uiso   1.00
H302   H     0.73993   0.85635   0.68539   0.00000  Uiso   1.00
H303   H     0.59374   0.94556   0.74911   0.00000  Uiso   1.00
H304   H     0.57389   0.76440   0.17646   0.00000  Uiso   1.00
H305   H     0.83677   0.79953   0.77920   0.00000  Uiso   1.00
H306   H     0.52850   0.98765   0.91358   0.00000  Uiso   1.00
H307   H     0.61579   0.57028   0.73254   0.00000  Uiso   1.00
H308   H     0.58051   0.52115   0.52398   0.00000  Uiso   1.00
H309   H     0.70519   0.53780   0.80982   0.00000  Uiso   1.00
H310   H     0.55900   0.62702   0.87354   0.00000  Uiso   1.00
H311   H     0.54569   0.50586   0.27745   0.00000  Uiso   1.00
H312   H     0.80857   0.54099   0.88020   0.00000  Uiso   1.00
H313   H     0.50030   0.72911   0.01457   0.00000  Uiso   1.00
O314   O     0.53719   0.60825   0.08762   0.00000  Uiso   1.00
O315   O     0.88208   0.65435   0.87843   0.00000  Uiso   1.00
O316   O     0.47763   0.90116   0.05471   0.00000  Uiso   1.00
N317   N     0.57208   0.71030   0.22885   0.00000  Uiso   1.00
N318   N     0.81787   0.74314   0.79237   0.00000  Uiso   1.00
N319   N     0.52967   0.91902   0.91802   0.00000  Uiso   1.00
N320   N     0.55691   0.57118   0.28319   0.00000  Uiso   1.00
N321   N     0.80269   0.60402   0.84671   0.00000  Uiso   1.00
N322   N     0.51449   0.77990   0.97236   0.00000  Uiso   1.00
C323   C     0.14118   0.30307   0.64159   0.00000  Uiso   1.00
C324   C     0.11842   0.24351   0.54113   0.00000  Uiso   1.00
C325   C     0.10775   0.27092   0.42638   0.00000  Uiso   1.00
C326   C     0.08701   0.20625   0.34747   0.00000  Uiso   1.00
C327   C     0.05317   0.12727   0.18618   0.00000  Uiso   1.00
C328   C     0.18617   0.25255   0.69642   0.00000  Uiso   1.00
C329   C     0.23244   0.28758   0.71225   0.00000  Uiso   1.00
C330   C     0.26873   0.23051   0.76409   0.00000  Uiso   1.00
C331   C     0.34006   0.16560   0.84397   0.00000  Uiso   1.00
C332   C     0.10673   0.30102   0.73103   0.00000  Uiso   1.00
C333   C     0.08623   0.37680   0.77599   0.00000  Uiso   1.00
C334   C     0.05565   0.36055   0.85699   0.00000  Uiso   1.00
C335   C     0.00364   0.37090   0.99061   0.00000  Uiso   1.00
C336   C     0.12334   0.13946   0.70551   0.00000  Uiso   1.00
C337   C     0.10873   0.15464   0.57584   0.00000  Uiso   1.00
C338   C     0.08800   0.08991   0.49709   0.00000  Uiso   1.00
C339   C     0.07730   0.11722   0.38225   0.00000  Uiso   1.00
C340   C     0.17648   0.16369   0.73113   0.00000  Uiso   1.00
C341   C     0.21270   0.10657   0.78296   0.00000  Uiso   1.00
C342   C     0.25902   0.14149   0.79886   0.00000  Uiso   1.00
C343   C     0.09704   0.21216   0.76574   0.00000  Uiso   1.00
C344   C     0.06649   0.19579   0.84670   0.00000  Uiso   1.00
C345   C     0.04594   0.27153   0.89177   0.00000  Uiso   1.00
H346   H     0.14873   0.37225   0.61457   0.00000  Uiso   1.00
H347   H     0.11526   0.33969   0.39955   0.00000  Uiso   1.00
H348   H     0.23993   0.35635   0.68539   0.00000  Uiso   1.00
H349   H     0.09374   0.44556   0.74911   0.00000  Uiso   1.00
H350   H     0.07389   0.26440   0.17646   0.00000  Uiso   1.00
H351   H     0.33677   0.29953   0.77920   0.00000  Uiso   1.00
H352   H     0.02850   0.48765   0.91358   0.00000  Uiso   1.00
H353   H     0.11579   0.07028   0.73254   0.00000  Uiso   1.00
H354   H     0.08051   0.02115   0.52398   0.00000  Uiso   1.00
H355   H     0.20519   0.03780   0.80982   0.00000  Uiso   1.00
H356   H     0.05900   0.12702   0.87354   0.00000  Uiso   1.00
H357   H     0.04569   0.00586   0.27745   0.00000  Uiso   1.00
H358   H     0.30857   0.04099   0.88020   0.00000  Uiso   1.00
H359   H     0.00030   0.22911   0.01457   0.00000  Uiso   1.00
O360   O     0.03719   0.10825   0.08762   0.00000  Uiso   1.00
O361   O     0.38208   0.15435   0.87843   0.00000  Uiso   1.00
O362   O     0.97763   0.40116   0.05471   0.00000  Uiso   1.00
N363   N     0.07208   0.21030   0.22885   0.00000  Uiso   1.00
N364   N     0.31787   0.24314   0.79237   0.00000  Uiso   1.00
N365   N     0.02967   0.41902   0.91802   0.00000  Uiso   1.00
N366   N     0.05691   0.07118   0.28319   0.00000  Uiso   1.00
N367   N     0.30269   0.10402   0.84671   0.00000  Uiso   1.00
N368   N     0.01449   0.27990   0.97236   0.00000  Uiso   1.00
