data_job_06578
_audit_creation_date              2018-12-19
_audit_creation_method            'Materials Studio'
_symmetry_space_group_name_H-M    'P1'
_symmetry_Int_Tables_number       1
_symmetry_cell_setting            triclinic
loop_
_symmetry_equiv_pos_as_xyz
  x,y,z
_cell_length_a                    19.4508
_cell_length_b                    20.8771
_cell_length_c                    22.1364
_cell_angle_alpha                 94.2268
_cell_angle_beta                  68.0684
_cell_angle_gamma                 65.5200
loop_
_atom_site_label
_atom_site_type_symbol
_atom_site_fract_x
_atom_site_fract_y
_atom_site_fract_z
_atom_site_U_iso_or_equiv
_atom_site_adp_type
_atom_site_occupancy
C1     C     0.12309   0.26434   0.84819   0.00000  Uiso   1.00
C2     C     0.03136   0.31068   0.86231   0.00000  Uiso   1.00
C3     C     0.00199   0.32367   0.81380   0.00000  Uiso   1.00
C4     C     0.91581   0.36757   0.83700   0.00000  Uiso   1.00
C5     C     0.78172   0.43502   0.84838   0.00000  Uiso   1.00
C6     C     0.14428   0.31388   0.88351   0.00000  Uiso   1.00
C7     C     0.20985   0.32954   0.85283   0.00000  Uiso   1.00
C8     C     0.21873   0.37612   0.89389   0.00000  Uiso   1.00
C9     C     0.25997   0.44849   0.93821   0.00000  Uiso   1.00
C10    C     0.12455   0.20606   0.88611   0.00000  Uiso   1.00
C11    C     0.17356   0.13107   0.85762   0.00000  Uiso   1.00
C12    C     0.16585   0.08688   0.90086   0.00000  Uiso   1.00
C13    C     0.17647   0.99185   0.94921   0.00000  Uiso   1.00
C14    C     0.02229   0.31920   0.97566   0.00000  Uiso   1.00
C15    C     0.97661   0.34048   0.93154   0.00000  Uiso   1.00
C16    C     0.89046   0.38437   0.95482   0.00000  Uiso   1.00
C17    C     0.86096   0.39742   0.90636   0.00000  Uiso   1.00
C18    C     0.08953   0.34368   0.95275   0.00000  Uiso   1.00
C19    C     0.09832   0.39024   0.99386   0.00000  Uiso   1.00
C20    C     0.16388   0.40597   0.96325   0.00000  Uiso   1.00
C21    C     0.06980   0.23586   0.95534   0.00000  Uiso   1.00
C22    C     0.06202   0.19177   0.99864   0.00000  Uiso   1.00
C23    C     0.11100   0.11673   0.97022   0.00000  Uiso   1.00
H24    H     0.16572   0.24114   0.79429   0.00000  Uiso   1.00
H25    H     0.04438   0.30060   0.76022   0.00000  Uiso   1.00
H26    H     0.25221   0.30647   0.79926   0.00000  Uiso   1.00
H27    H     0.21592   0.10803   0.80404   0.00000  Uiso   1.00
H28    H     0.88571   0.37969   0.75298   0.00000  Uiso   1.00
H29    H     0.32395   0.39204   0.83529   0.00000  Uiso   1.00
H30    H     0.24743   0.97359   0.84537   0.00000  Uiso   1.00
H31    H     0.97966   0.34240   0.02956   0.00000  Uiso   1.00
H32    H     0.84810   0.40742   0.00840   0.00000  Uiso   1.00
H33    H     0.05594   0.41329   0.04743   0.00000  Uiso   1.00
H34    H     0.01965   0.21485   0.05222   0.00000  Uiso   1.00
H35    H     0.72641   0.46639   0.95442   0.00000  Uiso   1.00
H36    H     0.16465   0.47873   0.03672   0.00000  Uiso   1.00
H37    H     0.08812   0.06029   0.04681   0.00000  Uiso   1.00
O38    O     0.72288   0.46400   0.83554   0.00000  Uiso   1.00
O39    O     0.29785   0.48019   0.94352   0.00000  Uiso   1.00
O40    O     0.19744   0.93120   0.95675   0.00000  Uiso   1.00
N41    N     0.86627   0.39116   0.80329   0.00000  Uiso   1.00
N42    N     0.27599   0.40271   0.88024   0.00000  Uiso   1.00
N43    N     0.20447   0.01150   0.88967   0.00000  Uiso   1.00
N44    N     0.78055   0.43781   0.91168   0.00000  Uiso   1.00
N45    N     0.19027   0.44936   0.98863   0.00000  Uiso   1.00
N46    N     0.11874   0.05816   0.99806   0.00000  Uiso   1.00
C47    C     0.65363   0.19685   0.40287   0.00000  Uiso   1.00
C48    C     0.65158   0.25373   0.36315   0.00000  Uiso   1.00
C49    C     0.72016   0.26281   0.32464   0.00000  Uiso   1.00
C50    C     0.70525   0.31797   0.29218   0.00000  Uiso   1.00
C51    C     0.71431   0.39955   0.22964   0.00000  Uiso   1.00
C52    C     0.58875   0.23943   0.47579   0.00000  Uiso   1.00
C53    C     0.60452   0.23648   0.53199   0.00000  Uiso   1.00
C54    C     0.53672   0.27959   0.59434   0.00000  Uiso   1.00
C55    C     0.44824   0.33893   0.70668   0.00000  Uiso   1.00
C56    C     0.61883   0.15347   0.37707   0.00000  Uiso   1.00
C57    C     0.65987   0.07823   0.35029   0.00000  Uiso   1.00
C58    C     0.61738   0.04896   0.32954   0.00000  Uiso   1.00
C59    C     0.57561   0.97482   0.28862   0.00000  Uiso   1.00
C60    C     0.50519   0.27866   0.41367   0.00000  Uiso   1.00
C61    C     0.57095   0.29817   0.36902   0.00000  Uiso   1.00
C62    C     0.55593   0.35332   0.33659   0.00000  Uiso   1.00
C63    C     0.62448   0.36248   0.29805   0.00000  Uiso   1.00
C64    C     0.50813   0.28386   0.48165   0.00000  Uiso   1.00
C65    C     0.44029   0.32699   0.54394   0.00000  Uiso   1.00
C66    C     0.45594   0.32411   0.60022   0.00000  Uiso   1.00
C67    C     0.53821   0.19790   0.38294   0.00000  Uiso   1.00
C68    C     0.49564   0.16874   0.36224   0.00000  Uiso   1.00
C69    C     0.53661   0.09347   0.33542   0.00000  Uiso   1.00
H70    H     0.71640   0.16226   0.39830   0.00000  Uiso   1.00
H71    H     0.78254   0.22842   0.32012   0.00000  Uiso   1.00
H72    H     0.66691   0.20208   0.52743   0.00000  Uiso   1.00
H73    H     0.72226   0.04386   0.34576   0.00000  Uiso   1.00
H74    H     0.82031   0.32138   0.23605   0.00000  Uiso   1.00
H75    H     0.57650   0.26583   0.67318   0.00000  Uiso   1.00
H76    H     0.69321   0.93218   0.29009   0.00000  Uiso   1.00
H77    H     0.44242   0.31325   0.41824   0.00000  Uiso   1.00
H78    H     0.49353   0.38770   0.34114   0.00000  Uiso   1.00
H79    H     0.37790   0.36136   0.54846   0.00000  Uiso   1.00
H80    H     0.43325   0.20314   0.36678   0.00000  Uiso   1.00
H81    H     0.58574   0.45065   0.25312   0.00000  Uiso   1.00
H82    H     0.34193   0.39511   0.69025   0.00000  Uiso   1.00
H83    H     0.45864   0.06146   0.30715   0.00000  Uiso   1.00
O84    O     0.74159   0.43228   0.19353   0.00000  Uiso   1.00
O85    O     0.42172   0.35939   0.76702   0.00000  Uiso   1.00
O86    O     0.57484   0.92165   0.26441   0.00000  Uiso   1.00
N87    N     0.75809   0.34158   0.25064   0.00000  Uiso   1.00
N88    N     0.53015   0.28965   0.65932   0.00000  Uiso   1.00
N89    N     0.63926   0.97772   0.30118   0.00000  Uiso   1.00
N90    N     0.63187   0.41114   0.25982   0.00000  Uiso   1.00
N91    N     0.40393   0.35922   0.66851   0.00000  Uiso   1.00
N92    N     0.51303   0.04728   0.31036   0.00000  Uiso   1.00
C93    C     0.64894   0.21477   0.93640   0.00000  Uiso   1.00
C94    C     0.60241   0.23929   0.01347   0.00000  Uiso   1.00
C95    C     0.55111   0.21364   0.05375   0.00000  Uiso   1.00
C96    C     0.51420   0.24296   0.12322   0.00000  Uiso   1.00
C97    C     0.43978   0.27299   0.23861   0.00000  Uiso   1.00
C98    C     0.62018   0.28396   0.91298   0.00000  Uiso   1.00
C99    C     0.58385   0.29586   0.86877   0.00000  Uiso   1.00
C100   C     0.56191   0.36279   0.85366   0.00000  Uiso   1.00
C101   C     0.51516   0.46214   0.81300   0.00000  Uiso   1.00
C102   C     0.74182   0.18801   0.91822   0.00000  Uiso   1.00
C103   C     0.80777   0.11924   0.87839   0.00000  Uiso   1.00
C104   C     0.88826   0.10539   0.86767   0.00000  Uiso   1.00
C105   C     0.03036   0.05577   0.83514   0.00000  Uiso   1.00
C106   C     0.67462   0.31245   0.98815   0.00000  Uiso   1.00
C107   C     0.61635   0.29235   0.04157   0.00000  Uiso   1.00
C108   C     0.57951   0.32171   0.11101   0.00000  Uiso   1.00
C109   C     0.52817   0.29611   0.15138   0.00000  Uiso   1.00
C110   C     0.63413   0.33701   0.94109   0.00000  Uiso   1.00
C111   C     0.61225   0.40394   0.92603   0.00000  Uiso   1.00
C112   C     0.57588   0.41594   0.88181   0.00000  Uiso   1.00
C113   C     0.75577   0.24106   0.94633   0.00000  Uiso   1.00
C114   C     0.83617   0.22732   0.93566   0.00000  Uiso   1.00
C115   C     0.90223   0.15855   0.89583   0.00000  Uiso   1.00
H116   H     0.63808   0.17347   0.91451   0.00000  Uiso   1.00
H117   H     0.54032   0.17258   0.03197   0.00000  Uiso   1.00
H118   H     0.57307   0.25479   0.84702   0.00000  Uiso   1.00
H119   H     0.79695   0.07820   0.85665   0.00000  Uiso   1.00
H120   H     0.43806   0.19503   0.17460   0.00000  Uiso   1.00
H121   H     0.50713   0.36835   0.78460   0.00000  Uiso   1.00
H122   H     0.97924   0.99598   0.80489   0.00000  Uiso   1.00
H123   H     0.68548   0.35376   0.01004   0.00000  Uiso   1.00
H124   H     0.59032   0.36277   0.13275   0.00000  Uiso   1.00
H125   H     0.62306   0.44498   0.94779   0.00000  Uiso   1.00
H126   H     0.84694   0.26839   0.95742   0.00000  Uiso   1.00
H127   H     0.47863   0.34939   0.25639   0.00000  Uiso   1.00
H128   H     0.54771   0.52272   0.86638   0.00000  Uiso   1.00
H129   H     0.01981   0.15034   0.88668   0.00000  Uiso   1.00
O130   O     0.39487   0.27490   0.29449   0.00000  Uiso   1.00
O131   O     0.48551   0.50229   0.78281   0.00000  Uiso   1.00
O132   O     0.10489   0.01375   0.80944   0.00000  Uiso   1.00
N133   N     0.46069   0.23011   0.17701   0.00000  Uiso   1.00
N134   N     0.52525   0.39216   0.81239   0.00000  Uiso   1.00
N135   N     0.96663   0.04403   0.83135   0.00000  Uiso   1.00
N136   N     0.48252   0.31317   0.22102   0.00000  Uiso   1.00
N137   N     0.54708   0.47523   0.85640   0.00000  Uiso   1.00
N138   N     0.98846   0.12709   0.87536   0.00000  Uiso   1.00
C139   C     0.78012   0.66521   0.87041   0.00000  Uiso   1.00
C140   C     0.76192   0.72510   0.83417   0.00000  Uiso   1.00
C141   C     0.72626   0.73049   0.78967   0.00000  Uiso   1.00
C142   C     0.71474   0.78934   0.76180   0.00000  Uiso   1.00
C143   C     0.68289   0.87451   0.70311   0.00000  Uiso   1.00
C144   C     0.73390   0.70425   0.94574   0.00000  Uiso   1.00
C145   C     0.67469   0.69209   0.99504   0.00000  Uiso   1.00
C146   C     0.63959   0.73340   0.06109   0.00000  Uiso   1.00
C147   C     0.56428   0.78615   0.17561   0.00000  Uiso   1.00
C148   C     0.87397   0.63136   0.85164   0.00000  Uiso   1.00
C149   C     0.93254   0.55791   0.82184   0.00000  Uiso   1.00
C150   C     0.01537   0.53784   0.80867   0.00000  Uiso   1.00
C151   C     0.15754   0.47743   0.77709   0.00000  Uiso   1.00
C152   C     0.82307   0.76017   0.90004   0.00000  Uiso   1.00
C153   C     0.78525   0.77668   0.85026   0.00000  Uiso   1.00
C154   C     0.77378   0.83554   0.82245   0.00000  Uiso   1.00
C155   C     0.73811   0.84101   0.77792   0.00000  Uiso   1.00
C156   C     0.75722   0.75583   0.96183   0.00000  Uiso   1.00
C157   C     0.72221   0.79715   0.02782   0.00000  Uiso   1.00
C158   C     0.66296   0.78506   0.07721   0.00000  Uiso   1.00
C159   C     0.89730   0.68294   0.86772   0.00000  Uiso   1.00
C160   C     0.98005   0.66297   0.85461   0.00000  Uiso   1.00
C161   C     0.03874   0.58951   0.82479   0.00000  Uiso   1.00
H162   H     0.76196   0.62506   0.85789   0.00000  Uiso   1.00
H163   H     0.70821   0.69056   0.77724   0.00000  Uiso   1.00
H164   H     0.65666   0.65217   0.98258   0.00000  Uiso   1.00
H165   H     0.91447   0.51802   0.80939   0.00000  Uiso   1.00
H166   H     0.65888   0.78595   0.69494   0.00000  Uiso   1.00
H167   H     0.55020   0.70498   0.12791   0.00000  Uiso   1.00
H168   H     0.09383   0.42208   0.76272   0.00000  Uiso   1.00
H169   H     0.84123   0.80032   0.91257   0.00000  Uiso   1.00
H170   H     0.79183   0.87545   0.83491   0.00000  Uiso   1.00
H171   H     0.74028   0.83706   0.04025   0.00000  Uiso   1.00
H172   H     0.99808   0.70290   0.86707   0.00000  Uiso   1.00
H173   H     0.72675   0.93601   0.74175   0.00000  Uiso   1.00
H174   H     0.61806   0.85504   0.17472   0.00000  Uiso   1.00
H175   H     0.16170   0.57214   0.80953   0.00000  Uiso   1.00
O176   O     0.65886   0.90725   0.66630   0.00000  Uiso   1.00
O177   O     0.51629   0.80101   0.23433   0.00000  Uiso   1.00
O178   O     0.22952   0.42986   0.75521   0.00000  Uiso   1.00
N179   N     0.68165   0.81095   0.71660   0.00000  Uiso   1.00
N180   N     0.58002   0.73526   0.12140   0.00000  Uiso   1.00
N181   N     0.08828   0.47077   0.78000   0.00000  Uiso   1.00
N182   N     0.71817   0.89169   0.74179   0.00000  Uiso   1.00
N183   N     0.61654   0.81600   0.14659   0.00000  Uiso   1.00
N184   N     0.12480   0.55151   0.80519   0.00000  Uiso   1.00
C185   C     0.18720   0.74468   0.46117   0.00000  Uiso   1.00
C186   C     0.11881   0.78153   0.53395   0.00000  Uiso   1.00
C187   C     0.13222   0.78181   0.59128   0.00000  Uiso   1.00
C188   C     0.06136   0.81860   0.65328   0.00000  Uiso   1.00
C189   C     0.96754   0.87050   0.76562   0.00000  Uiso   1.00
C190   C     0.17524   0.80444   0.42437   0.00000  Uiso   1.00
C191   C     0.23610   0.82397   0.38955   0.00000  Uiso   1.00
C192   C     0.21273   0.88004   0.35929   0.00000  Uiso   1.00
C193   C     0.20654   0.96747   0.30145   0.00000  Uiso   1.00
C194   C     0.16497   0.69251   0.43078   0.00000  Uiso   1.00
C195   C     0.21719   0.61793   0.40134   0.00000  Uiso   1.00
C196   C     0.18518   0.57977   0.37647   0.00000  Uiso   1.00
C197   C     0.16304   0.49341   0.32859   0.00000  Uiso   1.00
C198   C     0.03751   0.80953   0.46933   0.00000  Uiso   1.00
C199   C     0.03751   0.81676   0.53838   0.00000  Uiso   1.00
C200   C     0.96660   0.85356   0.60031   0.00000  Uiso   1.00
C201   C     0.97990   0.85389   0.65772   0.00000  Uiso   1.00
C202   C     0.09394   0.83967   0.42880   0.00000  Uiso   1.00
C203   C     0.07048   0.89572   0.39858   0.00000  Uiso   1.00
C204   C     0.13128   0.91533   0.36373   0.00000  Uiso   1.00
C205   C     0.08366   0.72774   0.43522   0.00000  Uiso   1.00
C206   C     0.05157   0.68969   0.41038   0.00000  Uiso   1.00
C207   C     0.10373   0.61506   0.38091   0.00000  Uiso   1.00
H208   H     0.25051   0.71725   0.45771   0.00000  Uiso   1.00
H209   H     0.19516   0.75454   0.58783   0.00000  Uiso   1.00
H210   H     0.29902   0.79669   0.38612   0.00000  Uiso   1.00
H211   H     0.28011   0.59069   0.39792   0.00000  Uiso   1.00
H212   H     0.09793   0.81145   0.73404   0.00000  Uiso   1.00
H213   H     0.31694   0.90030   0.30870   0.00000  Uiso   1.00
H214   H     0.27707   0.46590   0.33358   0.00000  Uiso   1.00
H215   H     0.97420   0.83696   0.47278   0.00000  Uiso   1.00
H216   H     0.90369   0.88082   0.60373   0.00000  Uiso   1.00
H217   H     0.00755   0.92297   0.40202   0.00000  Uiso   1.00
H218   H     0.98864   0.71697   0.41382   0.00000  Uiso   1.00
H219   H     0.86137   0.91394   0.74694   0.00000  Uiso   1.00
H220   H     0.08038   0.00279   0.32160   0.00000  Uiso   1.00
H221   H     0.04050   0.56839   0.34649   0.00000  Uiso   1.00
O222   O     0.93825   0.88940   0.82636   0.00000  Uiso   1.00
O223   O     0.22559   0.00596   0.26832   0.00000  Uiso   1.00
O224   O     0.17328   0.43605   0.30097   0.00000  Uiso   1.00
N225   N     0.05193   0.82953   0.71911   0.00000  Uiso   1.00
N226   N     0.25669   0.91262   0.32145   0.00000  Uiso   1.00
N227   N     0.21942   0.50650   0.34470   0.00000  Uiso   1.00
N228   N     0.92464   0.88468   0.72605   0.00000  Uiso   1.00
N229   N     0.12939   0.96776   0.32840   0.00000  Uiso   1.00
N230   N     0.09213   0.56164   0.35164   0.00000  Uiso   1.00
C231   C     0.77939   0.77483   0.36219   0.00000  Uiso   1.00
C232   C     0.79984   0.83557   0.37682   0.00000  Uiso   1.00
C233   C     0.85583   0.85241   0.32951   0.00000  Uiso   1.00
C234   C     0.86577   0.90998   0.35300   0.00000  Uiso   1.00
C235   C     0.90427   0.99836   0.36531   0.00000  Uiso   1.00
C236   C     0.68402   0.81167   0.38735   0.00000  Uiso   1.00
C237   C     0.64263   0.80840   0.34890   0.00000  Uiso   1.00
C238   C     0.55507   0.84584   0.38125   0.00000  Uiso   1.00
C239   C     0.41375   0.89705   0.40992   0.00000  Uiso   1.00
C240   C     0.79815   0.72679   0.40864   0.00000  Uiso   1.00
C241   C     0.85272   0.65214   0.38809   0.00000  Uiso   1.00
C242   C     0.86123   0.61811   0.43837   0.00000  Uiso   1.00
C243   C     0.89712   0.53753   0.50009   0.00000  Uiso   1.00
C244   C     0.69747   0.84712   0.48803   0.00000  Uiso   1.00
C245   C     0.75534   0.87484   0.44517   0.00000  Uiso   1.00
C246   C     0.76520   0.93240   0.46873   0.00000  Uiso   1.00
C247   C     0.82120   0.94932   0.42147   0.00000  Uiso   1.00
C248   C     0.63952   0.85093   0.45569   0.00000  Uiso   1.00
C249   C     0.55200   0.88838   0.48812   0.00000  Uiso   1.00
C250   C     0.51049   0.88517   0.44972   0.00000  Uiso   1.00
C251   C     0.75366   0.76605   0.47699   0.00000  Uiso   1.00
C252   C     0.76209   0.73213   0.52731   0.00000  Uiso   1.00
C253   C     0.81665   0.65744   0.50684   0.00000  Uiso   1.00
H254   H     0.81402   0.74426   0.30898   0.00000  Uiso   1.00
H255   H     0.89025   0.82202   0.27662   0.00000  Uiso   1.00
H256   H     0.67708   0.77800   0.29601   0.00000  Uiso   1.00
H257   H     0.88714   0.62177   0.33519   0.00000  Uiso   1.00
H258   H     0.95511   0.92556   0.27089   0.00000  Uiso   1.00
H259   H     0.50564   0.83273   0.31177   0.00000  Uiso   1.00
H260   H     0.94858   0.50329   0.39440   0.00000  Uiso   1.00
H261   H     0.66283   0.87769   0.54124   0.00000  Uiso   1.00
H262   H     0.73076   0.96277   0.52163   0.00000  Uiso   1.00
H263   H     0.51759   0.91876   0.54101   0.00000  Uiso   1.00
H264   H     0.72764   0.76253   0.58020   0.00000  Uiso   1.00
H265   H     0.82566   0.03981   0.46974   0.00000  Uiso   1.00
H266   H     0.37619   0.94697   0.51062   0.00000  Uiso   1.00
H267   H     0.81913   0.61753   0.59325   0.00000  Uiso   1.00
O268   O     0.93778   0.03626   0.35322   0.00000  Uiso   1.00
O269   O     0.34809   0.91446   0.40685   0.00000  Uiso   1.00
O270   O     0.92922   0.48224   0.51526   0.00000  Uiso   1.00
N271   N     0.91534   0.94076   0.32038   0.00000  Uiso   1.00
N272   N     0.49510   0.85398   0.35860   0.00000  Uiso   1.00
N273   N     0.90920   0.54598   0.43585   0.00000  Uiso   1.00
N274   N     0.84568   0.00224   0.42738   0.00000  Uiso   1.00
N275   N     0.42545   0.91546   0.46560   0.00000  Uiso   1.00
N276   N     0.83955   0.60745   0.54285   0.00000  Uiso   1.00
C277   C     0.87691   0.73566   0.15181   0.00000  Uiso   1.00
C278   C     0.96864   0.68932   0.13769   0.00000  Uiso   1.00
C279   C     0.99801   0.67633   0.18620   0.00000  Uiso   1.00
C280   C     0.08419   0.63243   0.16300   0.00000  Uiso   1.00
C281   C     0.21828   0.56498   0.15162   0.00000  Uiso   1.00
C282   C     0.85572   0.68612   0.11649   0.00000  Uiso   1.00
C283   C     0.79015   0.67046   0.14717   0.00000  Uiso   1.00
C284   C     0.78127   0.62388   0.10611   0.00000  Uiso   1.00
C285   C     0.74003   0.55151   0.06179   0.00000  Uiso   1.00
C286   C     0.87545   0.79394   0.11389   0.00000  Uiso   1.00
C287   C     0.82644   0.86893   0.14238   0.00000  Uiso   1.00
C288   C     0.83415   0.91312   0.09914   0.00000  Uiso   1.00
C289   C     0.82353   0.00815   0.05079   0.00000  Uiso   1.00
C290   C     0.97771   0.68080   0.02434   0.00000  Uiso   1.00
C291   C     0.02339   0.65952   0.06846   0.00000  Uiso   1.00
C292   C     0.10954   0.61563   0.04518   0.00000  Uiso   1.00
C293   C     0.13904   0.60258   0.09364   0.00000  Uiso   1.00
C294   C     0.91047   0.65632   0.04725   0.00000  Uiso   1.00
C295   C     0.90168   0.60976   0.00614   0.00000  Uiso   1.00
C296   C     0.83612   0.59403   0.03675   0.00000  Uiso   1.00
C297   C     0.93020   0.76414   0.04466   0.00000  Uiso   1.00
C298   C     0.93798   0.80823   0.00136   0.00000  Uiso   1.00
C299   C     0.88900   0.88327   0.02978   0.00000  Uiso   1.00
H300   H     0.83428   0.75886   0.20571   0.00000  Uiso   1.00
H301   H     0.95562   0.69940   0.23978   0.00000  Uiso   1.00
H302   H     0.74779   0.69353   0.20074   0.00000  Uiso   1.00
H303   H     0.78408   0.89197   0.19596   0.00000  Uiso   1.00
H304   H     0.11429   0.62031   0.24702   0.00000  Uiso   1.00
H305   H     0.67605   0.60796   0.16471   0.00000  Uiso   1.00
H306   H     0.75257   0.02641   0.15463   0.00000  Uiso   1.00
H307   H     0.02034   0.65760   0.97044   0.00000  Uiso   1.00
H308   H     0.15190   0.59258   0.99160   0.00000  Uiso   1.00
H309   H     0.94406   0.58671   0.95257   0.00000  Uiso   1.00
H310   H     0.98035   0.78515   0.94778   0.00000  Uiso   1.00
H311   H     0.27359   0.53361   0.04558   0.00000  Uiso   1.00
H312   H     0.83535   0.52127   0.96328   0.00000  Uiso   1.00
H313   H     0.91188   0.93971   0.95319   0.00000  Uiso   1.00
O314   O     0.27712   0.53600   0.16446   0.00000  Uiso   1.00
O315   O     0.70215   0.51981   0.05648   0.00000  Uiso   1.00
O316   O     0.80256   0.06880   0.04325   0.00000  Uiso   1.00
N317   N     0.13373   0.60884   0.19671   0.00000  Uiso   1.00
N318   N     0.72401   0.59729   0.11976   0.00000  Uiso   1.00
N319   N     0.79553   0.98850   0.11033   0.00000  Uiso   1.00
N320   N     0.21945   0.56219   0.08832   0.00000  Uiso   1.00
N321   N     0.80973   0.55064   0.01137   0.00000  Uiso   1.00
N322   N     0.88126   0.94184   0.00194   0.00000  Uiso   1.00
C323   C     0.34637   0.80315   0.59713   0.00000  Uiso   1.00
C324   C     0.34842   0.74627   0.63685   0.00000  Uiso   1.00
C325   C     0.27984   0.73719   0.67536   0.00000  Uiso   1.00
C326   C     0.29475   0.68203   0.70782   0.00000  Uiso   1.00
C327   C     0.28569   0.60045   0.77036   0.00000  Uiso   1.00
C328   C     0.41125   0.76057   0.52421   0.00000  Uiso   1.00
C329   C     0.39548   0.76352   0.46801   0.00000  Uiso   1.00
C330   C     0.46328   0.72041   0.40566   0.00000  Uiso   1.00
C331   C     0.55176   0.66107   0.29332   0.00000  Uiso   1.00
C332   C     0.38117   0.84653   0.62293   0.00000  Uiso   1.00
C333   C     0.34013   0.92177   0.64971   0.00000  Uiso   1.00
C334   C     0.38262   0.95104   0.67046   0.00000  Uiso   1.00
C335   C     0.42439   0.02518   0.71138   0.00000  Uiso   1.00
C336   C     0.49481   0.72134   0.58633   0.00000  Uiso   1.00
C337   C     0.42905   0.70183   0.63098   0.00000  Uiso   1.00
C338   C     0.44407   0.64668   0.66341   0.00000  Uiso   1.00
C339   C     0.37552   0.63752   0.70195   0.00000  Uiso   1.00
C340   C     0.49187   0.71614   0.51835   0.00000  Uiso   1.00
C341   C     0.55971   0.67301   0.45606   0.00000  Uiso   1.00
C342   C     0.54406   0.67589   0.39978   0.00000  Uiso   1.00
C343   C     0.46179   0.80210   0.61706   0.00000  Uiso   1.00
C344   C     0.50436   0.83126   0.63776   0.00000  Uiso   1.00
C345   C     0.46339   0.90653   0.66458   0.00000  Uiso   1.00
H346   H     0.28360   0.83774   0.60170   0.00000  Uiso   1.00
H347   H     0.21746   0.77158   0.67988   0.00000  Uiso   1.00
H348   H     0.33309   0.79792   0.47257   0.00000  Uiso   1.00
H349   H     0.27774   0.95614   0.65424   0.00000  Uiso   1.00
H350   H     0.17969   0.67862   0.76395   0.00000  Uiso   1.00
H351   H     0.42350   0.73417   0.32682   0.00000  Uiso   1.00
H352   H     0.30679   0.06782   0.70991   0.00000  Uiso   1.00
H353   H     0.55758   0.68675   0.58176   0.00000  Uiso   1.00
H354   H     0.50647   0.61230   0.65886   0.00000  Uiso   1.00
H355   H     0.62210   0.63864   0.45154   0.00000  Uiso   1.00
H356   H     0.56675   0.79686   0.63322   0.00000  Uiso   1.00
H357   H     0.41426   0.54935   0.74688   0.00000  Uiso   1.00
H358   H     0.65807   0.60489   0.30975   0.00000  Uiso   1.00
H359   H     0.54136   0.93854   0.69285   0.00000  Uiso   1.00
O360   O     0.25841   0.56772   0.80647   0.00000  Uiso   1.00
O361   O     0.57828   0.64061   0.23298   0.00000  Uiso   1.00
O362   O     0.42516   0.07835   0.73559   0.00000  Uiso   1.00
N363   N     0.24191   0.65842   0.74936   0.00000  Uiso   1.00
N364   N     0.46985   0.71035   0.34068   0.00000  Uiso   1.00
N365   N     0.36074   0.02228   0.69882   0.00000  Uiso   1.00
N366   N     0.36813   0.58886   0.74018   0.00000  Uiso   1.00
N367   N     0.59607   0.64078   0.33149   0.00000  Uiso   1.00
N368   N     0.48697   0.95272   0.68964   0.00000  Uiso   1.00
C369   C     0.35106   0.78523   0.06360   0.00000  Uiso   1.00
C370   C     0.39759   0.76071   0.98653   0.00000  Uiso   1.00
C371   C     0.44889   0.78636   0.94625   0.00000  Uiso   1.00
C372   C     0.48580   0.75704   0.87678   0.00000  Uiso   1.00
C373   C     0.56022   0.72701   0.76139   0.00000  Uiso   1.00
C374   C     0.37982   0.71604   0.08702   0.00000  Uiso   1.00
C375   C     0.41615   0.70414   0.13123   0.00000  Uiso   1.00
C376   C     0.43809   0.63721   0.14634   0.00000  Uiso   1.00
C377   C     0.48484   0.53786   0.18700   0.00000  Uiso   1.00
C378   C     0.25818   0.81199   0.08178   0.00000  Uiso   1.00
C379   C     0.19223   0.88076   0.12161   0.00000  Uiso   1.00
C380   C     0.11174   0.89461   0.13233   0.00000  Uiso   1.00
C381   C     0.96964   0.94423   0.16486   0.00000  Uiso   1.00
C382   C     0.32538   0.68755   0.01185   0.00000  Uiso   1.00
C383   C     0.38365   0.70765   0.95843   0.00000  Uiso   1.00
C384   C     0.42049   0.67829   0.88899   0.00000  Uiso   1.00
C385   C     0.47183   0.70389   0.84862   0.00000  Uiso   1.00
C386   C     0.36587   0.66299   0.05891   0.00000  Uiso   1.00
C387   C     0.38775   0.59606   0.07397   0.00000  Uiso   1.00
C388   C     0.42412   0.58406   0.11819   0.00000  Uiso   1.00
C389   C     0.24423   0.75894   0.05367   0.00000  Uiso   1.00
C390   C     0.16383   0.77268   0.06434   0.00000  Uiso   1.00
C391   C     0.09777   0.84145   0.10417   0.00000  Uiso   1.00
H392   H     0.36192   0.82653   0.08549   0.00000  Uiso   1.00
H393   H     0.45968   0.82742   0.96803   0.00000  Uiso   1.00
H394   H     0.42693   0.74521   0.15298   0.00000  Uiso   1.00
H395   H     0.20305   0.92180   0.14335   0.00000  Uiso   1.00
H396   H     0.56194   0.80497   0.82540   0.00000  Uiso   1.00
H397   H     0.49287   0.63165   0.21540   0.00000  Uiso   1.00
H398   H     0.02076   0.00402   0.19511   0.00000  Uiso   1.00
H399   H     0.31452   0.64624   0.98996   0.00000  Uiso   1.00
H400   H     0.40968   0.63723   0.86725   0.00000  Uiso   1.00
H401   H     0.37694   0.55502   0.05221   0.00000  Uiso   1.00
H402   H     0.15306   0.73161   0.04258   0.00000  Uiso   1.00
H403   H     0.52137   0.65061   0.74361   0.00000  Uiso   1.00
H404   H     0.45229   0.47728   0.13362   0.00000  Uiso   1.00
H405   H     0.98019   0.84966   0.11332   0.00000  Uiso   1.00
O406   O     0.60513   0.72510   0.70551   0.00000  Uiso   1.00
O407   O     0.51449   0.49771   0.21719   0.00000  Uiso   1.00
O408   O     0.89511   0.98625   0.19056   0.00000  Uiso   1.00
N409   N     0.53931   0.76989   0.82299   0.00000  Uiso   1.00
N410   N     0.47475   0.60784   0.18761   0.00000  Uiso   1.00
N411   N     0.03337   0.95597   0.16865   0.00000  Uiso   1.00
N412   N     0.51748   0.68683   0.77898   0.00000  Uiso   1.00
N413   N     0.45292   0.52477   0.14360   0.00000  Uiso   1.00
N414   N     0.01154   0.87291   0.12464   0.00000  Uiso   1.00
C415   C     0.21988   0.33479   0.12959   0.00000  Uiso   1.00
C416   C     0.23808   0.27490   0.16583   0.00000  Uiso   1.00
C417   C     0.27374   0.26951   0.21033   0.00000  Uiso   1.00
C418   C     0.28526   0.21066   0.23820   0.00000  Uiso   1.00
C419   C     0.31711   0.12549   0.29689   0.00000  Uiso   1.00
C420   C     0.26610   0.29575   0.05426   0.00000  Uiso   1.00
C421   C     0.32531   0.30791   0.00496   0.00000  Uiso   1.00
C422   C     0.36041   0.26660   0.93891   0.00000  Uiso   1.00
C423   C     0.43572   0.21385   0.82439   0.00000  Uiso   1.00
C424   C     0.12603   0.36864   0.14836   0.00000  Uiso   1.00
C425   C     0.06746   0.44209   0.17816   0.00000  Uiso   1.00
C426   C     0.98463   0.46216   0.19133   0.00000  Uiso   1.00
C427   C     0.84246   0.52257   0.22291   0.00000  Uiso   1.00
C428   C     0.17693   0.23983   0.09996   0.00000  Uiso   1.00
C429   C     0.21475   0.22332   0.14974   0.00000  Uiso   1.00
C430   C     0.22622   0.16446   0.17755   0.00000  Uiso   1.00
C431   C     0.26189   0.15899   0.22208   0.00000  Uiso   1.00
C432   C     0.24278   0.24417   0.03817   0.00000  Uiso   1.00
C433   C     0.27779   0.20285   0.97218   0.00000  Uiso   1.00
C434   C     0.33704   0.21494   0.92279   0.00000  Uiso   1.00
C435   C     0.10270   0.31706   0.13228   0.00000  Uiso   1.00
C436   C     0.01995   0.33703   0.14539   0.00000  Uiso   1.00
C437   C     0.96126   0.41049   0.17521   0.00000  Uiso   1.00
H438   H     0.23804   0.37494   0.14211   0.00000  Uiso   1.00
H439   H     0.29179   0.30944   0.22276   0.00000  Uiso   1.00
H440   H     0.34334   0.34783   0.01742   0.00000  Uiso   1.00
H441   H     0.08553   0.48198   0.19061   0.00000  Uiso   1.00
H442   H     0.34112   0.21405   0.30506   0.00000  Uiso   1.00
H443   H     0.44980   0.29502   0.87209   0.00000  Uiso   1.00
H444   H     0.90617   0.57792   0.23728   0.00000  Uiso   1.00
H445   H     0.15877   0.19968   0.08743   0.00000  Uiso   1.00
H446   H     0.20817   0.12455   0.16509   0.00000  Uiso   1.00
H447   H     0.25972   0.16294   0.95975   0.00000  Uiso   1.00
H448   H     0.00192   0.29710   0.13293   0.00000  Uiso   1.00
H449   H     0.27325   0.06399   0.25825   0.00000  Uiso   1.00
H450   H     0.38194   0.14496   0.82528   0.00000  Uiso   1.00
H451   H     0.83830   0.42786   0.19047   0.00000  Uiso   1.00
O452   O     0.34114   0.09275   0.33370   0.00000  Uiso   1.00
O453   O     0.48371   0.19899   0.76567   0.00000  Uiso   1.00
O454   O     0.77048   0.57014   0.24479   0.00000  Uiso   1.00
N455   N     0.31835   0.18905   0.28340   0.00000  Uiso   1.00
N456   N     0.41998   0.26474   0.87860   0.00000  Uiso   1.00
N457   N     0.91172   0.52923   0.22000   0.00000  Uiso   1.00
N458   N     0.28183   0.10831   0.25821   0.00000  Uiso   1.00
N459   N     0.38346   0.18400   0.85341   0.00000  Uiso   1.00
N460   N     0.87520   0.44849   0.19481   0.00000  Uiso   1.00
C461   C     0.81280   0.25532   0.53883   0.00000  Uiso   1.00
C462   C     0.88119   0.21847   0.46605   0.00000  Uiso   1.00
C463   C     0.86778   0.21819   0.40872   0.00000  Uiso   1.00
C464   C     0.93864   0.18140   0.34672   0.00000  Uiso   1.00
C465   C     0.03246   0.12950   0.23438   0.00000  Uiso   1.00
C466   C     0.82476   0.19556   0.57563   0.00000  Uiso   1.00
C467   C     0.76390   0.17603   0.61045   0.00000  Uiso   1.00
C468   C     0.78727   0.11996   0.64071   0.00000  Uiso   1.00
C469   C     0.79346   0.03253   0.69855   0.00000  Uiso   1.00
C470   C     0.83503   0.30749   0.56922   0.00000  Uiso   1.00
C471   C     0.78281   0.38207   0.59866   0.00000  Uiso   1.00
C472   C     0.81482   0.42023   0.62353   0.00000  Uiso   1.00
C473   C     0.83696   0.50659   0.67141   0.00000  Uiso   1.00
C474   C     0.96249   0.19047   0.53067   0.00000  Uiso   1.00
C475   C     0.96249   0.18324   0.46162   0.00000  Uiso   1.00
C476   C     0.03340   0.14644   0.39969   0.00000  Uiso   1.00
C477   C     0.02010   0.14611   0.34228   0.00000  Uiso   1.00
C478   C     0.90606   0.16033   0.57120   0.00000  Uiso   1.00
C479   C     0.92952   0.10428   0.60142   0.00000  Uiso   1.00
C480   C     0.86872   0.08467   0.63627   0.00000  Uiso   1.00
C481   C     0.91634   0.27226   0.56478   0.00000  Uiso   1.00
C482   C     0.94843   0.31031   0.58962   0.00000  Uiso   1.00
C483   C     0.89627   0.38494   0.61909   0.00000  Uiso   1.00
H484   H     0.74949   0.28275   0.54229   0.00000  Uiso   1.00
H485   H     0.80484   0.24546   0.41217   0.00000  Uiso   1.00
H486   H     0.70098   0.20331   0.61388   0.00000  Uiso   1.00
H487   H     0.71989   0.40931   0.60208   0.00000  Uiso   1.00
H488   H     0.90207   0.18855   0.26596   0.00000  Uiso   1.00
H489   H     0.68306   0.09970   0.69130   0.00000  Uiso   1.00
H490   H     0.72293   0.53410   0.66642   0.00000  Uiso   1.00
H491   H     0.02580   0.16304   0.52722   0.00000  Uiso   1.00
H492   H     0.09631   0.11918   0.39627   0.00000  Uiso   1.00
H493   H     0.99245   0.07703   0.59798   0.00000  Uiso   1.00
H494   H     0.01136   0.28303   0.58618   0.00000  Uiso   1.00
H495   H     0.13863   0.08606   0.25306   0.00000  Uiso   1.00
H496   H     0.91962   0.99721   0.67840   0.00000  Uiso   1.00
H497   H     0.95950   0.43161   0.65351   0.00000  Uiso   1.00
O498   O     0.06175   0.11060   0.17364   0.00000  Uiso   1.00
O499   O     0.77441   0.99404   0.73168   0.00000  Uiso   1.00
O500   O     0.82672   0.56395   0.69903   0.00000  Uiso   1.00
N501   N     0.94807   0.17047   0.28089   0.00000  Uiso   1.00
N502   N     0.74331   0.08738   0.67855   0.00000  Uiso   1.00
N503   N     0.78058   0.49350   0.65530   0.00000  Uiso   1.00
N504   N     0.07536   0.11532   0.27395   0.00000  Uiso   1.00
N505   N     0.87061   0.03224   0.67160   0.00000  Uiso   1.00
N506   N     0.90787   0.43836   0.64836   0.00000  Uiso   1.00
C507   C     0.22061   0.22517   0.63781   0.00000  Uiso   1.00
C508   C     0.20016   0.16443   0.62318   0.00000  Uiso   1.00
C509   C     0.14417   0.14759   0.67049   0.00000  Uiso   1.00
C510   C     0.13423   0.09002   0.64700   0.00000  Uiso   1.00
C511   C     0.09573   0.00164   0.63469   0.00000  Uiso   1.00
C512   C     0.31598   0.18833   0.61265   0.00000  Uiso   1.00
C513   C     0.35737   0.19160   0.65110   0.00000  Uiso   1.00
C514   C     0.44493   0.15416   0.61875   0.00000  Uiso   1.00
C515   C     0.58625   0.10295   0.59008   0.00000  Uiso   1.00
C516   C     0.20185   0.27321   0.59136   0.00000  Uiso   1.00
C517   C     0.14728   0.34786   0.61191   0.00000  Uiso   1.00
C518   C     0.13877   0.38189   0.56163   0.00000  Uiso   1.00
C519   C     0.10288   0.46247   0.49991   0.00000  Uiso   1.00
C520   C     0.30253   0.15288   0.51197   0.00000  Uiso   1.00
C521   C     0.24466   0.12516   0.55483   0.00000  Uiso   1.00
C522   C     0.23480   0.06760   0.53127   0.00000  Uiso   1.00
C523   C     0.17880   0.05068   0.57853   0.00000  Uiso   1.00
C524   C     0.36048   0.14907   0.54431   0.00000  Uiso   1.00
C525   C     0.44800   0.11162   0.51188   0.00000  Uiso   1.00
C526   C     0.48951   0.11483   0.55028   0.00000  Uiso   1.00
C527   C     0.24634   0.23395   0.52301   0.00000  Uiso   1.00
C528   C     0.23791   0.26787   0.47269   0.00000  Uiso   1.00
C529   C     0.18335   0.34256   0.49316   0.00000  Uiso   1.00
H530   H     0.18598   0.25574   0.69102   0.00000  Uiso   1.00
H531   H     0.10975   0.17798   0.72338   0.00000  Uiso   1.00
H532   H     0.32292   0.22200   0.70399   0.00000  Uiso   1.00
H533   H     0.11286   0.37823   0.66481   0.00000  Uiso   1.00
H534   H     0.04489   0.07444   0.72911   0.00000  Uiso   1.00
H535   H     0.49436   0.16727   0.68823   0.00000  Uiso   1.00
H536   H     0.05142   0.49671   0.60560   0.00000  Uiso   1.00
H537   H     0.33717   0.12231   0.45876   0.00000  Uiso   1.00
H538   H     0.26924   0.03723   0.47837   0.00000  Uiso   1.00
H539   H     0.48241   0.08124   0.45899   0.00000  Uiso   1.00
H540   H     0.27236   0.23747   0.41980   0.00000  Uiso   1.00
H541   H     0.17434   0.96019   0.53026   0.00000  Uiso   1.00
H542   H     0.62381   0.05303   0.48938   0.00000  Uiso   1.00
H543   H     0.18087   0.38247   0.40675   0.00000  Uiso   1.00
O544   O     0.06222   0.96374   0.64678   0.00000  Uiso   1.00
O545   O     0.65191   0.08554   0.59315   0.00000  Uiso   1.00
O546   O     0.07078   0.51776   0.48474   0.00000  Uiso   1.00
N547   N     0.08466   0.05924   0.67962   0.00000  Uiso   1.00
N548   N     0.50490   0.14602   0.64140   0.00000  Uiso   1.00
N549   N     0.09080   0.45402   0.56415   0.00000  Uiso   1.00
N550   N     0.15432   0.99776   0.57262   0.00000  Uiso   1.00
N551   N     0.57455   0.08454   0.53440   0.00000  Uiso   1.00
N552   N     0.16045   0.39255   0.45715   0.00000  Uiso   1.00
