data_job_01560
_audit_creation_date              2018-12-19
_audit_creation_method            'Materials Studio'
_symmetry_space_group_name_H-M    'P1'
_symmetry_Int_Tables_number       1
_symmetry_cell_setting            triclinic
loop_
_symmetry_equiv_pos_as_xyz
  x,y,z
_cell_length_a                    12.7284
_cell_length_b                    29.8793
_cell_length_c                    14.8924
_cell_angle_alpha                 90.0000
_cell_angle_beta                  124.5856
_cell_angle_gamma                 90.0000
loop_
_atom_site_label
_atom_site_type_symbol
_atom_site_fract_x
_atom_site_fract_y
_atom_site_fract_z
_atom_site_U_iso_or_equiv
_atom_site_adp_type
_atom_site_occupancy
C1     C     0.25153   0.91667   0.90260   0.00000  Uiso   1.00
C2     C     0.38991   0.91257   0.00035   0.00000  Uiso   1.00
C3     C     0.45293   0.94198   0.08779   0.00000  Uiso   1.00
C4     C     0.57942   0.93237   0.16909   0.00000  Uiso   1.00
C5     C     0.78499   0.93174   0.32176   0.00000  Uiso   1.00
C6     C     0.25507   0.91695   0.80196   0.00000  Uiso   1.00
C7     C     0.20472   0.95006   0.72259   0.00000  Uiso   1.00
C8     C     0.21770   0.94413   0.63687   0.00000  Uiso   1.00
C9     C     0.21386   0.95030   0.48148   0.00000  Uiso   1.00
C10    C     0.18677   0.87295   0.89788   0.00000  Uiso   1.00
C11    C     0.07896   0.86905   0.89913   0.00000  Uiso   1.00
C12    C     0.03442   0.82608   0.89414   0.00000  Uiso   1.00
C13    C     0.92453   0.76392   0.88769   0.00000  Uiso   1.00
C14    C     0.36411   0.84729   0.89148   0.00000  Uiso   1.00
C15    C     0.45105   0.87488   0.99431   0.00000  Uiso   1.00
C16    C     0.57748   0.86522   0.07549   0.00000  Uiso   1.00
C17    C     0.64068   0.89461   0.16304   0.00000  Uiso   1.00
C18    C     0.31622   0.87927   0.79591   0.00000  Uiso   1.00
C19    C     0.32927   0.87329   0.71029   0.00000  Uiso   1.00
C20    C     0.27895   0.90638   0.63081   0.00000  Uiso   1.00
C21    C     0.24792   0.83526   0.89184   0.00000  Uiso   1.00
C22    C     0.20352   0.79229   0.88684   0.00000  Uiso   1.00
C23    C     0.09567   0.78832   0.88809   0.00000  Uiso   1.00
H24    H     0.20393   0.94601   0.90730   0.00000  Uiso   1.00
H25    H     0.40558   0.97114   0.09243   0.00000  Uiso   1.00
H26    H     0.15739   0.97921   0.72728   0.00000  Uiso   1.00
H27    H     0.03167   0.89822   0.90380   0.00000  Uiso   1.00
H28    H     0.65612   0.98240   0.29500   0.00000  Uiso   1.00
H29    H     0.13278   0.99941   0.52504   0.00000  Uiso   1.00
H30    H     0.86766   0.82862   0.89727   0.00000  Uiso   1.00
H31    H     0.41171   0.81795   0.88678   0.00000  Uiso   1.00
H32    H     0.62477   0.83605   0.07080   0.00000  Uiso   1.00
H33    H     0.37658   0.84412   0.70564   0.00000  Uiso   1.00
H34    H     0.25086   0.76313   0.88216   0.00000  Uiso   1.00
H35    H     0.83403   0.87276   0.27744   0.00000  Uiso   1.00
H36    H     0.31067   0.88976   0.50747   0.00000  Uiso   1.00
H37    H     0.04556   0.71897   0.87970   0.00000  Uiso   1.00
O38    O     0.88150   0.94181   0.40763   0.00000  Uiso   1.00
O39    O     0.19486   0.96412   0.39745   0.00000  Uiso   1.00
O40    O     0.84704   0.74004   0.88581   0.00000  Uiso   1.00
N41    N     0.66875   0.95411   0.26563   0.00000  Uiso   1.00
N42    N     0.17947   0.97001   0.54576   0.00000  Uiso   1.00
N43    N     0.93158   0.81034   0.89374   0.00000  Uiso   1.00
N44    N     0.76448   0.89511   0.25618   0.00000  Uiso   1.00
N45    N     0.27519   0.91101   0.53631   0.00000  Uiso   1.00
N46    N     0.02731   0.75134   0.88429   0.00000  Uiso   1.00
C47    C     0.75153   0.41667   0.90260   0.00000  Uiso   1.00
C48    C     0.88991   0.41257   0.00035   0.00000  Uiso   1.00
C49    C     0.95293   0.44198   0.08779   0.00000  Uiso   1.00
C50    C     0.07942   0.43237   0.16909   0.00000  Uiso   1.00
C51    C     0.28499   0.43174   0.32176   0.00000  Uiso   1.00
C52    C     0.75507   0.41695   0.80196   0.00000  Uiso   1.00
C53    C     0.70472   0.45006   0.72259   0.00000  Uiso   1.00
C54    C     0.71770   0.44413   0.63687   0.00000  Uiso   1.00
C55    C     0.71386   0.45030   0.48148   0.00000  Uiso   1.00
C56    C     0.68677   0.37295   0.89788   0.00000  Uiso   1.00
C57    C     0.57896   0.36905   0.89913   0.00000  Uiso   1.00
C58    C     0.53442   0.32608   0.89414   0.00000  Uiso   1.00
C59    C     0.42453   0.26392   0.88769   0.00000  Uiso   1.00
C60    C     0.86411   0.34729   0.89148   0.00000  Uiso   1.00
C61    C     0.95105   0.37488   0.99431   0.00000  Uiso   1.00
C62    C     0.07748   0.36522   0.07549   0.00000  Uiso   1.00
C63    C     0.14068   0.39461   0.16304   0.00000  Uiso   1.00
C64    C     0.81622   0.37927   0.79591   0.00000  Uiso   1.00
C65    C     0.82927   0.37329   0.71029   0.00000  Uiso   1.00
C66    C     0.77895   0.40638   0.63081   0.00000  Uiso   1.00
C67    C     0.74792   0.33526   0.89184   0.00000  Uiso   1.00
C68    C     0.70352   0.29229   0.88684   0.00000  Uiso   1.00
C69    C     0.59567   0.28832   0.88809   0.00000  Uiso   1.00
H70    H     0.70393   0.44601   0.90730   0.00000  Uiso   1.00
H71    H     0.90558   0.47114   0.09243   0.00000  Uiso   1.00
H72    H     0.65739   0.47921   0.72728   0.00000  Uiso   1.00
H73    H     0.53167   0.39822   0.90380   0.00000  Uiso   1.00
H74    H     0.15612   0.48240   0.29500   0.00000  Uiso   1.00
H75    H     0.63278   0.49941   0.52504   0.00000  Uiso   1.00
H76    H     0.36766   0.32862   0.89727   0.00000  Uiso   1.00
H77    H     0.91171   0.31795   0.88678   0.00000  Uiso   1.00
H78    H     0.12477   0.33605   0.07080   0.00000  Uiso   1.00
H79    H     0.87658   0.34412   0.70564   0.00000  Uiso   1.00
H80    H     0.75086   0.26313   0.88216   0.00000  Uiso   1.00
H81    H     0.33403   0.37276   0.27744   0.00000  Uiso   1.00
H82    H     0.81067   0.38976   0.50747   0.00000  Uiso   1.00
H83    H     0.54556   0.21897   0.87970   0.00000  Uiso   1.00
O84    O     0.38150   0.44181   0.40763   0.00000  Uiso   1.00
O85    O     0.69486   0.46412   0.39745   0.00000  Uiso   1.00
O86    O     0.34704   0.24004   0.88581   0.00000  Uiso   1.00
N87    N     0.16875   0.45411   0.26563   0.00000  Uiso   1.00
N88    N     0.67947   0.47001   0.54576   0.00000  Uiso   1.00
N89    N     0.43158   0.31034   0.89374   0.00000  Uiso   1.00
N90    N     0.26448   0.39511   0.25618   0.00000  Uiso   1.00
N91    N     0.77519   0.41101   0.53631   0.00000  Uiso   1.00
N92    N     0.52731   0.25134   0.88429   0.00000  Uiso   1.00
C93    C     0.74847   0.91667   0.59740   0.00000  Uiso   1.00
C94    C     0.61009   0.91257   0.49965   0.00000  Uiso   1.00
C95    C     0.54707   0.94198   0.41221   0.00000  Uiso   1.00
C96    C     0.42058   0.93237   0.33091   0.00000  Uiso   1.00
C97    C     0.21501   0.93174   0.17824   0.00000  Uiso   1.00
C98    C     0.74493   0.91695   0.69804   0.00000  Uiso   1.00
C99    C     0.79528   0.95006   0.77741   0.00000  Uiso   1.00
C100   C     0.78230   0.94413   0.86313   0.00000  Uiso   1.00
C101   C     0.78614   0.95030   0.01852   0.00000  Uiso   1.00
C102   C     0.81323   0.87295   0.60212   0.00000  Uiso   1.00
C103   C     0.92104   0.86905   0.60087   0.00000  Uiso   1.00
C104   C     0.96558   0.82608   0.60586   0.00000  Uiso   1.00
C105   C     0.07547   0.76392   0.61231   0.00000  Uiso   1.00
C106   C     0.63589   0.84729   0.60852   0.00000  Uiso   1.00
C107   C     0.54895   0.87488   0.50569   0.00000  Uiso   1.00
C108   C     0.42252   0.86522   0.42451   0.00000  Uiso   1.00
C109   C     0.35932   0.89461   0.33696   0.00000  Uiso   1.00
C110   C     0.68378   0.87927   0.70409   0.00000  Uiso   1.00
C111   C     0.67073   0.87329   0.78971   0.00000  Uiso   1.00
C112   C     0.72105   0.90638   0.86919   0.00000  Uiso   1.00
C113   C     0.75208   0.83526   0.60816   0.00000  Uiso   1.00
C114   C     0.79648   0.79229   0.61316   0.00000  Uiso   1.00
C115   C     0.90433   0.78832   0.61191   0.00000  Uiso   1.00
H116   H     0.79607   0.94601   0.59270   0.00000  Uiso   1.00
H117   H     0.59442   0.97114   0.40757   0.00000  Uiso   1.00
H118   H     0.84261   0.97921   0.77272   0.00000  Uiso   1.00
H119   H     0.96833   0.89822   0.59620   0.00000  Uiso   1.00
H120   H     0.34388   0.98240   0.20500   0.00000  Uiso   1.00
H121   H     0.86722   0.99941   0.97496   0.00000  Uiso   1.00
H122   H     0.13234   0.82862   0.60273   0.00000  Uiso   1.00
H123   H     0.58829   0.81795   0.61322   0.00000  Uiso   1.00
H124   H     0.37523   0.83605   0.42920   0.00000  Uiso   1.00
H125   H     0.62342   0.84412   0.79436   0.00000  Uiso   1.00
H126   H     0.74914   0.76313   0.61784   0.00000  Uiso   1.00
H127   H     0.16597   0.87276   0.22256   0.00000  Uiso   1.00
H128   H     0.68933   0.88976   0.99253   0.00000  Uiso   1.00
H129   H     0.95444   0.71897   0.62030   0.00000  Uiso   1.00
O130   O     0.11850   0.94181   0.09237   0.00000  Uiso   1.00
O131   O     0.80514   0.96412   0.10255   0.00000  Uiso   1.00
O132   O     0.15296   0.74004   0.61419   0.00000  Uiso   1.00
N133   N     0.33125   0.95411   0.23437   0.00000  Uiso   1.00
N134   N     0.82053   0.97001   0.95424   0.00000  Uiso   1.00
N135   N     0.06842   0.81034   0.60626   0.00000  Uiso   1.00
N136   N     0.23552   0.89511   0.24382   0.00000  Uiso   1.00
N137   N     0.72481   0.91101   0.96369   0.00000  Uiso   1.00
N138   N     0.97269   0.75134   0.61571   0.00000  Uiso   1.00
C139   C     0.24847   0.41667   0.59740   0.00000  Uiso   1.00
C140   C     0.11009   0.41257   0.49965   0.00000  Uiso   1.00
C141   C     0.04707   0.44198   0.41221   0.00000  Uiso   1.00
C142   C     0.92058   0.43237   0.33091   0.00000  Uiso   1.00
C143   C     0.71501   0.43174   0.17824   0.00000  Uiso   1.00
C144   C     0.24493   0.41695   0.69804   0.00000  Uiso   1.00
C145   C     0.29528   0.45006   0.77741   0.00000  Uiso   1.00
C146   C     0.28230   0.44413   0.86313   0.00000  Uiso   1.00
C147   C     0.28614   0.45030   0.01852   0.00000  Uiso   1.00
C148   C     0.31323   0.37295   0.60212   0.00000  Uiso   1.00
C149   C     0.42104   0.36905   0.60087   0.00000  Uiso   1.00
C150   C     0.46558   0.32608   0.60586   0.00000  Uiso   1.00
C151   C     0.57547   0.26392   0.61231   0.00000  Uiso   1.00
C152   C     0.13589   0.34729   0.60852   0.00000  Uiso   1.00
C153   C     0.04895   0.37488   0.50569   0.00000  Uiso   1.00
C154   C     0.92252   0.36522   0.42451   0.00000  Uiso   1.00
C155   C     0.85932   0.39461   0.33696   0.00000  Uiso   1.00
C156   C     0.18378   0.37927   0.70409   0.00000  Uiso   1.00
C157   C     0.17073   0.37329   0.78971   0.00000  Uiso   1.00
C158   C     0.22105   0.40638   0.86919   0.00000  Uiso   1.00
C159   C     0.25208   0.33526   0.60816   0.00000  Uiso   1.00
C160   C     0.29648   0.29229   0.61316   0.00000  Uiso   1.00
C161   C     0.40433   0.28832   0.61191   0.00000  Uiso   1.00
H162   H     0.29607   0.44601   0.59270   0.00000  Uiso   1.00
H163   H     0.09442   0.47114   0.40757   0.00000  Uiso   1.00
H164   H     0.34261   0.47921   0.77272   0.00000  Uiso   1.00
H165   H     0.46833   0.39822   0.59620   0.00000  Uiso   1.00
H166   H     0.84388   0.48240   0.20500   0.00000  Uiso   1.00
H167   H     0.36722   0.49941   0.97496   0.00000  Uiso   1.00
H168   H     0.63234   0.32862   0.60273   0.00000  Uiso   1.00
H169   H     0.08829   0.31795   0.61322   0.00000  Uiso   1.00
H170   H     0.87523   0.33605   0.42920   0.00000  Uiso   1.00
H171   H     0.12342   0.34412   0.79436   0.00000  Uiso   1.00
H172   H     0.24914   0.26313   0.61784   0.00000  Uiso   1.00
H173   H     0.66597   0.37276   0.22256   0.00000  Uiso   1.00
H174   H     0.18933   0.38976   0.99253   0.00000  Uiso   1.00
H175   H     0.45444   0.21897   0.62030   0.00000  Uiso   1.00
O176   O     0.61850   0.44181   0.09237   0.00000  Uiso   1.00
O177   O     0.30514   0.46412   0.10255   0.00000  Uiso   1.00
O178   O     0.65296   0.24004   0.61419   0.00000  Uiso   1.00
N179   N     0.83125   0.45411   0.23437   0.00000  Uiso   1.00
N180   N     0.32053   0.47001   0.95424   0.00000  Uiso   1.00
N181   N     0.56842   0.31034   0.60626   0.00000  Uiso   1.00
N182   N     0.73552   0.39511   0.24382   0.00000  Uiso   1.00
N183   N     0.22481   0.41101   0.96369   0.00000  Uiso   1.00
N184   N     0.47269   0.25134   0.61571   0.00000  Uiso   1.00
C185   C     0.74847   0.08333   0.09740   0.00000  Uiso   1.00
C186   C     0.61009   0.08743   0.99965   0.00000  Uiso   1.00
C187   C     0.54707   0.05802   0.91221   0.00000  Uiso   1.00
C188   C     0.42058   0.06763   0.83091   0.00000  Uiso   1.00
C189   C     0.21501   0.06826   0.67824   0.00000  Uiso   1.00
C190   C     0.74493   0.08305   0.19804   0.00000  Uiso   1.00
C191   C     0.79528   0.04994   0.27741   0.00000  Uiso   1.00
C192   C     0.78230   0.05587   0.36313   0.00000  Uiso   1.00
C193   C     0.78614   0.04970   0.51852   0.00000  Uiso   1.00
C194   C     0.81323   0.12705   0.10212   0.00000  Uiso   1.00
C195   C     0.92104   0.13095   0.10087   0.00000  Uiso   1.00
C196   C     0.96558   0.17392   0.10586   0.00000  Uiso   1.00
C197   C     0.07547   0.23608   0.11231   0.00000  Uiso   1.00
C198   C     0.63589   0.15271   0.10852   0.00000  Uiso   1.00
C199   C     0.54895   0.12512   0.00569   0.00000  Uiso   1.00
C200   C     0.42252   0.13478   0.92451   0.00000  Uiso   1.00
C201   C     0.35932   0.10539   0.83696   0.00000  Uiso   1.00
C202   C     0.68378   0.12073   0.20409   0.00000  Uiso   1.00
C203   C     0.67073   0.12671   0.28971   0.00000  Uiso   1.00
C204   C     0.72105   0.09362   0.36919   0.00000  Uiso   1.00
C205   C     0.75208   0.16474   0.10816   0.00000  Uiso   1.00
C206   C     0.79648   0.20771   0.11316   0.00000  Uiso   1.00
C207   C     0.90433   0.21168   0.11191   0.00000  Uiso   1.00
H208   H     0.79607   0.05399   0.09270   0.00000  Uiso   1.00
H209   H     0.59442   0.02886   0.90757   0.00000  Uiso   1.00
H210   H     0.84261   0.02079   0.27272   0.00000  Uiso   1.00
H211   H     0.96833   0.10178   0.09620   0.00000  Uiso   1.00
H212   H     0.34388   0.01760   0.70500   0.00000  Uiso   1.00
H213   H     0.86722   0.00059   0.47496   0.00000  Uiso   1.00
H214   H     0.13234   0.17138   0.10273   0.00000  Uiso   1.00
H215   H     0.58829   0.18205   0.11322   0.00000  Uiso   1.00
H216   H     0.37523   0.16395   0.92920   0.00000  Uiso   1.00
H217   H     0.62342   0.15588   0.29436   0.00000  Uiso   1.00
H218   H     0.74914   0.23687   0.11784   0.00000  Uiso   1.00
H219   H     0.16597   0.12724   0.72256   0.00000  Uiso   1.00
H220   H     0.68933   0.11024   0.49253   0.00000  Uiso   1.00
H221   H     0.95444   0.28103   0.12030   0.00000  Uiso   1.00
O222   O     0.11850   0.05819   0.59237   0.00000  Uiso   1.00
O223   O     0.80514   0.03588   0.60255   0.00000  Uiso   1.00
O224   O     0.15296   0.25996   0.11419   0.00000  Uiso   1.00
N225   N     0.33125   0.04589   0.73437   0.00000  Uiso   1.00
N226   N     0.82053   0.02999   0.45424   0.00000  Uiso   1.00
N227   N     0.06842   0.18966   0.10626   0.00000  Uiso   1.00
N228   N     0.23552   0.10489   0.74382   0.00000  Uiso   1.00
N229   N     0.72481   0.08899   0.46369   0.00000  Uiso   1.00
N230   N     0.97269   0.24866   0.11571   0.00000  Uiso   1.00
C231   C     0.24847   0.58333   0.09740   0.00000  Uiso   1.00
C232   C     0.11009   0.58743   0.99965   0.00000  Uiso   1.00
C233   C     0.04707   0.55802   0.91221   0.00000  Uiso   1.00
C234   C     0.92058   0.56763   0.83091   0.00000  Uiso   1.00
C235   C     0.71501   0.56826   0.67824   0.00000  Uiso   1.00
C236   C     0.24493   0.58305   0.19804   0.00000  Uiso   1.00
C237   C     0.29528   0.54994   0.27741   0.00000  Uiso   1.00
C238   C     0.28230   0.55587   0.36313   0.00000  Uiso   1.00
C239   C     0.28614   0.54970   0.51852   0.00000  Uiso   1.00
C240   C     0.31323   0.62705   0.10212   0.00000  Uiso   1.00
C241   C     0.42104   0.63095   0.10087   0.00000  Uiso   1.00
C242   C     0.46558   0.67392   0.10586   0.00000  Uiso   1.00
C243   C     0.57547   0.73608   0.11231   0.00000  Uiso   1.00
C244   C     0.13589   0.65271   0.10852   0.00000  Uiso   1.00
C245   C     0.04895   0.62512   0.00569   0.00000  Uiso   1.00
C246   C     0.92252   0.63478   0.92451   0.00000  Uiso   1.00
C247   C     0.85932   0.60539   0.83696   0.00000  Uiso   1.00
C248   C     0.18378   0.62073   0.20409   0.00000  Uiso   1.00
C249   C     0.17073   0.62671   0.28971   0.00000  Uiso   1.00
C250   C     0.22105   0.59362   0.36919   0.00000  Uiso   1.00
C251   C     0.25208   0.66474   0.10816   0.00000  Uiso   1.00
C252   C     0.29648   0.70771   0.11316   0.00000  Uiso   1.00
C253   C     0.40433   0.71168   0.11191   0.00000  Uiso   1.00
H254   H     0.29607   0.55399   0.09270   0.00000  Uiso   1.00
H255   H     0.09442   0.52886   0.90757   0.00000  Uiso   1.00
H256   H     0.34261   0.52079   0.27272   0.00000  Uiso   1.00
H257   H     0.46833   0.60178   0.09620   0.00000  Uiso   1.00
H258   H     0.84388   0.51760   0.70500   0.00000  Uiso   1.00
H259   H     0.36722   0.50059   0.47496   0.00000  Uiso   1.00
H260   H     0.63234   0.67138   0.10273   0.00000  Uiso   1.00
H261   H     0.08829   0.68205   0.11322   0.00000  Uiso   1.00
H262   H     0.87523   0.66395   0.92920   0.00000  Uiso   1.00
H263   H     0.12342   0.65588   0.29436   0.00000  Uiso   1.00
H264   H     0.24914   0.73687   0.11784   0.00000  Uiso   1.00
H265   H     0.66597   0.62724   0.72256   0.00000  Uiso   1.00
H266   H     0.18933   0.61024   0.49253   0.00000  Uiso   1.00
H267   H     0.45444   0.78103   0.12030   0.00000  Uiso   1.00
O268   O     0.61850   0.55819   0.59237   0.00000  Uiso   1.00
O269   O     0.30514   0.53588   0.60255   0.00000  Uiso   1.00
O270   O     0.65296   0.75996   0.11419   0.00000  Uiso   1.00
N271   N     0.83125   0.54589   0.73437   0.00000  Uiso   1.00
N272   N     0.32053   0.52999   0.45424   0.00000  Uiso   1.00
N273   N     0.56842   0.68966   0.10626   0.00000  Uiso   1.00
N274   N     0.73552   0.60489   0.74382   0.00000  Uiso   1.00
N275   N     0.22481   0.58899   0.46369   0.00000  Uiso   1.00
N276   N     0.47269   0.74866   0.11571   0.00000  Uiso   1.00
C277   C     0.25153   0.08333   0.40260   0.00000  Uiso   1.00
C278   C     0.38991   0.08743   0.50035   0.00000  Uiso   1.00
C279   C     0.45293   0.05802   0.58779   0.00000  Uiso   1.00
C280   C     0.57942   0.06763   0.66909   0.00000  Uiso   1.00
C281   C     0.78499   0.06826   0.82176   0.00000  Uiso   1.00
C282   C     0.25507   0.08305   0.30196   0.00000  Uiso   1.00
C283   C     0.20472   0.04994   0.22259   0.00000  Uiso   1.00
C284   C     0.21770   0.05587   0.13687   0.00000  Uiso   1.00
C285   C     0.21386   0.04970   0.98148   0.00000  Uiso   1.00
C286   C     0.18677   0.12705   0.39788   0.00000  Uiso   1.00
C287   C     0.07896   0.13095   0.39913   0.00000  Uiso   1.00
C288   C     0.03442   0.17392   0.39414   0.00000  Uiso   1.00
C289   C     0.92453   0.23608   0.38769   0.00000  Uiso   1.00
C290   C     0.36411   0.15271   0.39148   0.00000  Uiso   1.00
C291   C     0.45105   0.12512   0.49431   0.00000  Uiso   1.00
C292   C     0.57748   0.13478   0.57549   0.00000  Uiso   1.00
C293   C     0.64068   0.10539   0.66304   0.00000  Uiso   1.00
C294   C     0.31622   0.12073   0.29591   0.00000  Uiso   1.00
C295   C     0.32927   0.12671   0.21029   0.00000  Uiso   1.00
C296   C     0.27895   0.09362   0.13081   0.00000  Uiso   1.00
C297   C     0.24792   0.16474   0.39184   0.00000  Uiso   1.00
C298   C     0.20352   0.20771   0.38684   0.00000  Uiso   1.00
C299   C     0.09567   0.21168   0.38809   0.00000  Uiso   1.00
H300   H     0.20393   0.05399   0.40730   0.00000  Uiso   1.00
H301   H     0.40558   0.02886   0.59243   0.00000  Uiso   1.00
H302   H     0.15739   0.02079   0.22728   0.00000  Uiso   1.00
H303   H     0.03167   0.10178   0.40380   0.00000  Uiso   1.00
H304   H     0.65612   0.01760   0.79500   0.00000  Uiso   1.00
H305   H     0.13278   0.00059   0.02504   0.00000  Uiso   1.00
H306   H     0.86766   0.17138   0.39727   0.00000  Uiso   1.00
H307   H     0.41171   0.18205   0.38678   0.00000  Uiso   1.00
H308   H     0.62477   0.16395   0.57080   0.00000  Uiso   1.00
H309   H     0.37658   0.15588   0.20564   0.00000  Uiso   1.00
H310   H     0.25086   0.23687   0.38216   0.00000  Uiso   1.00
H311   H     0.83403   0.12724   0.77744   0.00000  Uiso   1.00
H312   H     0.31067   0.11024   0.00747   0.00000  Uiso   1.00
H313   H     0.04556   0.28103   0.37970   0.00000  Uiso   1.00
O314   O     0.88150   0.05819   0.90763   0.00000  Uiso   1.00
O315   O     0.19486   0.03588   0.89745   0.00000  Uiso   1.00
O316   O     0.84704   0.25996   0.38581   0.00000  Uiso   1.00
N317   N     0.66875   0.04589   0.76563   0.00000  Uiso   1.00
N318   N     0.17947   0.02999   0.04576   0.00000  Uiso   1.00
N319   N     0.93158   0.18966   0.39374   0.00000  Uiso   1.00
N320   N     0.76448   0.10489   0.75618   0.00000  Uiso   1.00
N321   N     0.27519   0.08899   0.03631   0.00000  Uiso   1.00
N322   N     0.02731   0.24866   0.38429   0.00000  Uiso   1.00
C323   C     0.75153   0.58333   0.40260   0.00000  Uiso   1.00
C324   C     0.88991   0.58743   0.50035   0.00000  Uiso   1.00
C325   C     0.95293   0.55802   0.58779   0.00000  Uiso   1.00
C326   C     0.07942   0.56763   0.66909   0.00000  Uiso   1.00
C327   C     0.28499   0.56826   0.82176   0.00000  Uiso   1.00
C328   C     0.75507   0.58305   0.30196   0.00000  Uiso   1.00
C329   C     0.70472   0.54994   0.22259   0.00000  Uiso   1.00
C330   C     0.71770   0.55587   0.13687   0.00000  Uiso   1.00
C331   C     0.71386   0.54970   0.98148   0.00000  Uiso   1.00
C332   C     0.68677   0.62705   0.39788   0.00000  Uiso   1.00
C333   C     0.57896   0.63095   0.39913   0.00000  Uiso   1.00
C334   C     0.53442   0.67392   0.39414   0.00000  Uiso   1.00
C335   C     0.42453   0.73608   0.38769   0.00000  Uiso   1.00
C336   C     0.86411   0.65271   0.39148   0.00000  Uiso   1.00
C337   C     0.95105   0.62512   0.49431   0.00000  Uiso   1.00
C338   C     0.07748   0.63478   0.57549   0.00000  Uiso   1.00
C339   C     0.14068   0.60539   0.66304   0.00000  Uiso   1.00
C340   C     0.81622   0.62073   0.29591   0.00000  Uiso   1.00
C341   C     0.82927   0.62671   0.21029   0.00000  Uiso   1.00
C342   C     0.77895   0.59362   0.13081   0.00000  Uiso   1.00
C343   C     0.74792   0.66474   0.39184   0.00000  Uiso   1.00
C344   C     0.70352   0.70771   0.38684   0.00000  Uiso   1.00
C345   C     0.59567   0.71168   0.38809   0.00000  Uiso   1.00
H346   H     0.70393   0.55399   0.40730   0.00000  Uiso   1.00
H347   H     0.90558   0.52886   0.59243   0.00000  Uiso   1.00
H348   H     0.65739   0.52079   0.22728   0.00000  Uiso   1.00
H349   H     0.53167   0.60178   0.40380   0.00000  Uiso   1.00
H350   H     0.15612   0.51760   0.79500   0.00000  Uiso   1.00
H351   H     0.63278   0.50059   0.02504   0.00000  Uiso   1.00
H352   H     0.36766   0.67138   0.39727   0.00000  Uiso   1.00
H353   H     0.91171   0.68205   0.38678   0.00000  Uiso   1.00
H354   H     0.12477   0.66395   0.57080   0.00000  Uiso   1.00
H355   H     0.87658   0.65588   0.20564   0.00000  Uiso   1.00
H356   H     0.75086   0.73687   0.38216   0.00000  Uiso   1.00
H357   H     0.33403   0.62724   0.77744   0.00000  Uiso   1.00
H358   H     0.81067   0.61024   0.00747   0.00000  Uiso   1.00
H359   H     0.54556   0.78103   0.37970   0.00000  Uiso   1.00
O360   O     0.38150   0.55819   0.90763   0.00000  Uiso   1.00
O361   O     0.69486   0.53588   0.89745   0.00000  Uiso   1.00
O362   O     0.34704   0.75996   0.38581   0.00000  Uiso   1.00
N363   N     0.16875   0.54589   0.76563   0.00000  Uiso   1.00
N364   N     0.67947   0.52999   0.04576   0.00000  Uiso   1.00
N365   N     0.43158   0.68966   0.39374   0.00000  Uiso   1.00
N366   N     0.26448   0.60489   0.75618   0.00000  Uiso   1.00
N367   N     0.77519   0.58899   0.03631   0.00000  Uiso   1.00
N368   N     0.52731   0.74866   0.38429   0.00000  Uiso   1.00
