data_job_05304
_audit_creation_date              2018-12-19
_audit_creation_method            'Materials Studio'
_symmetry_space_group_name_H-M    'P1'
_symmetry_Int_Tables_number       1
_symmetry_cell_setting            triclinic
loop_
_symmetry_equiv_pos_as_xyz
  x,y,z
_cell_length_a                    17.9587
_cell_length_b                    17.9587
_cell_length_c                    12.3538
_cell_angle_alpha                 90.0000
_cell_angle_beta                  90.0000
_cell_angle_gamma                 120.0000
loop_
_atom_site_label
_atom_site_type_symbol
_atom_site_fract_x
_atom_site_fract_y
_atom_site_fract_z
_atom_site_U_iso_or_equiv
_atom_site_adp_type
_atom_site_occupancy
C1     C     0.44723   0.14389   0.13154   0.00000  Uiso   1.00
C2     C     0.43692   0.06142   0.18089   0.00000  Uiso   1.00
C3     C     0.50136   0.04061   0.19077   0.00000  Uiso   1.00
C4     C     0.47897   0.96208   0.23823   0.00000  Uiso   1.00
C5     C     0.47571   0.84247   0.30930   0.00000  Uiso   1.00
C6     C     0.38077   0.11574   0.04109   0.00000  Uiso   1.00
C7     C     0.39799   0.14062   0.93343   0.00000  Uiso   1.00
C8     C     0.32833   0.10782   0.86320   0.00000  Uiso   1.00
C9     C     0.23788   0.07260   0.71723   0.00000  Uiso   1.00
C10    C     0.41823   0.18428   0.21835   0.00000  Uiso   1.00
C11    C     0.46694   0.26680   0.25972   0.00000  Uiso   1.00
C12    C     0.42881   0.29171   0.33872   0.00000  Uiso   1.00
C13    C     0.39653   0.36290   0.46799   0.00000  Uiso   1.00
C14    C     0.29289   0.04141   0.19826   0.00000  Uiso   1.00
C15    C     0.35309   0.00576   0.21713   0.00000  Uiso   1.00
C16    C     0.33060   0.92723   0.26459   0.00000  Uiso   1.00
C17    C     0.39499   0.90632   0.27454   0.00000  Uiso   1.00
C18    C     0.29694   0.06008   0.07732   0.00000  Uiso   1.00
C19    C     0.22724   0.02724   0.00724   0.00000  Uiso   1.00
C20    C     0.24435   0.05206   0.89950   0.00000  Uiso   1.00
C21    C     0.33440   0.12862   0.25460   0.00000  Uiso   1.00
C22    C     0.29619   0.15341   0.33354   0.00000  Uiso   1.00
C23    C     0.34483   0.23595   0.37502   0.00000  Uiso   1.00
H24    H     0.51249   0.18723   0.10332   0.00000  Uiso   1.00
H25    H     0.56622   0.08371   0.16271   0.00000  Uiso   1.00
H26    H     0.46287   0.18370   0.90541   0.00000  Uiso   1.00
H27    H     0.53181   0.30985   0.23166   0.00000  Uiso   1.00
H28    H     0.58882   0.94437   0.24449   0.00000  Uiso   1.00
H29    H     0.37089   0.15525   0.70197   0.00000  Uiso   1.00
H30    H     0.51626   0.42126   0.38992   0.00000  Uiso   1.00
H31    H     0.22762   0.99808   0.22647   0.00000  Uiso   1.00
H32    H     0.26572   0.88417   0.29262   0.00000  Uiso   1.00
H33    H     0.16237   0.98417   0.03532   0.00000  Uiso   1.00
H34    H     0.23131   0.11032   0.36156   0.00000  Uiso   1.00
H35    H     0.34492   0.78242   0.34993   0.00000  Uiso   1.00
H36    H     0.12700   0.99330   0.80740   0.00000  Uiso   1.00
H37    H     0.27237   0.25931   0.49536   0.00000  Uiso   1.00
O38    O     0.49706   0.79187   0.33847   0.00000  Uiso   1.00
O39    O     0.21116   0.06855   0.62671   0.00000  Uiso   1.00
O40    O     0.40188   0.41754   0.52929   0.00000  Uiso   1.00
N41    N     0.52619   0.92189   0.26025   0.00000  Uiso   1.00
N42    N     0.32245   0.11904   0.75302   0.00000  Uiso   1.00
N43    N     0.45835   0.36775   0.39618   0.00000  Uiso   1.00
N44    N     0.39495   0.83475   0.31699   0.00000  Uiso   1.00
N45    N     0.19121   0.03190   0.80975   0.00000  Uiso   1.00
N46    N     0.32711   0.28061   0.45291   0.00000  Uiso   1.00
C47    C     0.85611   0.30334   0.13154   0.00000  Uiso   1.00
C48    C     0.93858   0.37550   0.18089   0.00000  Uiso   1.00
C49    C     0.95939   0.46074   0.19077   0.00000  Uiso   1.00
C50    C     0.03792   0.51689   0.23823   0.00000  Uiso   1.00
C51    C     0.15753   0.63324   0.30930   0.00000  Uiso   1.00
C52    C     0.88426   0.26503   0.04109   0.00000  Uiso   1.00
C53    C     0.85938   0.25737   0.93343   0.00000  Uiso   1.00
C54    C     0.89218   0.22051   0.86320   0.00000  Uiso   1.00
C55    C     0.92740   0.16528   0.71723   0.00000  Uiso   1.00
C56    C     0.81572   0.23395   0.21835   0.00000  Uiso   1.00
C57    C     0.73320   0.20014   0.25972   0.00000  Uiso   1.00
C58    C     0.70829   0.13710   0.33872   0.00000  Uiso   1.00
C59    C     0.63710   0.03363   0.46799   0.00000  Uiso   1.00
C60    C     0.95859   0.25148   0.19826   0.00000  Uiso   1.00
C61    C     0.99424   0.34733   0.21713   0.00000  Uiso   1.00
C62    C     0.07277   0.40337   0.26459   0.00000  Uiso   1.00
C63    C     0.09368   0.48868   0.27454   0.00000  Uiso   1.00
C64    C     0.93992   0.23686   0.07732   0.00000  Uiso   1.00
C65    C     0.97276   0.20000   0.00724   0.00000  Uiso   1.00
C66    C     0.94794   0.19229   0.89950   0.00000  Uiso   1.00
C67    C     0.87138   0.20578   0.25460   0.00000  Uiso   1.00
C68    C     0.84659   0.14277   0.33354   0.00000  Uiso   1.00
C69    C     0.76405   0.10888   0.37502   0.00000  Uiso   1.00
H70    H     0.81277   0.32526   0.10332   0.00000  Uiso   1.00
H71    H     0.91629   0.48252   0.16271   0.00000  Uiso   1.00
H72    H     0.81630   0.27917   0.90541   0.00000  Uiso   1.00
H73    H     0.69015   0.22196   0.23166   0.00000  Uiso   1.00
H74    H     0.05563   0.64444   0.24449   0.00000  Uiso   1.00
H75    H     0.84475   0.21564   0.70197   0.00000  Uiso   1.00
H76    H     0.57874   0.09500   0.38992   0.00000  Uiso   1.00
H77    H     0.00192   0.22955   0.22647   0.00000  Uiso   1.00
H78    H     0.11583   0.38155   0.29262   0.00000  Uiso   1.00
H79    H     0.01583   0.17820   0.03532   0.00000  Uiso   1.00
H80    H     0.88968   0.12099   0.36156   0.00000  Uiso   1.00
H81    H     0.21758   0.56250   0.34993   0.00000  Uiso   1.00
H82    H     0.00670   0.13369   0.80740   0.00000  Uiso   1.00
H83    H     0.74069   0.01305   0.49536   0.00000  Uiso   1.00
O84    O     0.20813   0.70520   0.33847   0.00000  Uiso   1.00
O85    O     0.93145   0.14261   0.62671   0.00000  Uiso   1.00
O86    O     0.58246   0.98434   0.52929   0.00000  Uiso   1.00
N87    N     0.07811   0.60430   0.26025   0.00000  Uiso   1.00
N88    N     0.88096   0.20340   0.75302   0.00000  Uiso   1.00
N89    N     0.63225   0.09060   0.39618   0.00000  Uiso   1.00
N90    N     0.16525   0.56020   0.31699   0.00000  Uiso   1.00
N91    N     0.96810   0.15931   0.80975   0.00000  Uiso   1.00
N92    N     0.71939   0.04650   0.45291   0.00000  Uiso   1.00
C93    C     0.69666   0.55277   0.13154   0.00000  Uiso   1.00
C94    C     0.62450   0.56308   0.18089   0.00000  Uiso   1.00
C95    C     0.53926   0.49864   0.19077   0.00000  Uiso   1.00
C96    C     0.48311   0.52103   0.23823   0.00000  Uiso   1.00
C97    C     0.36676   0.52429   0.30930   0.00000  Uiso   1.00
C98    C     0.73497   0.61923   0.04109   0.00000  Uiso   1.00
C99    C     0.74263   0.60201   0.93343   0.00000  Uiso   1.00
C100   C     0.77949   0.67167   0.86320   0.00000  Uiso   1.00
C101   C     0.83472   0.76212   0.71723   0.00000  Uiso   1.00
C102   C     0.76605   0.58177   0.21835   0.00000  Uiso   1.00
C103   C     0.79986   0.53306   0.25972   0.00000  Uiso   1.00
C104   C     0.86290   0.57119   0.33872   0.00000  Uiso   1.00
C105   C     0.96637   0.60347   0.46799   0.00000  Uiso   1.00
C106   C     0.74852   0.70711   0.19826   0.00000  Uiso   1.00
C107   C     0.65267   0.64691   0.21713   0.00000  Uiso   1.00
C108   C     0.59663   0.66940   0.26459   0.00000  Uiso   1.00
C109   C     0.51132   0.60501   0.27454   0.00000  Uiso   1.00
C110   C     0.76314   0.70306   0.07732   0.00000  Uiso   1.00
C111   C     0.80000   0.77276   0.00724   0.00000  Uiso   1.00
C112   C     0.80771   0.75565   0.89950   0.00000  Uiso   1.00
C113   C     0.79422   0.66560   0.25460   0.00000  Uiso   1.00
C114   C     0.85723   0.70381   0.33354   0.00000  Uiso   1.00
C115   C     0.89112   0.65517   0.37502   0.00000  Uiso   1.00
H116   H     0.67474   0.48751   0.10332   0.00000  Uiso   1.00
H117   H     0.51748   0.43378   0.16271   0.00000  Uiso   1.00
H118   H     0.72083   0.53713   0.90541   0.00000  Uiso   1.00
H119   H     0.77804   0.46819   0.23166   0.00000  Uiso   1.00
H120   H     0.35556   0.41118   0.24449   0.00000  Uiso   1.00
H121   H     0.78436   0.62911   0.70197   0.00000  Uiso   1.00
H122   H     0.90500   0.48374   0.38992   0.00000  Uiso   1.00
H123   H     0.77045   0.77238   0.22647   0.00000  Uiso   1.00
H124   H     0.61845   0.73428   0.29262   0.00000  Uiso   1.00
H125   H     0.82180   0.83763   0.03532   0.00000  Uiso   1.00
H126   H     0.87901   0.76869   0.36156   0.00000  Uiso   1.00
H127   H     0.43750   0.65508   0.34993   0.00000  Uiso   1.00
H128   H     0.86631   0.87300   0.80740   0.00000  Uiso   1.00
H129   H     0.98695   0.72763   0.49536   0.00000  Uiso   1.00
O130   O     0.29480   0.50294   0.33847   0.00000  Uiso   1.00
O131   O     0.85739   0.78884   0.62671   0.00000  Uiso   1.00
O132   O     0.01566   0.59812   0.52929   0.00000  Uiso   1.00
N133   N     0.39570   0.47381   0.26025   0.00000  Uiso   1.00
N134   N     0.79660   0.67755   0.75302   0.00000  Uiso   1.00
N135   N     0.90940   0.54165   0.39618   0.00000  Uiso   1.00
N136   N     0.43980   0.60505   0.31699   0.00000  Uiso   1.00
N137   N     0.84069   0.80879   0.80975   0.00000  Uiso   1.00
N138   N     0.95350   0.67289   0.45291   0.00000  Uiso   1.00
C139   C     0.55277   0.85611   0.86846   0.00000  Uiso   1.00
C140   C     0.56308   0.93858   0.81911   0.00000  Uiso   1.00
C141   C     0.49864   0.95939   0.80923   0.00000  Uiso   1.00
C142   C     0.52103   0.03792   0.76177   0.00000  Uiso   1.00
C143   C     0.52429   0.15753   0.69070   0.00000  Uiso   1.00
C144   C     0.61923   0.88426   0.95891   0.00000  Uiso   1.00
C145   C     0.60201   0.85938   0.06657   0.00000  Uiso   1.00
C146   C     0.67167   0.89218   0.13680   0.00000  Uiso   1.00
C147   C     0.76212   0.92740   0.28277   0.00000  Uiso   1.00
C148   C     0.58177   0.81572   0.78165   0.00000  Uiso   1.00
C149   C     0.53306   0.73320   0.74028   0.00000  Uiso   1.00
C150   C     0.57119   0.70829   0.66128   0.00000  Uiso   1.00
C151   C     0.60347   0.63710   0.53201   0.00000  Uiso   1.00
C152   C     0.70711   0.95859   0.80174   0.00000  Uiso   1.00
C153   C     0.64691   0.99424   0.78287   0.00000  Uiso   1.00
C154   C     0.66940   0.07277   0.73541   0.00000  Uiso   1.00
C155   C     0.60501   0.09368   0.72546   0.00000  Uiso   1.00
C156   C     0.70306   0.93992   0.92268   0.00000  Uiso   1.00
C157   C     0.77276   0.97276   0.99276   0.00000  Uiso   1.00
C158   C     0.75565   0.94794   0.10050   0.00000  Uiso   1.00
C159   C     0.66560   0.87138   0.74540   0.00000  Uiso   1.00
C160   C     0.70381   0.84659   0.66646   0.00000  Uiso   1.00
C161   C     0.65517   0.76405   0.62498   0.00000  Uiso   1.00
H162   H     0.48751   0.81277   0.89668   0.00000  Uiso   1.00
H163   H     0.43378   0.91629   0.83729   0.00000  Uiso   1.00
H164   H     0.53713   0.81630   0.09459   0.00000  Uiso   1.00
H165   H     0.46819   0.69015   0.76834   0.00000  Uiso   1.00
H166   H     0.41118   0.05563   0.75551   0.00000  Uiso   1.00
H167   H     0.62911   0.84475   0.29803   0.00000  Uiso   1.00
H168   H     0.48374   0.57874   0.61008   0.00000  Uiso   1.00
H169   H     0.77238   0.00192   0.77353   0.00000  Uiso   1.00
H170   H     0.73428   0.11583   0.70738   0.00000  Uiso   1.00
H171   H     0.83763   0.01583   0.96468   0.00000  Uiso   1.00
H172   H     0.76869   0.88968   0.63844   0.00000  Uiso   1.00
H173   H     0.65508   0.21758   0.65007   0.00000  Uiso   1.00
H174   H     0.87300   0.00670   0.19260   0.00000  Uiso   1.00
H175   H     0.72763   0.74069   0.50464   0.00000  Uiso   1.00
O176   O     0.50294   0.20813   0.66153   0.00000  Uiso   1.00
O177   O     0.78884   0.93145   0.37329   0.00000  Uiso   1.00
O178   O     0.59812   0.58246   0.47071   0.00000  Uiso   1.00
N179   N     0.47381   0.07811   0.73975   0.00000  Uiso   1.00
N180   N     0.67755   0.88096   0.24698   0.00000  Uiso   1.00
N181   N     0.54165   0.63225   0.60382   0.00000  Uiso   1.00
N182   N     0.60505   0.16525   0.68301   0.00000  Uiso   1.00
N183   N     0.80879   0.96810   0.19025   0.00000  Uiso   1.00
N184   N     0.67289   0.71939   0.54709   0.00000  Uiso   1.00
C185   C     0.14389   0.69666   0.86846   0.00000  Uiso   1.00
C186   C     0.06142   0.62450   0.81911   0.00000  Uiso   1.00
C187   C     0.04061   0.53926   0.80923   0.00000  Uiso   1.00
C188   C     0.96208   0.48311   0.76177   0.00000  Uiso   1.00
C189   C     0.84247   0.36676   0.69070   0.00000  Uiso   1.00
C190   C     0.11574   0.73497   0.95891   0.00000  Uiso   1.00
C191   C     0.14062   0.74263   0.06657   0.00000  Uiso   1.00
C192   C     0.10782   0.77949   0.13680   0.00000  Uiso   1.00
C193   C     0.07260   0.83472   0.28277   0.00000  Uiso   1.00
C194   C     0.18428   0.76605   0.78165   0.00000  Uiso   1.00
C195   C     0.26680   0.79986   0.74028   0.00000  Uiso   1.00
C196   C     0.29171   0.86290   0.66128   0.00000  Uiso   1.00
C197   C     0.36290   0.96637   0.53201   0.00000  Uiso   1.00
C198   C     0.04141   0.74852   0.80174   0.00000  Uiso   1.00
C199   C     0.00576   0.65267   0.78287   0.00000  Uiso   1.00
C200   C     0.92723   0.59663   0.73541   0.00000  Uiso   1.00
C201   C     0.90632   0.51132   0.72546   0.00000  Uiso   1.00
C202   C     0.06008   0.76314   0.92268   0.00000  Uiso   1.00
C203   C     0.02724   0.80000   0.99276   0.00000  Uiso   1.00
C204   C     0.05206   0.80771   0.10050   0.00000  Uiso   1.00
C205   C     0.12862   0.79422   0.74540   0.00000  Uiso   1.00
C206   C     0.15341   0.85723   0.66646   0.00000  Uiso   1.00
C207   C     0.23595   0.89112   0.62498   0.00000  Uiso   1.00
H208   H     0.18723   0.67474   0.89668   0.00000  Uiso   1.00
H209   H     0.08371   0.51748   0.83729   0.00000  Uiso   1.00
H210   H     0.18370   0.72083   0.09459   0.00000  Uiso   1.00
H211   H     0.30985   0.77804   0.76834   0.00000  Uiso   1.00
H212   H     0.94437   0.35556   0.75551   0.00000  Uiso   1.00
H213   H     0.15525   0.78436   0.29803   0.00000  Uiso   1.00
H214   H     0.42126   0.90500   0.61008   0.00000  Uiso   1.00
H215   H     0.99808   0.77045   0.77353   0.00000  Uiso   1.00
H216   H     0.88417   0.61845   0.70738   0.00000  Uiso   1.00
H217   H     0.98417   0.82180   0.96468   0.00000  Uiso   1.00
H218   H     0.11032   0.87901   0.63844   0.00000  Uiso   1.00
H219   H     0.78242   0.43750   0.65007   0.00000  Uiso   1.00
H220   H     0.99330   0.86631   0.19260   0.00000  Uiso   1.00
H221   H     0.25931   0.98695   0.50464   0.00000  Uiso   1.00
O222   O     0.79187   0.29480   0.66153   0.00000  Uiso   1.00
O223   O     0.06855   0.85739   0.37329   0.00000  Uiso   1.00
O224   O     0.41754   0.01566   0.47071   0.00000  Uiso   1.00
N225   N     0.92189   0.39570   0.73975   0.00000  Uiso   1.00
N226   N     0.11904   0.79660   0.24698   0.00000  Uiso   1.00
N227   N     0.36775   0.90940   0.60382   0.00000  Uiso   1.00
N228   N     0.83475   0.43980   0.68301   0.00000  Uiso   1.00
N229   N     0.03190   0.84069   0.19025   0.00000  Uiso   1.00
N230   N     0.28061   0.95350   0.54709   0.00000  Uiso   1.00
C231   C     0.30334   0.44723   0.86846   0.00000  Uiso   1.00
C232   C     0.37550   0.43692   0.81911   0.00000  Uiso   1.00
C233   C     0.46074   0.50136   0.80923   0.00000  Uiso   1.00
C234   C     0.51689   0.47897   0.76177   0.00000  Uiso   1.00
C235   C     0.63324   0.47571   0.69070   0.00000  Uiso   1.00
C236   C     0.26503   0.38077   0.95891   0.00000  Uiso   1.00
C237   C     0.25737   0.39799   0.06657   0.00000  Uiso   1.00
C238   C     0.22051   0.32833   0.13680   0.00000  Uiso   1.00
C239   C     0.16528   0.23788   0.28277   0.00000  Uiso   1.00
C240   C     0.23395   0.41823   0.78165   0.00000  Uiso   1.00
C241   C     0.20014   0.46694   0.74028   0.00000  Uiso   1.00
C242   C     0.13710   0.42881   0.66128   0.00000  Uiso   1.00
C243   C     0.03363   0.39653   0.53201   0.00000  Uiso   1.00
C244   C     0.25148   0.29289   0.80174   0.00000  Uiso   1.00
C245   C     0.34733   0.35309   0.78287   0.00000  Uiso   1.00
C246   C     0.40337   0.33060   0.73541   0.00000  Uiso   1.00
C247   C     0.48868   0.39499   0.72546   0.00000  Uiso   1.00
C248   C     0.23686   0.29694   0.92268   0.00000  Uiso   1.00
C249   C     0.20000   0.22724   0.99276   0.00000  Uiso   1.00
C250   C     0.19229   0.24435   0.10050   0.00000  Uiso   1.00
C251   C     0.20578   0.33440   0.74540   0.00000  Uiso   1.00
C252   C     0.14277   0.29619   0.66646   0.00000  Uiso   1.00
C253   C     0.10888   0.34483   0.62498   0.00000  Uiso   1.00
H254   H     0.32526   0.51249   0.89668   0.00000  Uiso   1.00
H255   H     0.48252   0.56622   0.83729   0.00000  Uiso   1.00
H256   H     0.27917   0.46287   0.09459   0.00000  Uiso   1.00
H257   H     0.22196   0.53181   0.76834   0.00000  Uiso   1.00
H258   H     0.64444   0.58882   0.75551   0.00000  Uiso   1.00
H259   H     0.21564   0.37089   0.29803   0.00000  Uiso   1.00
H260   H     0.09500   0.51626   0.61008   0.00000  Uiso   1.00
H261   H     0.22955   0.22762   0.77353   0.00000  Uiso   1.00
H262   H     0.38155   0.26572   0.70738   0.00000  Uiso   1.00
H263   H     0.17820   0.16237   0.96468   0.00000  Uiso   1.00
H264   H     0.12099   0.23131   0.63844   0.00000  Uiso   1.00
H265   H     0.56250   0.34492   0.65007   0.00000  Uiso   1.00
H266   H     0.13369   0.12700   0.19260   0.00000  Uiso   1.00
H267   H     0.01305   0.27237   0.50464   0.00000  Uiso   1.00
O268   O     0.70520   0.49706   0.66153   0.00000  Uiso   1.00
O269   O     0.14261   0.21116   0.37329   0.00000  Uiso   1.00
O270   O     0.98434   0.40188   0.47071   0.00000  Uiso   1.00
N271   N     0.60430   0.52619   0.73975   0.00000  Uiso   1.00
N272   N     0.20340   0.32245   0.24698   0.00000  Uiso   1.00
N273   N     0.09060   0.45835   0.60382   0.00000  Uiso   1.00
N274   N     0.56020   0.39495   0.68301   0.00000  Uiso   1.00
N275   N     0.15931   0.19121   0.19025   0.00000  Uiso   1.00
N276   N     0.04650   0.32711   0.54709   0.00000  Uiso   1.00
