data_job_03459
_audit_creation_date              2018-12-19
_audit_creation_method            'Materials Studio'
_symmetry_space_group_name_H-M    'P1'
_symmetry_Int_Tables_number       1
_symmetry_cell_setting            triclinic
loop_
_symmetry_equiv_pos_as_xyz
  x,y,z
_cell_length_a                    21.2024
_cell_length_b                    21.9358
_cell_length_c                    29.3576
_cell_angle_alpha                 90.0000
_cell_angle_beta                  34.0767
_cell_angle_gamma                 90.0000
loop_
_atom_site_label
_atom_site_type_symbol
_atom_site_fract_x
_atom_site_fract_y
_atom_site_fract_z
_atom_site_U_iso_or_equiv
_atom_site_adp_type
_atom_site_occupancy
C1     C     0.50143   0.34510   0.37947   0.00000  Uiso   1.00
C2     C     0.41134   0.35328   0.39687   0.00000  Uiso   1.00
C3     C     0.37970   0.30990   0.38386   0.00000  Uiso   1.00
C4     C     0.29560   0.32622   0.40368   0.00000  Uiso   1.00
C5     C     0.16344   0.33016   0.42584   0.00000  Uiso   1.00
C6     C     0.58548   0.39678   0.32211   0.00000  Uiso   1.00
C7     C     0.70025   0.38997   0.24624   0.00000  Uiso   1.00
C8     C     0.76275   0.44290   0.20313   0.00000  Uiso   1.00
C9     C     0.90096   0.51438   0.10924   0.00000  Uiso   1.00
C10    C     0.44369   0.35796   0.45939   0.00000  Uiso   1.00
C11    C     0.43926   0.31852   0.49896   0.00000  Uiso   1.00
C12    C     0.38240   0.33878   0.57142   0.00000  Uiso   1.00
C13    C     0.30046   0.34999   0.69070   0.00000  Uiso   1.00
C14    C     0.40834   0.45122   0.43779   0.00000  Uiso   1.00
C15    C     0.36078   0.41092   0.42854   0.00000  Uiso   1.00
C16    C     0.27670   0.42731   0.44839   0.00000  Uiso   1.00
C17    C     0.24494   0.38396   0.43541   0.00000  Uiso   1.00
C18    C     0.53492   0.45442   0.35378   0.00000  Uiso   1.00
C19    C     0.59726   0.50738   0.31077   0.00000  Uiso   1.00
C20    C     0.71210   0.50065   0.23486   0.00000  Uiso   1.00
C21    C     0.39312   0.41560   0.49107   0.00000  Uiso   1.00
C22    C     0.33626   0.43593   0.56349   0.00000  Uiso   1.00
C23    C     0.33175   0.39652   0.60316   0.00000  Uiso   1.00
H24    H     0.54080   0.30023   0.35480   0.00000  Uiso   1.00
H25    H     0.41885   0.26530   0.35934   0.00000  Uiso   1.00
H26    H     0.73936   0.34536   0.22175   0.00000  Uiso   1.00
H27    H     0.47840   0.27392   0.47443   0.00000  Uiso   1.00
H28    H     0.26138   0.25200   0.37831   0.00000  Uiso   1.00
H29    H     0.93719   0.42081   0.08820   0.00000  Uiso   1.00
H30    H     0.38692   0.27017   0.62102   0.00000  Uiso   1.00
H31    H     0.36898   0.49610   0.46245   0.00000  Uiso   1.00
H32    H     0.23759   0.47192   0.47290   0.00000  Uiso   1.00
H33    H     0.55811   0.55197   0.33530   0.00000  Uiso   1.00
H34    H     0.29715   0.48054   0.58798   0.00000  Uiso   1.00
H35    H     0.11427   0.41970   0.47047   0.00000  Uiso   1.00
H36    H     0.79009   0.58851   0.18037   0.00000  Uiso   1.00
H37    H     0.23980   0.43787   0.71319   0.00000  Uiso   1.00
O38    O     0.10453   0.31642   0.42930   0.00000  Uiso   1.00
O39    O     0.99117   0.53788   0.04870   0.00000  Uiso   1.00
O40    O     0.26921   0.34025   0.74774   0.00000  Uiso   1.00
N41    N     0.24477   0.29479   0.39858   0.00000  Uiso   1.00
N42    N     0.87661   0.45261   0.12734   0.00000  Uiso   1.00
N43    N     0.36218   0.31178   0.62548   0.00000  Uiso   1.00
N44    N     0.16561   0.38502   0.44818   0.00000  Uiso   1.00
N45    N     0.79745   0.54284   0.17694   0.00000  Uiso   1.00
N46    N     0.28302   0.40202   0.67507   0.00000  Uiso   1.00
C47    C     0.00143   0.84510   0.37947   0.00000  Uiso   1.00
C48    C     0.91134   0.85328   0.39687   0.00000  Uiso   1.00
C49    C     0.87970   0.80990   0.38386   0.00000  Uiso   1.00
C50    C     0.79560   0.82622   0.40368   0.00000  Uiso   1.00
C51    C     0.66344   0.83016   0.42584   0.00000  Uiso   1.00
C52    C     0.08548   0.89678   0.32211   0.00000  Uiso   1.00
C53    C     0.20025   0.88997   0.24624   0.00000  Uiso   1.00
C54    C     0.26275   0.94290   0.20313   0.00000  Uiso   1.00
C55    C     0.40096   0.01438   0.10924   0.00000  Uiso   1.00
C56    C     0.94369   0.85796   0.45939   0.00000  Uiso   1.00
C57    C     0.93926   0.81852   0.49896   0.00000  Uiso   1.00
C58    C     0.88240   0.83878   0.57142   0.00000  Uiso   1.00
C59    C     0.80046   0.84999   0.69070   0.00000  Uiso   1.00
C60    C     0.90834   0.95122   0.43779   0.00000  Uiso   1.00
C61    C     0.86078   0.91092   0.42854   0.00000  Uiso   1.00
C62    C     0.77670   0.92731   0.44839   0.00000  Uiso   1.00
C63    C     0.74494   0.88396   0.43541   0.00000  Uiso   1.00
C64    C     0.03492   0.95442   0.35378   0.00000  Uiso   1.00
C65    C     0.09726   0.00738   0.31077   0.00000  Uiso   1.00
C66    C     0.21210   0.00065   0.23486   0.00000  Uiso   1.00
C67    C     0.89312   0.91560   0.49107   0.00000  Uiso   1.00
C68    C     0.83626   0.93593   0.56349   0.00000  Uiso   1.00
C69    C     0.83175   0.89652   0.60316   0.00000  Uiso   1.00
H70    H     0.04080   0.80023   0.35480   0.00000  Uiso   1.00
H71    H     0.91885   0.76530   0.35934   0.00000  Uiso   1.00
H72    H     0.23936   0.84536   0.22175   0.00000  Uiso   1.00
H73    H     0.97840   0.77392   0.47443   0.00000  Uiso   1.00
H74    H     0.76138   0.75200   0.37831   0.00000  Uiso   1.00
H75    H     0.43719   0.92081   0.08820   0.00000  Uiso   1.00
H76    H     0.88692   0.77017   0.62102   0.00000  Uiso   1.00
H77    H     0.86898   0.99610   0.46245   0.00000  Uiso   1.00
H78    H     0.73759   0.97192   0.47290   0.00000  Uiso   1.00
H79    H     0.05811   0.05197   0.33530   0.00000  Uiso   1.00
H80    H     0.79715   0.98054   0.58798   0.00000  Uiso   1.00
H81    H     0.61427   0.91970   0.47047   0.00000  Uiso   1.00
H82    H     0.29009   0.08851   0.18037   0.00000  Uiso   1.00
H83    H     0.73980   0.93787   0.71319   0.00000  Uiso   1.00
O84    O     0.60453   0.81642   0.42930   0.00000  Uiso   1.00
O85    O     0.49117   0.03788   0.04870   0.00000  Uiso   1.00
O86    O     0.76921   0.84025   0.74774   0.00000  Uiso   1.00
N87    N     0.74477   0.79479   0.39858   0.00000  Uiso   1.00
N88    N     0.37661   0.95261   0.12734   0.00000  Uiso   1.00
N89    N     0.86218   0.81178   0.62548   0.00000  Uiso   1.00
N90    N     0.66561   0.88502   0.44818   0.00000  Uiso   1.00
N91    N     0.29745   0.04284   0.17694   0.00000  Uiso   1.00
N92    N     0.78302   0.90202   0.67507   0.00000  Uiso   1.00
C93    C     0.49857   0.34510   0.12053   0.00000  Uiso   1.00
C94    C     0.58866   0.35328   0.10313   0.00000  Uiso   1.00
C95    C     0.62030   0.30990   0.11614   0.00000  Uiso   1.00
C96    C     0.70440   0.32622   0.09632   0.00000  Uiso   1.00
C97    C     0.83656   0.33016   0.07416   0.00000  Uiso   1.00
C98    C     0.41452   0.39678   0.17789   0.00000  Uiso   1.00
C99    C     0.29975   0.38997   0.25376   0.00000  Uiso   1.00
C100   C     0.23725   0.44290   0.29687   0.00000  Uiso   1.00
C101   C     0.09904   0.51438   0.39076   0.00000  Uiso   1.00
C102   C     0.55631   0.35796   0.04061   0.00000  Uiso   1.00
C103   C     0.56074   0.31852   0.00104   0.00000  Uiso   1.00
C104   C     0.61760   0.33878   0.92858   0.00000  Uiso   1.00
C105   C     0.69954   0.34999   0.80930   0.00000  Uiso   1.00
C106   C     0.59166   0.45122   0.06221   0.00000  Uiso   1.00
C107   C     0.63922   0.41092   0.07146   0.00000  Uiso   1.00
C108   C     0.72330   0.42731   0.05161   0.00000  Uiso   1.00
C109   C     0.75506   0.38396   0.06459   0.00000  Uiso   1.00
C110   C     0.46508   0.45442   0.14622   0.00000  Uiso   1.00
C111   C     0.40274   0.50738   0.18923   0.00000  Uiso   1.00
C112   C     0.28790   0.50065   0.26514   0.00000  Uiso   1.00
C113   C     0.60688   0.41560   0.00893   0.00000  Uiso   1.00
C114   C     0.66374   0.43593   0.93651   0.00000  Uiso   1.00
C115   C     0.66825   0.39652   0.89684   0.00000  Uiso   1.00
H116   H     0.45920   0.30023   0.14520   0.00000  Uiso   1.00
H117   H     0.58115   0.26530   0.14066   0.00000  Uiso   1.00
H118   H     0.26064   0.34536   0.27825   0.00000  Uiso   1.00
H119   H     0.52160   0.27392   0.02557   0.00000  Uiso   1.00
H120   H     0.73862   0.25200   0.12169   0.00000  Uiso   1.00
H121   H     0.06281   0.42081   0.41180   0.00000  Uiso   1.00
H122   H     0.61308   0.27017   0.87898   0.00000  Uiso   1.00
H123   H     0.63102   0.49610   0.03755   0.00000  Uiso   1.00
H124   H     0.76241   0.47192   0.02710   0.00000  Uiso   1.00
H125   H     0.44189   0.55197   0.16470   0.00000  Uiso   1.00
H126   H     0.70285   0.48054   0.91202   0.00000  Uiso   1.00
H127   H     0.88573   0.41970   0.02953   0.00000  Uiso   1.00
H128   H     0.20991   0.58851   0.31963   0.00000  Uiso   1.00
H129   H     0.76020   0.43787   0.78681   0.00000  Uiso   1.00
O130   O     0.89547   0.31642   0.07070   0.00000  Uiso   1.00
O131   O     0.00883   0.53788   0.45130   0.00000  Uiso   1.00
O132   O     0.73079   0.34025   0.75226   0.00000  Uiso   1.00
N133   N     0.75523   0.29479   0.10142   0.00000  Uiso   1.00
N134   N     0.12339   0.45261   0.37266   0.00000  Uiso   1.00
N135   N     0.63782   0.31178   0.87452   0.00000  Uiso   1.00
N136   N     0.83439   0.38502   0.05182   0.00000  Uiso   1.00
N137   N     0.20255   0.54284   0.32306   0.00000  Uiso   1.00
N138   N     0.71698   0.40202   0.82493   0.00000  Uiso   1.00
C139   C     0.99857   0.84510   0.12053   0.00000  Uiso   1.00
C140   C     0.08866   0.85328   0.10313   0.00000  Uiso   1.00
C141   C     0.12030   0.80990   0.11614   0.00000  Uiso   1.00
C142   C     0.20440   0.82622   0.09632   0.00000  Uiso   1.00
C143   C     0.33656   0.83016   0.07416   0.00000  Uiso   1.00
C144   C     0.91452   0.89678   0.17789   0.00000  Uiso   1.00
C145   C     0.79975   0.88997   0.25376   0.00000  Uiso   1.00
C146   C     0.73725   0.94290   0.29687   0.00000  Uiso   1.00
C147   C     0.59904   0.01438   0.39076   0.00000  Uiso   1.00
C148   C     0.05631   0.85796   0.04061   0.00000  Uiso   1.00
C149   C     0.06074   0.81852   0.00104   0.00000  Uiso   1.00
C150   C     0.11760   0.83878   0.92858   0.00000  Uiso   1.00
C151   C     0.19954   0.84999   0.80930   0.00000  Uiso   1.00
C152   C     0.09166   0.95122   0.06221   0.00000  Uiso   1.00
C153   C     0.13922   0.91092   0.07146   0.00000  Uiso   1.00
C154   C     0.22330   0.92731   0.05161   0.00000  Uiso   1.00
C155   C     0.25506   0.88396   0.06459   0.00000  Uiso   1.00
C156   C     0.96508   0.95442   0.14622   0.00000  Uiso   1.00
C157   C     0.90274   0.00738   0.18923   0.00000  Uiso   1.00
C158   C     0.78790   0.00065   0.26514   0.00000  Uiso   1.00
C159   C     0.10688   0.91560   0.00893   0.00000  Uiso   1.00
C160   C     0.16374   0.93593   0.93651   0.00000  Uiso   1.00
C161   C     0.16825   0.89652   0.89684   0.00000  Uiso   1.00
H162   H     0.95920   0.80023   0.14520   0.00000  Uiso   1.00
H163   H     0.08115   0.76530   0.14066   0.00000  Uiso   1.00
H164   H     0.76064   0.84536   0.27825   0.00000  Uiso   1.00
H165   H     0.02160   0.77392   0.02557   0.00000  Uiso   1.00
H166   H     0.23862   0.75200   0.12169   0.00000  Uiso   1.00
H167   H     0.56281   0.92081   0.41180   0.00000  Uiso   1.00
H168   H     0.11308   0.77017   0.87898   0.00000  Uiso   1.00
H169   H     0.13102   0.99610   0.03755   0.00000  Uiso   1.00
H170   H     0.26241   0.97192   0.02710   0.00000  Uiso   1.00
H171   H     0.94189   0.05197   0.16470   0.00000  Uiso   1.00
H172   H     0.20285   0.98054   0.91202   0.00000  Uiso   1.00
H173   H     0.38573   0.91970   0.02953   0.00000  Uiso   1.00
H174   H     0.70991   0.08851   0.31963   0.00000  Uiso   1.00
H175   H     0.26020   0.93787   0.78681   0.00000  Uiso   1.00
O176   O     0.39547   0.81642   0.07070   0.00000  Uiso   1.00
O177   O     0.50883   0.03788   0.45130   0.00000  Uiso   1.00
O178   O     0.23079   0.84025   0.75226   0.00000  Uiso   1.00
N179   N     0.25523   0.79479   0.10142   0.00000  Uiso   1.00
N180   N     0.62339   0.95261   0.37266   0.00000  Uiso   1.00
N181   N     0.13782   0.81178   0.87452   0.00000  Uiso   1.00
N182   N     0.33439   0.88502   0.05182   0.00000  Uiso   1.00
N183   N     0.70255   0.04284   0.32306   0.00000  Uiso   1.00
N184   N     0.21698   0.90202   0.82493   0.00000  Uiso   1.00
C185   C     0.49857   0.65490   0.62053   0.00000  Uiso   1.00
C186   C     0.58866   0.64672   0.60313   0.00000  Uiso   1.00
C187   C     0.62030   0.69010   0.61614   0.00000  Uiso   1.00
C188   C     0.70440   0.67378   0.59632   0.00000  Uiso   1.00
C189   C     0.83656   0.66984   0.57416   0.00000  Uiso   1.00
C190   C     0.41452   0.60322   0.67789   0.00000  Uiso   1.00
C191   C     0.29975   0.61003   0.75376   0.00000  Uiso   1.00
C192   C     0.23725   0.55710   0.79687   0.00000  Uiso   1.00
C193   C     0.09904   0.48562   0.89076   0.00000  Uiso   1.00
C194   C     0.55631   0.64204   0.54061   0.00000  Uiso   1.00
C195   C     0.56074   0.68148   0.50104   0.00000  Uiso   1.00
C196   C     0.61760   0.66122   0.42858   0.00000  Uiso   1.00
C197   C     0.69954   0.65001   0.30930   0.00000  Uiso   1.00
C198   C     0.59166   0.54878   0.56221   0.00000  Uiso   1.00
C199   C     0.63922   0.58908   0.57146   0.00000  Uiso   1.00
C200   C     0.72330   0.57269   0.55161   0.00000  Uiso   1.00
C201   C     0.75506   0.61604   0.56459   0.00000  Uiso   1.00
C202   C     0.46508   0.54558   0.64622   0.00000  Uiso   1.00
C203   C     0.40274   0.49262   0.68923   0.00000  Uiso   1.00
C204   C     0.28790   0.49935   0.76514   0.00000  Uiso   1.00
C205   C     0.60688   0.58440   0.50893   0.00000  Uiso   1.00
C206   C     0.66374   0.56407   0.43651   0.00000  Uiso   1.00
C207   C     0.66825   0.60348   0.39684   0.00000  Uiso   1.00
H208   H     0.45920   0.69977   0.64520   0.00000  Uiso   1.00
H209   H     0.58115   0.73470   0.64066   0.00000  Uiso   1.00
H210   H     0.26064   0.65464   0.77825   0.00000  Uiso   1.00
H211   H     0.52160   0.72608   0.52557   0.00000  Uiso   1.00
H212   H     0.73862   0.74800   0.62169   0.00000  Uiso   1.00
H213   H     0.06281   0.57919   0.91180   0.00000  Uiso   1.00
H214   H     0.61308   0.72983   0.37898   0.00000  Uiso   1.00
H215   H     0.63102   0.50390   0.53755   0.00000  Uiso   1.00
H216   H     0.76241   0.52808   0.52710   0.00000  Uiso   1.00
H217   H     0.44189   0.44803   0.66470   0.00000  Uiso   1.00
H218   H     0.70285   0.51946   0.41202   0.00000  Uiso   1.00
H219   H     0.88573   0.58030   0.52953   0.00000  Uiso   1.00
H220   H     0.20991   0.41149   0.81963   0.00000  Uiso   1.00
H221   H     0.76020   0.56213   0.28681   0.00000  Uiso   1.00
O222   O     0.89547   0.68358   0.57070   0.00000  Uiso   1.00
O223   O     0.00883   0.46212   0.95130   0.00000  Uiso   1.00
O224   O     0.73079   0.65975   0.25226   0.00000  Uiso   1.00
N225   N     0.75523   0.70521   0.60142   0.00000  Uiso   1.00
N226   N     0.12339   0.54739   0.87266   0.00000  Uiso   1.00
N227   N     0.63782   0.68822   0.37452   0.00000  Uiso   1.00
N228   N     0.83439   0.61498   0.55182   0.00000  Uiso   1.00
N229   N     0.20255   0.45716   0.82306   0.00000  Uiso   1.00
N230   N     0.71698   0.59798   0.32493   0.00000  Uiso   1.00
C231   C     0.99857   0.15490   0.62053   0.00000  Uiso   1.00
C232   C     0.08866   0.14672   0.60313   0.00000  Uiso   1.00
C233   C     0.12030   0.19010   0.61614   0.00000  Uiso   1.00
C234   C     0.20440   0.17378   0.59632   0.00000  Uiso   1.00
C235   C     0.33656   0.16984   0.57416   0.00000  Uiso   1.00
C236   C     0.91452   0.10322   0.67789   0.00000  Uiso   1.00
C237   C     0.79975   0.11003   0.75376   0.00000  Uiso   1.00
C238   C     0.73725   0.05710   0.79687   0.00000  Uiso   1.00
C239   C     0.59904   0.98562   0.89076   0.00000  Uiso   1.00
C240   C     0.05631   0.14204   0.54061   0.00000  Uiso   1.00
C241   C     0.06074   0.18148   0.50104   0.00000  Uiso   1.00
C242   C     0.11760   0.16122   0.42858   0.00000  Uiso   1.00
C243   C     0.19954   0.15001   0.30930   0.00000  Uiso   1.00
C244   C     0.09166   0.04878   0.56221   0.00000  Uiso   1.00
C245   C     0.13922   0.08908   0.57146   0.00000  Uiso   1.00
C246   C     0.22330   0.07269   0.55161   0.00000  Uiso   1.00
C247   C     0.25506   0.11604   0.56459   0.00000  Uiso   1.00
C248   C     0.96508   0.04558   0.64622   0.00000  Uiso   1.00
C249   C     0.90274   0.99262   0.68923   0.00000  Uiso   1.00
C250   C     0.78790   0.99935   0.76514   0.00000  Uiso   1.00
C251   C     0.10688   0.08440   0.50893   0.00000  Uiso   1.00
C252   C     0.16374   0.06407   0.43651   0.00000  Uiso   1.00
C253   C     0.16825   0.10348   0.39684   0.00000  Uiso   1.00
H254   H     0.95920   0.19977   0.64520   0.00000  Uiso   1.00
H255   H     0.08115   0.23470   0.64066   0.00000  Uiso   1.00
H256   H     0.76064   0.15464   0.77825   0.00000  Uiso   1.00
H257   H     0.02160   0.22608   0.52557   0.00000  Uiso   1.00
H258   H     0.23862   0.24800   0.62169   0.00000  Uiso   1.00
H259   H     0.56281   0.07919   0.91180   0.00000  Uiso   1.00
H260   H     0.11308   0.22983   0.37898   0.00000  Uiso   1.00
H261   H     0.13102   0.00390   0.53755   0.00000  Uiso   1.00
H262   H     0.26241   0.02808   0.52710   0.00000  Uiso   1.00
H263   H     0.94189   0.94803   0.66470   0.00000  Uiso   1.00
H264   H     0.20285   0.01946   0.41202   0.00000  Uiso   1.00
H265   H     0.38573   0.08030   0.52953   0.00000  Uiso   1.00
H266   H     0.70991   0.91149   0.81963   0.00000  Uiso   1.00
H267   H     0.26020   0.06213   0.28681   0.00000  Uiso   1.00
O268   O     0.39547   0.18358   0.57070   0.00000  Uiso   1.00
O269   O     0.50883   0.96212   0.95130   0.00000  Uiso   1.00
O270   O     0.23079   0.15975   0.25226   0.00000  Uiso   1.00
N271   N     0.25523   0.20521   0.60142   0.00000  Uiso   1.00
N272   N     0.62339   0.04739   0.87266   0.00000  Uiso   1.00
N273   N     0.13782   0.18822   0.37452   0.00000  Uiso   1.00
N274   N     0.33439   0.11498   0.55182   0.00000  Uiso   1.00
N275   N     0.70255   0.95716   0.82306   0.00000  Uiso   1.00
N276   N     0.21698   0.09798   0.32493   0.00000  Uiso   1.00
C277   C     0.50143   0.65490   0.87947   0.00000  Uiso   1.00
C278   C     0.41134   0.64672   0.89687   0.00000  Uiso   1.00
C279   C     0.37970   0.69010   0.88386   0.00000  Uiso   1.00
C280   C     0.29560   0.67378   0.90368   0.00000  Uiso   1.00
C281   C     0.16344   0.66984   0.92584   0.00000  Uiso   1.00
C282   C     0.58548   0.60322   0.82211   0.00000  Uiso   1.00
C283   C     0.70025   0.61003   0.74624   0.00000  Uiso   1.00
C284   C     0.76275   0.55710   0.70313   0.00000  Uiso   1.00
C285   C     0.90096   0.48562   0.60924   0.00000  Uiso   1.00
C286   C     0.44369   0.64204   0.95939   0.00000  Uiso   1.00
C287   C     0.43926   0.68148   0.99896   0.00000  Uiso   1.00
C288   C     0.38240   0.66122   0.07142   0.00000  Uiso   1.00
C289   C     0.30046   0.65001   0.19070   0.00000  Uiso   1.00
C290   C     0.40834   0.54878   0.93779   0.00000  Uiso   1.00
C291   C     0.36078   0.58908   0.92854   0.00000  Uiso   1.00
C292   C     0.27670   0.57269   0.94839   0.00000  Uiso   1.00
C293   C     0.24494   0.61604   0.93541   0.00000  Uiso   1.00
C294   C     0.53492   0.54558   0.85378   0.00000  Uiso   1.00
C295   C     0.59726   0.49262   0.81077   0.00000  Uiso   1.00
C296   C     0.71210   0.49935   0.73486   0.00000  Uiso   1.00
C297   C     0.39312   0.58440   0.99107   0.00000  Uiso   1.00
C298   C     0.33626   0.56407   0.06349   0.00000  Uiso   1.00
C299   C     0.33175   0.60348   0.10316   0.00000  Uiso   1.00
H300   H     0.54080   0.69977   0.85480   0.00000  Uiso   1.00
H301   H     0.41885   0.73470   0.85934   0.00000  Uiso   1.00
H302   H     0.73936   0.65464   0.72175   0.00000  Uiso   1.00
H303   H     0.47840   0.72608   0.97443   0.00000  Uiso   1.00
H304   H     0.26138   0.74800   0.87831   0.00000  Uiso   1.00
H305   H     0.93719   0.57919   0.58820   0.00000  Uiso   1.00
H306   H     0.38692   0.72983   0.12102   0.00000  Uiso   1.00
H307   H     0.36898   0.50390   0.96245   0.00000  Uiso   1.00
H308   H     0.23759   0.52808   0.97290   0.00000  Uiso   1.00
H309   H     0.55811   0.44803   0.83530   0.00000  Uiso   1.00
H310   H     0.29715   0.51946   0.08798   0.00000  Uiso   1.00
H311   H     0.11427   0.58030   0.97047   0.00000  Uiso   1.00
H312   H     0.79009   0.41149   0.68037   0.00000  Uiso   1.00
H313   H     0.23980   0.56213   0.21319   0.00000  Uiso   1.00
O314   O     0.10453   0.68358   0.92930   0.00000  Uiso   1.00
O315   O     0.99117   0.46212   0.54870   0.00000  Uiso   1.00
O316   O     0.26921   0.65975   0.24774   0.00000  Uiso   1.00
N317   N     0.24477   0.70521   0.89858   0.00000  Uiso   1.00
N318   N     0.87661   0.54739   0.62734   0.00000  Uiso   1.00
N319   N     0.36218   0.68822   0.12548   0.00000  Uiso   1.00
N320   N     0.16561   0.61498   0.94818   0.00000  Uiso   1.00
N321   N     0.79745   0.45716   0.67694   0.00000  Uiso   1.00
N322   N     0.28302   0.59798   0.17507   0.00000  Uiso   1.00
C323   C     0.00143   0.15490   0.87947   0.00000  Uiso   1.00
C324   C     0.91134   0.14672   0.89687   0.00000  Uiso   1.00
C325   C     0.87970   0.19010   0.88386   0.00000  Uiso   1.00
C326   C     0.79560   0.17378   0.90368   0.00000  Uiso   1.00
C327   C     0.66344   0.16984   0.92584   0.00000  Uiso   1.00
C328   C     0.08548   0.10322   0.82211   0.00000  Uiso   1.00
C329   C     0.20025   0.11003   0.74624   0.00000  Uiso   1.00
C330   C     0.26275   0.05710   0.70313   0.00000  Uiso   1.00
C331   C     0.40096   0.98562   0.60924   0.00000  Uiso   1.00
C332   C     0.94369   0.14204   0.95939   0.00000  Uiso   1.00
C333   C     0.93926   0.18148   0.99896   0.00000  Uiso   1.00
C334   C     0.88240   0.16122   0.07142   0.00000  Uiso   1.00
C335   C     0.80046   0.15001   0.19070   0.00000  Uiso   1.00
C336   C     0.90834   0.04878   0.93779   0.00000  Uiso   1.00
C337   C     0.86078   0.08908   0.92854   0.00000  Uiso   1.00
C338   C     0.77670   0.07269   0.94839   0.00000  Uiso   1.00
C339   C     0.74494   0.11604   0.93541   0.00000  Uiso   1.00
C340   C     0.03492   0.04558   0.85378   0.00000  Uiso   1.00
C341   C     0.09726   0.99262   0.81077   0.00000  Uiso   1.00
C342   C     0.21210   0.99935   0.73486   0.00000  Uiso   1.00
C343   C     0.89312   0.08440   0.99107   0.00000  Uiso   1.00
C344   C     0.83626   0.06407   0.06349   0.00000  Uiso   1.00
C345   C     0.83175   0.10348   0.10316   0.00000  Uiso   1.00
H346   H     0.04080   0.19977   0.85480   0.00000  Uiso   1.00
H347   H     0.91885   0.23470   0.85934   0.00000  Uiso   1.00
H348   H     0.23936   0.15464   0.72175   0.00000  Uiso   1.00
H349   H     0.97840   0.22608   0.97443   0.00000  Uiso   1.00
H350   H     0.76138   0.24800   0.87831   0.00000  Uiso   1.00
H351   H     0.43719   0.07919   0.58820   0.00000  Uiso   1.00
H352   H     0.88692   0.22983   0.12102   0.00000  Uiso   1.00
H353   H     0.86898   0.00390   0.96245   0.00000  Uiso   1.00
H354   H     0.73759   0.02808   0.97290   0.00000  Uiso   1.00
H355   H     0.05811   0.94803   0.83530   0.00000  Uiso   1.00
H356   H     0.79715   0.01946   0.08798   0.00000  Uiso   1.00
H357   H     0.61427   0.08030   0.97047   0.00000  Uiso   1.00
H358   H     0.29009   0.91149   0.68037   0.00000  Uiso   1.00
H359   H     0.73980   0.06213   0.21319   0.00000  Uiso   1.00
O360   O     0.60453   0.18358   0.92930   0.00000  Uiso   1.00
O361   O     0.49117   0.96212   0.54870   0.00000  Uiso   1.00
O362   O     0.76921   0.15975   0.24774   0.00000  Uiso   1.00
N363   N     0.74477   0.20521   0.89858   0.00000  Uiso   1.00
N364   N     0.37661   0.04739   0.62734   0.00000  Uiso   1.00
N365   N     0.86218   0.18822   0.12548   0.00000  Uiso   1.00
N366   N     0.66561   0.11498   0.94818   0.00000  Uiso   1.00
N367   N     0.29745   0.95716   0.67694   0.00000  Uiso   1.00
N368   N     0.78302   0.09798   0.17507   0.00000  Uiso   1.00
