data_job_02798
_audit_creation_date              2018-12-19
_audit_creation_method            'Materials Studio'
_symmetry_space_group_name_H-M    'P1'
_symmetry_Int_Tables_number       1
_symmetry_cell_setting            triclinic
loop_
_symmetry_equiv_pos_as_xyz
  x,y,z
_cell_length_a                    30.5194
_cell_length_b                    7.5059
_cell_length_c                    57.1062
_cell_angle_alpha                 90.0000
_cell_angle_beta                  134.4028
_cell_angle_gamma                 90.0000
loop_
_atom_site_label
_atom_site_type_symbol
_atom_site_fract_x
_atom_site_fract_y
_atom_site_fract_z
_atom_site_U_iso_or_equiv
_atom_site_adp_type
_atom_site_occupancy
C1     C     0.96357   0.75566   0.66505   0.00000  Uiso   1.00
C2     C     0.91208   0.83964   0.63148   0.00000  Uiso   1.00
C3     C     0.88240   0.76122   0.60152   0.00000  Uiso   1.00
C4     C     0.83651   0.85987   0.57359   0.00000  Uiso   1.00
C5     C     0.75896   0.96430   0.52117   0.00000  Uiso   1.00
C6     C     0.01720   0.88576   0.68392   0.00000  Uiso   1.00
C7     C     0.07590   0.84611   0.69806   0.00000  Uiso   1.00
C8     C     0.11850   0.98358   0.71427   0.00000  Uiso   1.00
C9     C     0.20415   0.15959   0.74329   0.00000  Uiso   1.00
C10    C     0.94175   0.75721   0.68226   0.00000  Uiso   1.00
C11    C     0.93703   0.60949   0.69500   0.00000  Uiso   1.00
C12    C     0.91612   0.63874   0.70982   0.00000  Uiso   1.00
C13    C     0.88463   0.61515   0.73625   0.00000  Uiso   1.00
C14    C     0.93485   0.07030   0.66873   0.00000  Uiso   1.00
C15    C     0.89649   0.01054   0.63349   0.00000  Uiso   1.00
C16    C     0.85063   0.10933   0.60559   0.00000  Uiso   1.00
C17    C     0.82089   0.03107   0.57559   0.00000  Uiso   1.00
C18    C     0.00160   0.05666   0.68593   0.00000  Uiso   1.00
C19    C     0.04412   0.19422   0.70213   0.00000  Uiso   1.00
C20    C     0.10287   0.15479   0.71628   0.00000  Uiso   1.00
C21    C     0.92615   0.92811   0.68426   0.00000  Uiso   1.00
C22    C     0.90525   0.95760   0.69907   0.00000  Uiso   1.00
C23    C     0.90050   0.80995   0.71182   0.00000  Uiso   1.00
H24    H     0.97572   0.62261   0.66349   0.00000  Uiso   1.00
H25    H     0.89449   0.62897   0.59998   0.00000  Uiso   1.00
H26    H     0.08796   0.71384   0.69651   0.00000  Uiso   1.00
H27    H     0.94910   0.47726   0.69344   0.00000  Uiso   1.00
H28    H     0.79757   0.71140   0.53045   0.00000  Uiso   1.00
H29    H     0.20551   0.89035   0.73399   0.00000  Uiso   1.00
H30    H     0.91272   0.39146   0.72753   0.00000  Uiso   1.00
H31    H     0.92271   0.20336   0.67029   0.00000  Uiso   1.00
H32    H     0.83857   0.24158   0.60715   0.00000  Uiso   1.00
H33    H     0.03204   0.32645   0.70367   0.00000  Uiso   1.00
H34    H     0.89319   0.08987   0.70061   0.00000  Uiso   1.00
H35    H     0.75219   0.20863   0.53627   0.00000  Uiso   1.00
H36    H     0.16013   0.38757   0.73981   0.00000  Uiso   1.00
H37    H     0.86733   0.88869   0.73335   0.00000  Uiso   1.00
O38    O     0.72050   0.97470   0.49170   0.00000  Uiso   1.00
O39    O     0.25570   0.20945   0.75874   0.00000  Uiso   1.00
O40    O     0.87156   0.55493   0.75027   0.00000  Uiso   1.00
N41    N     0.79843   0.82317   0.54049   0.00000  Uiso   1.00
N42    N     0.17983   0.99047   0.73078   0.00000  Uiso   1.00
N43    N     0.90611   0.52406   0.72475   0.00000  Uiso   1.00
N44    N     0.77401   0.09072   0.54362   0.00000  Uiso   1.00
N45    N     0.15540   0.25802   0.73391   0.00000  Uiso   1.00
N46    N     0.88168   0.79162   0.72788   0.00000  Uiso   1.00
C47    C     0.46357   0.25566   0.66505   0.00000  Uiso   1.00
C48    C     0.41208   0.33964   0.63148   0.00000  Uiso   1.00
C49    C     0.38240   0.26122   0.60152   0.00000  Uiso   1.00
C50    C     0.33651   0.35987   0.57359   0.00000  Uiso   1.00
C51    C     0.25896   0.46430   0.52117   0.00000  Uiso   1.00
C52    C     0.51720   0.38576   0.68392   0.00000  Uiso   1.00
C53    C     0.57590   0.34611   0.69806   0.00000  Uiso   1.00
C54    C     0.61850   0.48358   0.71427   0.00000  Uiso   1.00
C55    C     0.70415   0.65959   0.74329   0.00000  Uiso   1.00
C56    C     0.44175   0.25721   0.68226   0.00000  Uiso   1.00
C57    C     0.43703   0.10949   0.69500   0.00000  Uiso   1.00
C58    C     0.41612   0.13874   0.70982   0.00000  Uiso   1.00
C59    C     0.38463   0.11515   0.73625   0.00000  Uiso   1.00
C60    C     0.43485   0.57030   0.66873   0.00000  Uiso   1.00
C61    C     0.39649   0.51054   0.63349   0.00000  Uiso   1.00
C62    C     0.35063   0.60933   0.60559   0.00000  Uiso   1.00
C63    C     0.32089   0.53107   0.57559   0.00000  Uiso   1.00
C64    C     0.50160   0.55666   0.68593   0.00000  Uiso   1.00
C65    C     0.54412   0.69422   0.70213   0.00000  Uiso   1.00
C66    C     0.60287   0.65479   0.71628   0.00000  Uiso   1.00
C67    C     0.42615   0.42811   0.68426   0.00000  Uiso   1.00
C68    C     0.40525   0.45760   0.69907   0.00000  Uiso   1.00
C69    C     0.40050   0.30995   0.71182   0.00000  Uiso   1.00
H70    H     0.47572   0.12261   0.66349   0.00000  Uiso   1.00
H71    H     0.39449   0.12897   0.59998   0.00000  Uiso   1.00
H72    H     0.58796   0.21384   0.69651   0.00000  Uiso   1.00
H73    H     0.44910   0.97726   0.69344   0.00000  Uiso   1.00
H74    H     0.29757   0.21140   0.53045   0.00000  Uiso   1.00
H75    H     0.70551   0.39035   0.73399   0.00000  Uiso   1.00
H76    H     0.41272   0.89146   0.72753   0.00000  Uiso   1.00
H77    H     0.42271   0.70336   0.67029   0.00000  Uiso   1.00
H78    H     0.33857   0.74158   0.60715   0.00000  Uiso   1.00
H79    H     0.53204   0.82645   0.70367   0.00000  Uiso   1.00
H80    H     0.39319   0.58987   0.70061   0.00000  Uiso   1.00
H81    H     0.25219   0.70863   0.53627   0.00000  Uiso   1.00
H82    H     0.66013   0.88757   0.73981   0.00000  Uiso   1.00
H83    H     0.36733   0.38869   0.73335   0.00000  Uiso   1.00
O84    O     0.22050   0.47470   0.49170   0.00000  Uiso   1.00
O85    O     0.75570   0.70945   0.75874   0.00000  Uiso   1.00
O86    O     0.37156   0.05493   0.75027   0.00000  Uiso   1.00
N87    N     0.29843   0.32317   0.54049   0.00000  Uiso   1.00
N88    N     0.67983   0.49047   0.73078   0.00000  Uiso   1.00
N89    N     0.40611   0.02406   0.72475   0.00000  Uiso   1.00
N90    N     0.27401   0.59072   0.54362   0.00000  Uiso   1.00
N91    N     0.65540   0.75802   0.73391   0.00000  Uiso   1.00
N92    N     0.38168   0.29162   0.72788   0.00000  Uiso   1.00
C93    C     0.03643   0.75566   0.83495   0.00000  Uiso   1.00
C94    C     0.08792   0.83964   0.86852   0.00000  Uiso   1.00
C95    C     0.11760   0.76122   0.89848   0.00000  Uiso   1.00
C96    C     0.16349   0.85987   0.92641   0.00000  Uiso   1.00
C97    C     0.24104   0.96430   0.97883   0.00000  Uiso   1.00
C98    C     0.98280   0.88576   0.81608   0.00000  Uiso   1.00
C99    C     0.92410   0.84611   0.80194   0.00000  Uiso   1.00
C100   C     0.88150   0.98358   0.78573   0.00000  Uiso   1.00
C101   C     0.79585   0.15959   0.75671   0.00000  Uiso   1.00
C102   C     0.05825   0.75721   0.81774   0.00000  Uiso   1.00
C103   C     0.06297   0.60949   0.80500   0.00000  Uiso   1.00
C104   C     0.08388   0.63874   0.79018   0.00000  Uiso   1.00
C105   C     0.11537   0.61515   0.76375   0.00000  Uiso   1.00
C106   C     0.06515   0.07030   0.83127   0.00000  Uiso   1.00
C107   C     0.10351   0.01054   0.86651   0.00000  Uiso   1.00
C108   C     0.14937   0.10933   0.89441   0.00000  Uiso   1.00
C109   C     0.17911   0.03107   0.92441   0.00000  Uiso   1.00
C110   C     0.99840   0.05666   0.81407   0.00000  Uiso   1.00
C111   C     0.95588   0.19422   0.79787   0.00000  Uiso   1.00
C112   C     0.89713   0.15479   0.78372   0.00000  Uiso   1.00
C113   C     0.07385   0.92811   0.81574   0.00000  Uiso   1.00
C114   C     0.09475   0.95760   0.80093   0.00000  Uiso   1.00
C115   C     0.09950   0.80995   0.78818   0.00000  Uiso   1.00
H116   H     0.02428   0.62261   0.83651   0.00000  Uiso   1.00
H117   H     0.10551   0.62897   0.90002   0.00000  Uiso   1.00
H118   H     0.91204   0.71384   0.80349   0.00000  Uiso   1.00
H119   H     0.05090   0.47726   0.80656   0.00000  Uiso   1.00
H120   H     0.20243   0.71140   0.96955   0.00000  Uiso   1.00
H121   H     0.79449   0.89035   0.76601   0.00000  Uiso   1.00
H122   H     0.08728   0.39146   0.77247   0.00000  Uiso   1.00
H123   H     0.07729   0.20336   0.82971   0.00000  Uiso   1.00
H124   H     0.16143   0.24158   0.89285   0.00000  Uiso   1.00
H125   H     0.96796   0.32645   0.79633   0.00000  Uiso   1.00
H126   H     0.10681   0.08987   0.79939   0.00000  Uiso   1.00
H127   H     0.24781   0.20863   0.96373   0.00000  Uiso   1.00
H128   H     0.83987   0.38757   0.76019   0.00000  Uiso   1.00
H129   H     0.13267   0.88869   0.76665   0.00000  Uiso   1.00
O130   O     0.27950   0.97470   0.00830   0.00000  Uiso   1.00
O131   O     0.74430   0.20945   0.74126   0.00000  Uiso   1.00
O132   O     0.12844   0.55493   0.74973   0.00000  Uiso   1.00
N133   N     0.20157   0.82317   0.95951   0.00000  Uiso   1.00
N134   N     0.82017   0.99047   0.76922   0.00000  Uiso   1.00
N135   N     0.09389   0.52406   0.77525   0.00000  Uiso   1.00
N136   N     0.22599   0.09072   0.95638   0.00000  Uiso   1.00
N137   N     0.84460   0.25802   0.76609   0.00000  Uiso   1.00
N138   N     0.11832   0.79162   0.77212   0.00000  Uiso   1.00
C139   C     0.53643   0.25566   0.83495   0.00000  Uiso   1.00
C140   C     0.58792   0.33964   0.86852   0.00000  Uiso   1.00
C141   C     0.61760   0.26122   0.89848   0.00000  Uiso   1.00
C142   C     0.66349   0.35987   0.92641   0.00000  Uiso   1.00
C143   C     0.74104   0.46430   0.97883   0.00000  Uiso   1.00
C144   C     0.48280   0.38576   0.81608   0.00000  Uiso   1.00
C145   C     0.42410   0.34611   0.80194   0.00000  Uiso   1.00
C146   C     0.38150   0.48358   0.78573   0.00000  Uiso   1.00
C147   C     0.29585   0.65959   0.75671   0.00000  Uiso   1.00
C148   C     0.55825   0.25721   0.81774   0.00000  Uiso   1.00
C149   C     0.56297   0.10949   0.80500   0.00000  Uiso   1.00
C150   C     0.58388   0.13874   0.79018   0.00000  Uiso   1.00
C151   C     0.61537   0.11515   0.76375   0.00000  Uiso   1.00
C152   C     0.56515   0.57030   0.83127   0.00000  Uiso   1.00
C153   C     0.60351   0.51054   0.86651   0.00000  Uiso   1.00
C154   C     0.64937   0.60933   0.89441   0.00000  Uiso   1.00
C155   C     0.67911   0.53107   0.92441   0.00000  Uiso   1.00
C156   C     0.49840   0.55666   0.81407   0.00000  Uiso   1.00
C157   C     0.45588   0.69422   0.79787   0.00000  Uiso   1.00
C158   C     0.39713   0.65479   0.78372   0.00000  Uiso   1.00
C159   C     0.57385   0.42811   0.81574   0.00000  Uiso   1.00
C160   C     0.59475   0.45760   0.80093   0.00000  Uiso   1.00
C161   C     0.59950   0.30995   0.78818   0.00000  Uiso   1.00
H162   H     0.52428   0.12261   0.83651   0.00000  Uiso   1.00
H163   H     0.60551   0.12897   0.90002   0.00000  Uiso   1.00
H164   H     0.41204   0.21384   0.80349   0.00000  Uiso   1.00
H165   H     0.55090   0.97726   0.80656   0.00000  Uiso   1.00
H166   H     0.70243   0.21140   0.96955   0.00000  Uiso   1.00
H167   H     0.29449   0.39035   0.76601   0.00000  Uiso   1.00
H168   H     0.58728   0.89146   0.77247   0.00000  Uiso   1.00
H169   H     0.57729   0.70336   0.82971   0.00000  Uiso   1.00
H170   H     0.66143   0.74158   0.89285   0.00000  Uiso   1.00
H171   H     0.46796   0.82645   0.79633   0.00000  Uiso   1.00
H172   H     0.60681   0.58987   0.79939   0.00000  Uiso   1.00
H173   H     0.74781   0.70863   0.96373   0.00000  Uiso   1.00
H174   H     0.33987   0.88757   0.76019   0.00000  Uiso   1.00
H175   H     0.63267   0.38869   0.76665   0.00000  Uiso   1.00
O176   O     0.77950   0.47470   0.00830   0.00000  Uiso   1.00
O177   O     0.24430   0.70945   0.74126   0.00000  Uiso   1.00
O178   O     0.62844   0.05493   0.74973   0.00000  Uiso   1.00
N179   N     0.70157   0.32317   0.95951   0.00000  Uiso   1.00
N180   N     0.32017   0.49047   0.76922   0.00000  Uiso   1.00
N181   N     0.59389   0.02406   0.77525   0.00000  Uiso   1.00
N182   N     0.72599   0.59072   0.95638   0.00000  Uiso   1.00
N183   N     0.34460   0.75802   0.76609   0.00000  Uiso   1.00
N184   N     0.61832   0.29162   0.77212   0.00000  Uiso   1.00
C185   C     0.03643   0.24434   0.33495   0.00000  Uiso   1.00
C186   C     0.08792   0.16036   0.36852   0.00000  Uiso   1.00
C187   C     0.11760   0.23878   0.39848   0.00000  Uiso   1.00
C188   C     0.16349   0.14013   0.42641   0.00000  Uiso   1.00
C189   C     0.24104   0.03570   0.47883   0.00000  Uiso   1.00
C190   C     0.98280   0.11424   0.31608   0.00000  Uiso   1.00
C191   C     0.92410   0.15389   0.30194   0.00000  Uiso   1.00
C192   C     0.88150   0.01642   0.28573   0.00000  Uiso   1.00
C193   C     0.79585   0.84041   0.25671   0.00000  Uiso   1.00
C194   C     0.05825   0.24279   0.31774   0.00000  Uiso   1.00
C195   C     0.06297   0.39051   0.30500   0.00000  Uiso   1.00
C196   C     0.08388   0.36126   0.29018   0.00000  Uiso   1.00
C197   C     0.11537   0.38485   0.26375   0.00000  Uiso   1.00
C198   C     0.06515   0.92970   0.33127   0.00000  Uiso   1.00
C199   C     0.10351   0.98946   0.36651   0.00000  Uiso   1.00
C200   C     0.14937   0.89067   0.39441   0.00000  Uiso   1.00
C201   C     0.17911   0.96893   0.42441   0.00000  Uiso   1.00
C202   C     0.99840   0.94334   0.31407   0.00000  Uiso   1.00
C203   C     0.95588   0.80578   0.29787   0.00000  Uiso   1.00
C204   C     0.89713   0.84521   0.28372   0.00000  Uiso   1.00
C205   C     0.07385   0.07189   0.31574   0.00000  Uiso   1.00
C206   C     0.09475   0.04240   0.30093   0.00000  Uiso   1.00
C207   C     0.09950   0.19005   0.28818   0.00000  Uiso   1.00
H208   H     0.02428   0.37739   0.33651   0.00000  Uiso   1.00
H209   H     0.10551   0.37103   0.40002   0.00000  Uiso   1.00
H210   H     0.91204   0.28616   0.30349   0.00000  Uiso   1.00
H211   H     0.05090   0.52274   0.30656   0.00000  Uiso   1.00
H212   H     0.20243   0.28860   0.46955   0.00000  Uiso   1.00
H213   H     0.79449   0.10965   0.26601   0.00000  Uiso   1.00
H214   H     0.08728   0.60854   0.27247   0.00000  Uiso   1.00
H215   H     0.07729   0.79664   0.32971   0.00000  Uiso   1.00
H216   H     0.16143   0.75842   0.39285   0.00000  Uiso   1.00
H217   H     0.96796   0.67355   0.29633   0.00000  Uiso   1.00
H218   H     0.10681   0.91013   0.29939   0.00000  Uiso   1.00
H219   H     0.24781   0.79137   0.46373   0.00000  Uiso   1.00
H220   H     0.83987   0.61243   0.26019   0.00000  Uiso   1.00
H221   H     0.13267   0.11131   0.26665   0.00000  Uiso   1.00
O222   O     0.27950   0.02530   0.50830   0.00000  Uiso   1.00
O223   O     0.74430   0.79055   0.24126   0.00000  Uiso   1.00
O224   O     0.12844   0.44507   0.24973   0.00000  Uiso   1.00
N225   N     0.20157   0.17683   0.45951   0.00000  Uiso   1.00
N226   N     0.82017   0.00953   0.26922   0.00000  Uiso   1.00
N227   N     0.09389   0.47594   0.27525   0.00000  Uiso   1.00
N228   N     0.22599   0.90928   0.45638   0.00000  Uiso   1.00
N229   N     0.84460   0.74198   0.26609   0.00000  Uiso   1.00
N230   N     0.11832   0.20838   0.27212   0.00000  Uiso   1.00
C231   C     0.53643   0.74434   0.33495   0.00000  Uiso   1.00
C232   C     0.58792   0.66036   0.36852   0.00000  Uiso   1.00
C233   C     0.61760   0.73878   0.39848   0.00000  Uiso   1.00
C234   C     0.66349   0.64013   0.42641   0.00000  Uiso   1.00
C235   C     0.74104   0.53570   0.47883   0.00000  Uiso   1.00
C236   C     0.48280   0.61424   0.31608   0.00000  Uiso   1.00
C237   C     0.42410   0.65389   0.30194   0.00000  Uiso   1.00
C238   C     0.38150   0.51642   0.28573   0.00000  Uiso   1.00
C239   C     0.29585   0.34041   0.25671   0.00000  Uiso   1.00
C240   C     0.55825   0.74279   0.31774   0.00000  Uiso   1.00
C241   C     0.56297   0.89051   0.30500   0.00000  Uiso   1.00
C242   C     0.58388   0.86126   0.29018   0.00000  Uiso   1.00
C243   C     0.61537   0.88485   0.26375   0.00000  Uiso   1.00
C244   C     0.56515   0.42970   0.33127   0.00000  Uiso   1.00
C245   C     0.60351   0.48946   0.36651   0.00000  Uiso   1.00
C246   C     0.64937   0.39067   0.39441   0.00000  Uiso   1.00
C247   C     0.67911   0.46893   0.42441   0.00000  Uiso   1.00
C248   C     0.49840   0.44334   0.31407   0.00000  Uiso   1.00
C249   C     0.45588   0.30578   0.29787   0.00000  Uiso   1.00
C250   C     0.39713   0.34521   0.28372   0.00000  Uiso   1.00
C251   C     0.57385   0.57189   0.31574   0.00000  Uiso   1.00
C252   C     0.59475   0.54240   0.30093   0.00000  Uiso   1.00
C253   C     0.59950   0.69005   0.28818   0.00000  Uiso   1.00
H254   H     0.52428   0.87739   0.33651   0.00000  Uiso   1.00
H255   H     0.60551   0.87103   0.40002   0.00000  Uiso   1.00
H256   H     0.41204   0.78616   0.30349   0.00000  Uiso   1.00
H257   H     0.55090   0.02274   0.30656   0.00000  Uiso   1.00
H258   H     0.70243   0.78860   0.46955   0.00000  Uiso   1.00
H259   H     0.29449   0.60965   0.26601   0.00000  Uiso   1.00
H260   H     0.58728   0.10854   0.27247   0.00000  Uiso   1.00
H261   H     0.57729   0.29664   0.32971   0.00000  Uiso   1.00
H262   H     0.66143   0.25842   0.39285   0.00000  Uiso   1.00
H263   H     0.46796   0.17355   0.29633   0.00000  Uiso   1.00
H264   H     0.60681   0.41013   0.29939   0.00000  Uiso   1.00
H265   H     0.74781   0.29137   0.46373   0.00000  Uiso   1.00
H266   H     0.33987   0.11243   0.26019   0.00000  Uiso   1.00
H267   H     0.63267   0.61131   0.26665   0.00000  Uiso   1.00
O268   O     0.77950   0.52530   0.50830   0.00000  Uiso   1.00
O269   O     0.24430   0.29055   0.24126   0.00000  Uiso   1.00
O270   O     0.62844   0.94507   0.24973   0.00000  Uiso   1.00
N271   N     0.70157   0.67683   0.45951   0.00000  Uiso   1.00
N272   N     0.32017   0.50953   0.26922   0.00000  Uiso   1.00
N273   N     0.59389   0.97594   0.27525   0.00000  Uiso   1.00
N274   N     0.72599   0.40928   0.45638   0.00000  Uiso   1.00
N275   N     0.34460   0.24198   0.26609   0.00000  Uiso   1.00
N276   N     0.61832   0.70838   0.27212   0.00000  Uiso   1.00
C277   C     0.96357   0.24434   0.16505   0.00000  Uiso   1.00
C278   C     0.91208   0.16036   0.13148   0.00000  Uiso   1.00
C279   C     0.88240   0.23878   0.10152   0.00000  Uiso   1.00
C280   C     0.83651   0.14013   0.07359   0.00000  Uiso   1.00
C281   C     0.75896   0.03570   0.02117   0.00000  Uiso   1.00
C282   C     0.01720   0.11424   0.18392   0.00000  Uiso   1.00
C283   C     0.07590   0.15389   0.19806   0.00000  Uiso   1.00
C284   C     0.11850   0.01642   0.21427   0.00000  Uiso   1.00
C285   C     0.20415   0.84041   0.24329   0.00000  Uiso   1.00
C286   C     0.94175   0.24279   0.18226   0.00000  Uiso   1.00
C287   C     0.93703   0.39051   0.19500   0.00000  Uiso   1.00
C288   C     0.91612   0.36126   0.20982   0.00000  Uiso   1.00
C289   C     0.88463   0.38485   0.23625   0.00000  Uiso   1.00
C290   C     0.93485   0.92970   0.16873   0.00000  Uiso   1.00
C291   C     0.89649   0.98946   0.13349   0.00000  Uiso   1.00
C292   C     0.85063   0.89067   0.10559   0.00000  Uiso   1.00
C293   C     0.82089   0.96893   0.07559   0.00000  Uiso   1.00
C294   C     0.00160   0.94334   0.18593   0.00000  Uiso   1.00
C295   C     0.04412   0.80578   0.20213   0.00000  Uiso   1.00
C296   C     0.10287   0.84521   0.21628   0.00000  Uiso   1.00
C297   C     0.92615   0.07189   0.18426   0.00000  Uiso   1.00
C298   C     0.90525   0.04240   0.19907   0.00000  Uiso   1.00
C299   C     0.90050   0.19005   0.21182   0.00000  Uiso   1.00
H300   H     0.97572   0.37739   0.16349   0.00000  Uiso   1.00
H301   H     0.89449   0.37103   0.09998   0.00000  Uiso   1.00
H302   H     0.08796   0.28616   0.19651   0.00000  Uiso   1.00
H303   H     0.94910   0.52274   0.19344   0.00000  Uiso   1.00
H304   H     0.79757   0.28860   0.03045   0.00000  Uiso   1.00
H305   H     0.20551   0.10965   0.23399   0.00000  Uiso   1.00
H306   H     0.91272   0.60854   0.22753   0.00000  Uiso   1.00
H307   H     0.92271   0.79664   0.17029   0.00000  Uiso   1.00
H308   H     0.83857   0.75842   0.10715   0.00000  Uiso   1.00
H309   H     0.03204   0.67355   0.20367   0.00000  Uiso   1.00
H310   H     0.89319   0.91013   0.20061   0.00000  Uiso   1.00
H311   H     0.75219   0.79137   0.03627   0.00000  Uiso   1.00
H312   H     0.16013   0.61243   0.23981   0.00000  Uiso   1.00
H313   H     0.86733   0.11131   0.23335   0.00000  Uiso   1.00
O314   O     0.72050   0.02530   0.99170   0.00000  Uiso   1.00
O315   O     0.25570   0.79055   0.25874   0.00000  Uiso   1.00
O316   O     0.87156   0.44507   0.25027   0.00000  Uiso   1.00
N317   N     0.79843   0.17683   0.04049   0.00000  Uiso   1.00
N318   N     0.17983   0.00953   0.23078   0.00000  Uiso   1.00
N319   N     0.90611   0.47594   0.22475   0.00000  Uiso   1.00
N320   N     0.77401   0.90928   0.04362   0.00000  Uiso   1.00
N321   N     0.15540   0.74198   0.23391   0.00000  Uiso   1.00
N322   N     0.88168   0.20838   0.22788   0.00000  Uiso   1.00
C323   C     0.46357   0.74434   0.16505   0.00000  Uiso   1.00
C324   C     0.41208   0.66036   0.13148   0.00000  Uiso   1.00
C325   C     0.38240   0.73878   0.10152   0.00000  Uiso   1.00
C326   C     0.33651   0.64013   0.07359   0.00000  Uiso   1.00
C327   C     0.25896   0.53570   0.02117   0.00000  Uiso   1.00
C328   C     0.51720   0.61424   0.18392   0.00000  Uiso   1.00
C329   C     0.57590   0.65389   0.19806   0.00000  Uiso   1.00
C330   C     0.61850   0.51642   0.21427   0.00000  Uiso   1.00
C331   C     0.70415   0.34041   0.24329   0.00000  Uiso   1.00
C332   C     0.44175   0.74279   0.18226   0.00000  Uiso   1.00
C333   C     0.43703   0.89051   0.19500   0.00000  Uiso   1.00
C334   C     0.41612   0.86126   0.20982   0.00000  Uiso   1.00
C335   C     0.38463   0.88485   0.23625   0.00000  Uiso   1.00
C336   C     0.43485   0.42970   0.16873   0.00000  Uiso   1.00
C337   C     0.39649   0.48946   0.13349   0.00000  Uiso   1.00
C338   C     0.35063   0.39067   0.10559   0.00000  Uiso   1.00
C339   C     0.32089   0.46893   0.07559   0.00000  Uiso   1.00
C340   C     0.50160   0.44334   0.18593   0.00000  Uiso   1.00
C341   C     0.54412   0.30578   0.20213   0.00000  Uiso   1.00
C342   C     0.60287   0.34521   0.21628   0.00000  Uiso   1.00
C343   C     0.42615   0.57189   0.18426   0.00000  Uiso   1.00
C344   C     0.40525   0.54240   0.19907   0.00000  Uiso   1.00
C345   C     0.40050   0.69005   0.21182   0.00000  Uiso   1.00
H346   H     0.47572   0.87739   0.16349   0.00000  Uiso   1.00
H347   H     0.39449   0.87103   0.09998   0.00000  Uiso   1.00
H348   H     0.58796   0.78616   0.19651   0.00000  Uiso   1.00
H349   H     0.44910   0.02274   0.19344   0.00000  Uiso   1.00
H350   H     0.29757   0.78860   0.03045   0.00000  Uiso   1.00
H351   H     0.70551   0.60965   0.23399   0.00000  Uiso   1.00
H352   H     0.41272   0.10854   0.22753   0.00000  Uiso   1.00
H353   H     0.42271   0.29664   0.17029   0.00000  Uiso   1.00
H354   H     0.33857   0.25842   0.10715   0.00000  Uiso   1.00
H355   H     0.53204   0.17355   0.20367   0.00000  Uiso   1.00
H356   H     0.39319   0.41013   0.20061   0.00000  Uiso   1.00
H357   H     0.25219   0.29137   0.03627   0.00000  Uiso   1.00
H358   H     0.66013   0.11243   0.23981   0.00000  Uiso   1.00
H359   H     0.36733   0.61131   0.23335   0.00000  Uiso   1.00
O360   O     0.22050   0.52530   0.99170   0.00000  Uiso   1.00
O361   O     0.75570   0.29055   0.25874   0.00000  Uiso   1.00
O362   O     0.37156   0.94507   0.25027   0.00000  Uiso   1.00
N363   N     0.29843   0.67683   0.04049   0.00000  Uiso   1.00
N364   N     0.67983   0.50953   0.23078   0.00000  Uiso   1.00
N365   N     0.40611   0.97594   0.22475   0.00000  Uiso   1.00
N366   N     0.27401   0.40928   0.04362   0.00000  Uiso   1.00
N367   N     0.65540   0.24198   0.23391   0.00000  Uiso   1.00
N368   N     0.38168   0.70838   0.22788   0.00000  Uiso   1.00
