data_job_02673
_audit_creation_date              2018-12-19
_audit_creation_method            'Materials Studio'
_symmetry_space_group_name_H-M    'P1'
_symmetry_Int_Tables_number       1
_symmetry_cell_setting            triclinic
loop_
_symmetry_equiv_pos_as_xyz
  x,y,z
_cell_length_a                    13.1770
_cell_length_b                    18.1635
_cell_length_c                    20.0706
_cell_angle_alpha                 90.0000
_cell_angle_beta                  90.0000
_cell_angle_gamma                 90.0000
loop_
_atom_site_label
_atom_site_type_symbol
_atom_site_fract_x
_atom_site_fract_y
_atom_site_fract_z
_atom_site_U_iso_or_equiv
_atom_site_adp_type
_atom_site_occupancy
C1     C     0.98131   0.56846   0.32817   0.00000  Uiso   1.00
C2     C     0.08450   0.55671   0.36087   0.00000  Uiso   1.00
C3     C     0.11826   0.59059   0.41875   0.00000  Uiso   1.00
C4     C     0.21508   0.57251   0.44058   0.00000  Uiso   1.00
C5     C     0.36608   0.56193   0.49665   0.00000  Uiso   1.00
C6     C     0.00315   0.59295   0.25692   0.00000  Uiso   1.00
C7     C     0.96848   0.65731   0.22740   0.00000  Uiso   1.00
C8     C     0.99681   0.66973   0.16172   0.00000  Uiso   1.00
C9     C     0.02144   0.71539   0.05639   0.00000  Uiso   1.00
C10    C     0.93299   0.49241   0.32275   0.00000  Uiso   1.00
C11    C     0.83932   0.47223   0.34855   0.00000  Uiso   1.00
C12    C     0.80856   0.40000   0.33828   0.00000  Uiso   1.00
C13    C     0.72426   0.28956   0.33514   0.00000  Uiso   1.00
C14    C     0.09324   0.47608   0.26403   0.00000  Uiso   1.00
C15    C     0.14530   0.50654   0.32603   0.00000  Uiso   1.00
C16    C     0.24209   0.48839   0.34778   0.00000  Uiso   1.00
C17    C     0.27598   0.52224   0.40568   0.00000  Uiso   1.00
C18    C     0.06394   0.54278   0.22208   0.00000  Uiso   1.00
C19    C     0.09232   0.55511   0.15643   0.00000  Uiso   1.00
C20    C     0.05771   0.61947   0.12682   0.00000  Uiso   1.00
C21    C     0.99378   0.44223   0.28791   0.00000  Uiso   1.00
C22    C     0.96315   0.37003   0.27759   0.00000  Uiso   1.00
C23    C     0.86946   0.34974   0.30337   0.00000  Uiso   1.00
H24    H     0.93398   0.60752   0.35529   0.00000  Uiso   1.00
H25    H     0.07119   0.62943   0.44569   0.00000  Uiso   1.00
H26    H     0.92143   0.69612   0.25437   0.00000  Uiso   1.00
H27    H     0.79229   0.51107   0.37551   0.00000  Uiso   1.00
H28    H     0.25014   0.63160   0.53055   0.00000  Uiso   1.00
H29    H     0.93434   0.77223   0.12713   0.00000  Uiso   1.00
H30    H     0.66201   0.38201   0.38256   0.00000  Uiso   1.00
H31    H     0.14057   0.43702   0.23690   0.00000  Uiso   1.00
H32    H     0.28912   0.44956   0.32081   0.00000  Uiso   1.00
H33    H     0.13936   0.51626   0.12949   0.00000  Uiso   1.00
H34    H     0.01022   0.33121   0.25063   0.00000  Uiso   1.00
H35    H     0.42702   0.48562   0.42919   0.00000  Uiso   1.00
H36    H     0.11121   0.62625   0.02576   0.00000  Uiso   1.00
H37    H     0.83889   0.23603   0.28120   0.00000  Uiso   1.00
O38    O     0.43259   0.56996   0.53719   0.00000  Uiso   1.00
O39    O     0.01825   0.75445   0.00792   0.00000  Uiso   1.00
O40    O     0.66097   0.24250   0.34305   0.00000  Uiso   1.00
N41    N     0.27137   0.59551   0.49518   0.00000  Uiso   1.00
N42    N     0.97613   0.72700   0.11801   0.00000  Uiso   1.00
N43    N     0.72152   0.36218   0.35681   0.00000  Uiso   1.00
N44    N     0.36655   0.51696   0.44064   0.00000  Uiso   1.00
N45    N     0.07131   0.64844   0.06347   0.00000  Uiso   1.00
N46    N     0.81669   0.28363   0.30227   0.00000  Uiso   1.00
C47    C     0.51869   0.43154   0.82817   0.00000  Uiso   1.00
C48    C     0.41550   0.44329   0.86087   0.00000  Uiso   1.00
C49    C     0.38174   0.40941   0.91875   0.00000  Uiso   1.00
C50    C     0.28492   0.42749   0.94058   0.00000  Uiso   1.00
C51    C     0.13392   0.43807   0.99665   0.00000  Uiso   1.00
C52    C     0.49685   0.40705   0.75692   0.00000  Uiso   1.00
C53    C     0.53152   0.34269   0.72740   0.00000  Uiso   1.00
C54    C     0.50319   0.33027   0.66172   0.00000  Uiso   1.00
C55    C     0.47856   0.28461   0.55639   0.00000  Uiso   1.00
C56    C     0.56701   0.50759   0.82275   0.00000  Uiso   1.00
C57    C     0.66068   0.52777   0.84855   0.00000  Uiso   1.00
C58    C     0.69144   0.60000   0.83828   0.00000  Uiso   1.00
C59    C     0.77574   0.71044   0.83514   0.00000  Uiso   1.00
C60    C     0.40676   0.52392   0.76403   0.00000  Uiso   1.00
C61    C     0.35470   0.49346   0.82603   0.00000  Uiso   1.00
C62    C     0.25791   0.51161   0.84778   0.00000  Uiso   1.00
C63    C     0.22402   0.47776   0.90568   0.00000  Uiso   1.00
C64    C     0.43606   0.45722   0.72208   0.00000  Uiso   1.00
C65    C     0.40768   0.44489   0.65643   0.00000  Uiso   1.00
C66    C     0.44229   0.38053   0.62682   0.00000  Uiso   1.00
C67    C     0.50622   0.55777   0.78791   0.00000  Uiso   1.00
C68    C     0.53685   0.62997   0.77759   0.00000  Uiso   1.00
C69    C     0.63054   0.65026   0.80337   0.00000  Uiso   1.00
H70    H     0.56602   0.39248   0.85529   0.00000  Uiso   1.00
H71    H     0.42881   0.37057   0.94569   0.00000  Uiso   1.00
H72    H     0.57857   0.30388   0.75437   0.00000  Uiso   1.00
H73    H     0.70771   0.48893   0.87551   0.00000  Uiso   1.00
H74    H     0.24986   0.36840   0.03055   0.00000  Uiso   1.00
H75    H     0.56566   0.22777   0.62713   0.00000  Uiso   1.00
H76    H     0.83799   0.61799   0.88256   0.00000  Uiso   1.00
H77    H     0.35943   0.56298   0.73690   0.00000  Uiso   1.00
H78    H     0.21088   0.55044   0.82081   0.00000  Uiso   1.00
H79    H     0.36064   0.48374   0.62949   0.00000  Uiso   1.00
H80    H     0.48978   0.66879   0.75063   0.00000  Uiso   1.00
H81    H     0.07298   0.51438   0.92919   0.00000  Uiso   1.00
H82    H     0.38879   0.37375   0.52576   0.00000  Uiso   1.00
H83    H     0.66111   0.76397   0.78120   0.00000  Uiso   1.00
O84    O     0.06741   0.43004   0.03719   0.00000  Uiso   1.00
O85    O     0.48175   0.24555   0.50792   0.00000  Uiso   1.00
O86    O     0.83903   0.75750   0.84305   0.00000  Uiso   1.00
N87    N     0.22863   0.40449   0.99518   0.00000  Uiso   1.00
N88    N     0.52387   0.27300   0.61801   0.00000  Uiso   1.00
N89    N     0.77848   0.63782   0.85681   0.00000  Uiso   1.00
N90    N     0.13345   0.48304   0.94064   0.00000  Uiso   1.00
N91    N     0.42869   0.35156   0.56347   0.00000  Uiso   1.00
N92    N     0.68331   0.71637   0.80227   0.00000  Uiso   1.00
C93    C     0.01869   0.06846   0.17183   0.00000  Uiso   1.00
C94    C     0.91550   0.05671   0.13913   0.00000  Uiso   1.00
C95    C     0.88174   0.09059   0.08125   0.00000  Uiso   1.00
C96    C     0.78492   0.07251   0.05942   0.00000  Uiso   1.00
C97    C     0.63392   0.06193   0.00335   0.00000  Uiso   1.00
C98    C     0.99685   0.09295   0.24308   0.00000  Uiso   1.00
C99    C     0.03152   0.15731   0.27260   0.00000  Uiso   1.00
C100   C     0.00319   0.16973   0.33828   0.00000  Uiso   1.00
C101   C     0.97856   0.21539   0.44361   0.00000  Uiso   1.00
C102   C     0.06701   0.99241   0.17725   0.00000  Uiso   1.00
C103   C     0.16068   0.97223   0.15145   0.00000  Uiso   1.00
C104   C     0.19144   0.90000   0.16172   0.00000  Uiso   1.00
C105   C     0.27574   0.78956   0.16486   0.00000  Uiso   1.00
C106   C     0.90676   0.97608   0.23597   0.00000  Uiso   1.00
C107   C     0.85470   0.00654   0.17397   0.00000  Uiso   1.00
C108   C     0.75791   0.98839   0.15222   0.00000  Uiso   1.00
C109   C     0.72402   0.02224   0.09432   0.00000  Uiso   1.00
C110   C     0.93606   0.04278   0.27792   0.00000  Uiso   1.00
C111   C     0.90768   0.05511   0.34357   0.00000  Uiso   1.00
C112   C     0.94229   0.11947   0.37318   0.00000  Uiso   1.00
C113   C     0.00622   0.94223   0.21209   0.00000  Uiso   1.00
C114   C     0.03685   0.87003   0.22241   0.00000  Uiso   1.00
C115   C     0.13054   0.84974   0.19663   0.00000  Uiso   1.00
H116   H     0.06602   0.10752   0.14471   0.00000  Uiso   1.00
H117   H     0.92881   0.12943   0.05431   0.00000  Uiso   1.00
H118   H     0.07857   0.19612   0.24563   0.00000  Uiso   1.00
H119   H     0.20771   0.01107   0.12449   0.00000  Uiso   1.00
H120   H     0.74986   0.13160   0.96945   0.00000  Uiso   1.00
H121   H     0.06566   0.27223   0.37287   0.00000  Uiso   1.00
H122   H     0.33799   0.88201   0.11744   0.00000  Uiso   1.00
H123   H     0.85943   0.93702   0.26310   0.00000  Uiso   1.00
H124   H     0.71088   0.94956   0.17919   0.00000  Uiso   1.00
H125   H     0.86064   0.01626   0.37051   0.00000  Uiso   1.00
H126   H     0.98978   0.83121   0.24937   0.00000  Uiso   1.00
H127   H     0.57298   0.98562   0.07081   0.00000  Uiso   1.00
H128   H     0.88879   0.12625   0.47424   0.00000  Uiso   1.00
H129   H     0.16111   0.73603   0.21880   0.00000  Uiso   1.00
O130   O     0.56741   0.06996   0.96281   0.00000  Uiso   1.00
O131   O     0.98175   0.25445   0.49208   0.00000  Uiso   1.00
O132   O     0.33903   0.74250   0.15695   0.00000  Uiso   1.00
N133   N     0.72863   0.09551   0.00482   0.00000  Uiso   1.00
N134   N     0.02387   0.22700   0.38199   0.00000  Uiso   1.00
N135   N     0.27848   0.86218   0.14319   0.00000  Uiso   1.00
N136   N     0.63345   0.01696   0.05936   0.00000  Uiso   1.00
N137   N     0.92869   0.14844   0.43653   0.00000  Uiso   1.00
N138   N     0.18331   0.78363   0.19773   0.00000  Uiso   1.00
C139   C     0.48131   0.93154   0.67183   0.00000  Uiso   1.00
C140   C     0.58450   0.94329   0.63913   0.00000  Uiso   1.00
C141   C     0.61826   0.90941   0.58125   0.00000  Uiso   1.00
C142   C     0.71508   0.92749   0.55942   0.00000  Uiso   1.00
C143   C     0.86608   0.93807   0.50335   0.00000  Uiso   1.00
C144   C     0.50315   0.90705   0.74308   0.00000  Uiso   1.00
C145   C     0.46848   0.84269   0.77260   0.00000  Uiso   1.00
C146   C     0.49681   0.83027   0.83828   0.00000  Uiso   1.00
C147   C     0.52144   0.78461   0.94361   0.00000  Uiso   1.00
C148   C     0.43299   0.00759   0.67725   0.00000  Uiso   1.00
C149   C     0.33932   0.02777   0.65145   0.00000  Uiso   1.00
C150   C     0.30856   0.10000   0.66172   0.00000  Uiso   1.00
C151   C     0.22426   0.21044   0.66486   0.00000  Uiso   1.00
C152   C     0.59324   0.02392   0.73597   0.00000  Uiso   1.00
C153   C     0.64530   0.99346   0.67397   0.00000  Uiso   1.00
C154   C     0.74209   0.01161   0.65222   0.00000  Uiso   1.00
C155   C     0.77598   0.97776   0.59432   0.00000  Uiso   1.00
C156   C     0.56394   0.95722   0.77792   0.00000  Uiso   1.00
C157   C     0.59232   0.94489   0.84357   0.00000  Uiso   1.00
C158   C     0.55771   0.88053   0.87318   0.00000  Uiso   1.00
C159   C     0.49378   0.05777   0.71209   0.00000  Uiso   1.00
C160   C     0.46315   0.12997   0.72241   0.00000  Uiso   1.00
C161   C     0.36946   0.15026   0.69663   0.00000  Uiso   1.00
H162   H     0.43398   0.89248   0.64471   0.00000  Uiso   1.00
H163   H     0.57119   0.87057   0.55431   0.00000  Uiso   1.00
H164   H     0.42143   0.80388   0.74563   0.00000  Uiso   1.00
H165   H     0.29229   0.98893   0.62449   0.00000  Uiso   1.00
H166   H     0.75014   0.86840   0.46945   0.00000  Uiso   1.00
H167   H     0.43434   0.72777   0.87287   0.00000  Uiso   1.00
H168   H     0.16201   0.11799   0.61744   0.00000  Uiso   1.00
H169   H     0.64057   0.06298   0.76310   0.00000  Uiso   1.00
H170   H     0.78912   0.05044   0.67919   0.00000  Uiso   1.00
H171   H     0.63936   0.98374   0.87051   0.00000  Uiso   1.00
H172   H     0.51022   0.16879   0.74937   0.00000  Uiso   1.00
H173   H     0.92702   0.01438   0.57081   0.00000  Uiso   1.00
H174   H     0.61121   0.87375   0.97424   0.00000  Uiso   1.00
H175   H     0.33889   0.26397   0.71880   0.00000  Uiso   1.00
O176   O     0.93259   0.93004   0.46281   0.00000  Uiso   1.00
O177   O     0.51825   0.74555   0.99208   0.00000  Uiso   1.00
O178   O     0.16097   0.25750   0.65695   0.00000  Uiso   1.00
N179   N     0.77137   0.90449   0.50482   0.00000  Uiso   1.00
N180   N     0.47613   0.77300   0.88199   0.00000  Uiso   1.00
N181   N     0.22152   0.13782   0.64319   0.00000  Uiso   1.00
N182   N     0.86655   0.98304   0.55936   0.00000  Uiso   1.00
N183   N     0.57131   0.85156   0.93653   0.00000  Uiso   1.00
N184   N     0.31669   0.21637   0.69773   0.00000  Uiso   1.00
C185   C     0.01869   0.43154   0.67183   0.00000  Uiso   1.00
C186   C     0.91550   0.44329   0.63913   0.00000  Uiso   1.00
C187   C     0.88174   0.40941   0.58125   0.00000  Uiso   1.00
C188   C     0.78492   0.42749   0.55942   0.00000  Uiso   1.00
C189   C     0.63392   0.43807   0.50335   0.00000  Uiso   1.00
C190   C     0.99685   0.40705   0.74308   0.00000  Uiso   1.00
C191   C     0.03152   0.34269   0.77260   0.00000  Uiso   1.00
C192   C     0.00319   0.33027   0.83828   0.00000  Uiso   1.00
C193   C     0.97856   0.28461   0.94361   0.00000  Uiso   1.00
C194   C     0.06701   0.50759   0.67725   0.00000  Uiso   1.00
C195   C     0.16068   0.52777   0.65145   0.00000  Uiso   1.00
C196   C     0.19144   0.60000   0.66172   0.00000  Uiso   1.00
C197   C     0.27574   0.71044   0.66486   0.00000  Uiso   1.00
C198   C     0.90676   0.52392   0.73597   0.00000  Uiso   1.00
C199   C     0.85470   0.49346   0.67397   0.00000  Uiso   1.00
C200   C     0.75791   0.51161   0.65222   0.00000  Uiso   1.00
C201   C     0.72402   0.47776   0.59432   0.00000  Uiso   1.00
C202   C     0.93606   0.45722   0.77792   0.00000  Uiso   1.00
C203   C     0.90768   0.44489   0.84357   0.00000  Uiso   1.00
C204   C     0.94229   0.38053   0.87318   0.00000  Uiso   1.00
C205   C     0.00622   0.55777   0.71209   0.00000  Uiso   1.00
C206   C     0.03685   0.62997   0.72241   0.00000  Uiso   1.00
C207   C     0.13054   0.65026   0.69663   0.00000  Uiso   1.00
H208   H     0.06602   0.39248   0.64471   0.00000  Uiso   1.00
H209   H     0.92881   0.37057   0.55431   0.00000  Uiso   1.00
H210   H     0.07857   0.30388   0.74563   0.00000  Uiso   1.00
H211   H     0.20771   0.48893   0.62449   0.00000  Uiso   1.00
H212   H     0.74986   0.36840   0.46945   0.00000  Uiso   1.00
H213   H     0.06566   0.22777   0.87287   0.00000  Uiso   1.00
H214   H     0.33799   0.61799   0.61744   0.00000  Uiso   1.00
H215   H     0.85943   0.56298   0.76310   0.00000  Uiso   1.00
H216   H     0.71088   0.55044   0.67919   0.00000  Uiso   1.00
H217   H     0.86064   0.48374   0.87051   0.00000  Uiso   1.00
H218   H     0.98978   0.66879   0.74937   0.00000  Uiso   1.00
H219   H     0.57298   0.51438   0.57081   0.00000  Uiso   1.00
H220   H     0.88879   0.37375   0.97424   0.00000  Uiso   1.00
H221   H     0.16111   0.76397   0.71880   0.00000  Uiso   1.00
O222   O     0.56741   0.43004   0.46281   0.00000  Uiso   1.00
O223   O     0.98175   0.24555   0.99208   0.00000  Uiso   1.00
O224   O     0.33903   0.75750   0.65695   0.00000  Uiso   1.00
N225   N     0.72863   0.40449   0.50482   0.00000  Uiso   1.00
N226   N     0.02387   0.27300   0.88199   0.00000  Uiso   1.00
N227   N     0.27848   0.63782   0.64319   0.00000  Uiso   1.00
N228   N     0.63345   0.48304   0.55936   0.00000  Uiso   1.00
N229   N     0.92869   0.35156   0.93653   0.00000  Uiso   1.00
N230   N     0.18331   0.71637   0.69773   0.00000  Uiso   1.00
C231   C     0.48131   0.56846   0.17183   0.00000  Uiso   1.00
C232   C     0.58450   0.55671   0.13913   0.00000  Uiso   1.00
C233   C     0.61826   0.59059   0.08125   0.00000  Uiso   1.00
C234   C     0.71508   0.57251   0.05942   0.00000  Uiso   1.00
C235   C     0.86608   0.56193   0.00335   0.00000  Uiso   1.00
C236   C     0.50315   0.59295   0.24308   0.00000  Uiso   1.00
C237   C     0.46848   0.65731   0.27260   0.00000  Uiso   1.00
C238   C     0.49681   0.66973   0.33828   0.00000  Uiso   1.00
C239   C     0.52144   0.71539   0.44361   0.00000  Uiso   1.00
C240   C     0.43299   0.49241   0.17725   0.00000  Uiso   1.00
C241   C     0.33932   0.47223   0.15145   0.00000  Uiso   1.00
C242   C     0.30856   0.40000   0.16172   0.00000  Uiso   1.00
C243   C     0.22426   0.28956   0.16486   0.00000  Uiso   1.00
C244   C     0.59324   0.47608   0.23597   0.00000  Uiso   1.00
C245   C     0.64530   0.50654   0.17397   0.00000  Uiso   1.00
C246   C     0.74209   0.48839   0.15222   0.00000  Uiso   1.00
C247   C     0.77598   0.52224   0.09432   0.00000  Uiso   1.00
C248   C     0.56394   0.54278   0.27792   0.00000  Uiso   1.00
C249   C     0.59232   0.55511   0.34357   0.00000  Uiso   1.00
C250   C     0.55771   0.61947   0.37318   0.00000  Uiso   1.00
C251   C     0.49378   0.44223   0.21209   0.00000  Uiso   1.00
C252   C     0.46315   0.37003   0.22241   0.00000  Uiso   1.00
C253   C     0.36946   0.34974   0.19663   0.00000  Uiso   1.00
H254   H     0.43398   0.60752   0.14471   0.00000  Uiso   1.00
H255   H     0.57119   0.62943   0.05431   0.00000  Uiso   1.00
H256   H     0.42143   0.69612   0.24563   0.00000  Uiso   1.00
H257   H     0.29229   0.51107   0.12449   0.00000  Uiso   1.00
H258   H     0.75014   0.63160   0.96945   0.00000  Uiso   1.00
H259   H     0.43434   0.77223   0.37287   0.00000  Uiso   1.00
H260   H     0.16201   0.38201   0.11744   0.00000  Uiso   1.00
H261   H     0.64057   0.43702   0.26310   0.00000  Uiso   1.00
H262   H     0.78912   0.44956   0.17919   0.00000  Uiso   1.00
H263   H     0.63936   0.51626   0.37051   0.00000  Uiso   1.00
H264   H     0.51022   0.33121   0.24937   0.00000  Uiso   1.00
H265   H     0.92702   0.48562   0.07081   0.00000  Uiso   1.00
H266   H     0.61121   0.62625   0.47424   0.00000  Uiso   1.00
H267   H     0.33889   0.23603   0.21880   0.00000  Uiso   1.00
O268   O     0.93259   0.56996   0.96281   0.00000  Uiso   1.00
O269   O     0.51825   0.75445   0.49208   0.00000  Uiso   1.00
O270   O     0.16097   0.24250   0.15695   0.00000  Uiso   1.00
N271   N     0.77137   0.59551   0.00482   0.00000  Uiso   1.00
N272   N     0.47613   0.72700   0.38199   0.00000  Uiso   1.00
N273   N     0.22152   0.36218   0.14319   0.00000  Uiso   1.00
N274   N     0.86655   0.51696   0.05936   0.00000  Uiso   1.00
N275   N     0.57131   0.64844   0.43653   0.00000  Uiso   1.00
N276   N     0.31669   0.28363   0.19773   0.00000  Uiso   1.00
C277   C     0.98131   0.93154   0.82817   0.00000  Uiso   1.00
C278   C     0.08450   0.94329   0.86087   0.00000  Uiso   1.00
C279   C     0.11826   0.90941   0.91875   0.00000  Uiso   1.00
C280   C     0.21508   0.92749   0.94058   0.00000  Uiso   1.00
C281   C     0.36608   0.93807   0.99665   0.00000  Uiso   1.00
C282   C     0.00315   0.90705   0.75692   0.00000  Uiso   1.00
C283   C     0.96848   0.84269   0.72740   0.00000  Uiso   1.00
C284   C     0.99681   0.83027   0.66172   0.00000  Uiso   1.00
C285   C     0.02144   0.78461   0.55639   0.00000  Uiso   1.00
C286   C     0.93299   0.00759   0.82275   0.00000  Uiso   1.00
C287   C     0.83932   0.02777   0.84855   0.00000  Uiso   1.00
C288   C     0.80856   0.10000   0.83828   0.00000  Uiso   1.00
C289   C     0.72426   0.21044   0.83514   0.00000  Uiso   1.00
C290   C     0.09324   0.02392   0.76403   0.00000  Uiso   1.00
C291   C     0.14530   0.99346   0.82603   0.00000  Uiso   1.00
C292   C     0.24209   0.01161   0.84778   0.00000  Uiso   1.00
C293   C     0.27598   0.97776   0.90568   0.00000  Uiso   1.00
C294   C     0.06394   0.95722   0.72208   0.00000  Uiso   1.00
C295   C     0.09232   0.94489   0.65643   0.00000  Uiso   1.00
C296   C     0.05771   0.88053   0.62682   0.00000  Uiso   1.00
C297   C     0.99378   0.05777   0.78791   0.00000  Uiso   1.00
C298   C     0.96315   0.12997   0.77759   0.00000  Uiso   1.00
C299   C     0.86946   0.15026   0.80337   0.00000  Uiso   1.00
H300   H     0.93398   0.89248   0.85529   0.00000  Uiso   1.00
H301   H     0.07119   0.87057   0.94569   0.00000  Uiso   1.00
H302   H     0.92143   0.80388   0.75437   0.00000  Uiso   1.00
H303   H     0.79229   0.98893   0.87551   0.00000  Uiso   1.00
H304   H     0.25014   0.86840   0.03055   0.00000  Uiso   1.00
H305   H     0.93434   0.72777   0.62713   0.00000  Uiso   1.00
H306   H     0.66201   0.11799   0.88256   0.00000  Uiso   1.00
H307   H     0.14057   0.06298   0.73690   0.00000  Uiso   1.00
H308   H     0.28912   0.05044   0.82081   0.00000  Uiso   1.00
H309   H     0.13936   0.98374   0.62949   0.00000  Uiso   1.00
H310   H     0.01022   0.16879   0.75063   0.00000  Uiso   1.00
H311   H     0.42702   0.01438   0.92919   0.00000  Uiso   1.00
H312   H     0.11121   0.87375   0.52576   0.00000  Uiso   1.00
H313   H     0.83889   0.26397   0.78120   0.00000  Uiso   1.00
O314   O     0.43259   0.93004   0.03719   0.00000  Uiso   1.00
O315   O     0.01825   0.74555   0.50792   0.00000  Uiso   1.00
O316   O     0.66097   0.25750   0.84305   0.00000  Uiso   1.00
N317   N     0.27137   0.90449   0.99518   0.00000  Uiso   1.00
N318   N     0.97613   0.77300   0.61801   0.00000  Uiso   1.00
N319   N     0.72152   0.13782   0.85681   0.00000  Uiso   1.00
N320   N     0.36655   0.98304   0.94064   0.00000  Uiso   1.00
N321   N     0.07131   0.85156   0.56347   0.00000  Uiso   1.00
N322   N     0.81669   0.21637   0.80227   0.00000  Uiso   1.00
C323   C     0.51869   0.06846   0.32817   0.00000  Uiso   1.00
C324   C     0.41550   0.05671   0.36087   0.00000  Uiso   1.00
C325   C     0.38174   0.09059   0.41875   0.00000  Uiso   1.00
C326   C     0.28492   0.07251   0.44058   0.00000  Uiso   1.00
C327   C     0.13392   0.06193   0.49665   0.00000  Uiso   1.00
C328   C     0.49685   0.09295   0.25692   0.00000  Uiso   1.00
C329   C     0.53152   0.15731   0.22740   0.00000  Uiso   1.00
C330   C     0.50319   0.16973   0.16172   0.00000  Uiso   1.00
C331   C     0.47856   0.21539   0.05639   0.00000  Uiso   1.00
C332   C     0.56701   0.99241   0.32275   0.00000  Uiso   1.00
C333   C     0.66068   0.97223   0.34855   0.00000  Uiso   1.00
C334   C     0.69144   0.90000   0.33828   0.00000  Uiso   1.00
C335   C     0.77574   0.78956   0.33514   0.00000  Uiso   1.00
C336   C     0.40676   0.97608   0.26403   0.00000  Uiso   1.00
C337   C     0.35470   0.00654   0.32603   0.00000  Uiso   1.00
C338   C     0.25791   0.98839   0.34778   0.00000  Uiso   1.00
C339   C     0.22402   0.02224   0.40568   0.00000  Uiso   1.00
C340   C     0.43606   0.04278   0.22208   0.00000  Uiso   1.00
C341   C     0.40768   0.05511   0.15643   0.00000  Uiso   1.00
C342   C     0.44229   0.11947   0.12682   0.00000  Uiso   1.00
C343   C     0.50622   0.94223   0.28791   0.00000  Uiso   1.00
C344   C     0.53685   0.87003   0.27759   0.00000  Uiso   1.00
C345   C     0.63054   0.84974   0.30337   0.00000  Uiso   1.00
H346   H     0.56602   0.10752   0.35529   0.00000  Uiso   1.00
H347   H     0.42881   0.12943   0.44569   0.00000  Uiso   1.00
H348   H     0.57857   0.19612   0.25437   0.00000  Uiso   1.00
H349   H     0.70771   0.01107   0.37551   0.00000  Uiso   1.00
H350   H     0.24986   0.13160   0.53055   0.00000  Uiso   1.00
H351   H     0.56566   0.27223   0.12713   0.00000  Uiso   1.00
H352   H     0.83799   0.88201   0.38256   0.00000  Uiso   1.00
H353   H     0.35943   0.93702   0.23690   0.00000  Uiso   1.00
H354   H     0.21088   0.94956   0.32081   0.00000  Uiso   1.00
H355   H     0.36064   0.01626   0.12949   0.00000  Uiso   1.00
H356   H     0.48978   0.83121   0.25063   0.00000  Uiso   1.00
H357   H     0.07298   0.98562   0.42919   0.00000  Uiso   1.00
H358   H     0.38879   0.12625   0.02576   0.00000  Uiso   1.00
H359   H     0.66111   0.73603   0.28120   0.00000  Uiso   1.00
O360   O     0.06741   0.06996   0.53719   0.00000  Uiso   1.00
O361   O     0.48175   0.25445   0.00792   0.00000  Uiso   1.00
O362   O     0.83903   0.74250   0.34305   0.00000  Uiso   1.00
N363   N     0.22863   0.09551   0.49518   0.00000  Uiso   1.00
N364   N     0.52387   0.22700   0.11801   0.00000  Uiso   1.00
N365   N     0.77848   0.86218   0.35681   0.00000  Uiso   1.00
N366   N     0.13345   0.01696   0.44064   0.00000  Uiso   1.00
N367   N     0.42869   0.14844   0.06347   0.00000  Uiso   1.00
N368   N     0.68331   0.78363   0.30227   0.00000  Uiso   1.00
