data_job_06021
_audit_creation_date              2018-12-19
_audit_creation_method            'Materials Studio'
_symmetry_space_group_name_H-M    'P1'
_symmetry_Int_Tables_number       1
_symmetry_cell_setting            triclinic
loop_
_symmetry_equiv_pos_as_xyz
  x,y,z
_cell_length_a                    16.8135
_cell_length_b                    16.1499
_cell_length_c                    15.9314
_cell_angle_alpha                 101.2340
_cell_angle_beta                  100.4930
_cell_angle_gamma                 100.9410
loop_
_atom_site_label
_atom_site_type_symbol
_atom_site_fract_x
_atom_site_fract_y
_atom_site_fract_z
_atom_site_U_iso_or_equiv
_atom_site_adp_type
_atom_site_occupancy
C1     C     0.23639   0.80764   0.37850   0.00000  Uiso   1.00
C2     C     0.21062   0.83743   0.29458   0.00000  Uiso   1.00
C3     C     0.24265   0.91766   0.27973   0.00000  Uiso   1.00
C4     C     0.21088   0.93240   0.19865   0.00000  Uiso   1.00
C5     C     0.18021   0.98830   0.07807   0.00000  Uiso   1.00
C6     C     0.15682   0.78182   0.40984   0.00000  Uiso   1.00
C7     C     0.14363   0.81529   0.49190   0.00000  Uiso   1.00
C8     C     0.06657   0.78321   0.50783   0.00000  Uiso   1.00
C9     C     0.95239   0.75272   0.56622   0.00000  Uiso   1.00
C10    C     0.26402   0.72384   0.35051   0.00000  Uiso   1.00
C11    C     0.34095   0.70854   0.38269   0.00000  Uiso   1.00
C12    C     0.35414   0.62763   0.34869   0.00000  Uiso   1.00
C13    C     0.40640   0.50713   0.31496   0.00000  Uiso   1.00
C14    C     0.12301   0.69115   0.26091   0.00000  Uiso   1.00
C15    C     0.14904   0.77416   0.23072   0.00000  Uiso   1.00
C16    C     0.11721   0.78878   0.14963   0.00000  Uiso   1.00
C17    C     0.14919   0.86902   0.13466   0.00000  Uiso   1.00
C18    C     0.09524   0.71855   0.34597   0.00000  Uiso   1.00
C19    C     0.01818   0.68641   0.36179   0.00000  Uiso   1.00
C20    C     0.00487   0.71982   0.44384   0.00000  Uiso   1.00
C21    C     0.20244   0.66056   0.28663   0.00000  Uiso   1.00
C22    C     0.21551   0.57966   0.25258   0.00000  Uiso   1.00
C23    C     0.29244   0.56425   0.28470   0.00000  Uiso   1.00
H24    H     0.28433   0.85690   0.42824   0.00000  Uiso   1.00
H25    H     0.29031   0.96661   0.32918   0.00000  Uiso   1.00
H26    H     0.19130   0.86424   0.54131   0.00000  Uiso   1.00
H27    H     0.38859   0.75752   0.43212   0.00000  Uiso   1.00
H28    H     0.26975   0.06036   0.19121   0.00000  Uiso   1.00
H29    H     0.06100   0.84449   0.63851   0.00000  Uiso   1.00
H30    H     0.47703   0.61944   0.40826   0.00000  Uiso   1.00
H31    H     0.07506   0.64188   0.21118   0.00000  Uiso   1.00
H32    H     0.06955   0.73980   0.10021   0.00000  Uiso   1.00
H33    H     0.97054   0.63744   0.31235   0.00000  Uiso   1.00
H34    H     0.16783   0.53071   0.20316   0.00000  Uiso   1.00
H35    H     0.09058   0.87628   0.00537   0.00000  Uiso   1.00
H36    H     0.88182   0.66041   0.45267   0.00000  Uiso   1.00
H37    H     0.29785   0.43536   0.22242   0.00000  Uiso   1.00
O38    O     0.18030   0.03662   0.02922   0.00000  Uiso   1.00
O39    O     0.90643   0.75340   0.61606   0.00000  Uiso   1.00
O40    O     0.45225   0.45814   0.31398   0.00000  Uiso   1.00
N41    N     0.22835   0.00359   0.16269   0.00000  Uiso   1.00
N42    N     0.03317   0.80178   0.58089   0.00000  Uiso   1.00
N43    N     0.42212   0.59137   0.36564   0.00000  Uiso   1.00
N44    N     0.13194   0.90453   0.06269   0.00000  Uiso   1.00
N45    N     0.93676   0.70272   0.48089   0.00000  Uiso   1.00
N46    N     0.32570   0.49231   0.26564   0.00000  Uiso   1.00
C47    C     0.37593   0.23806   0.80728   0.00000  Uiso   1.00
C48    C     0.29648   0.21228   0.83884   0.00000  Uiso   1.00
C49    C     0.28339   0.24595   0.92088   0.00000  Uiso   1.00
C50    C     0.20644   0.21385   0.93705   0.00000  Uiso   1.00
C51    C     0.09247   0.18344   0.99574   0.00000  Uiso   1.00
C52    C     0.40367   0.15429   0.77949   0.00000  Uiso   1.00
C53    C     0.48072   0.13923   0.81164   0.00000  Uiso   1.00
C54    C     0.49401   0.05832   0.77784   0.00000  Uiso   1.00
C55    C     0.54648   0.93791   0.74436   0.00000  Uiso   1.00
C56    C     0.34993   0.26751   0.72321   0.00000  Uiso   1.00
C57    C     0.38179   0.34763   0.70801   0.00000  Uiso   1.00
C58    C     0.34985   0.36204   0.62681   0.00000  Uiso   1.00
C59    C     0.31887   0.41742   0.50593   0.00000  Uiso   1.00
C60    C     0.26254   0.12118   0.69009   0.00000  Uiso   1.00
C61    C     0.23490   0.14879   0.77518   0.00000  Uiso   1.00
C62    C     0.15795   0.11663   0.79122   0.00000  Uiso   1.00
C63    C     0.14475   0.15025   0.87328   0.00000  Uiso   1.00
C64    C     0.34209   0.09081   0.71584   0.00000  Uiso   1.00
C65    C     0.35528   0.00991   0.68198   0.00000  Uiso   1.00
C66    C     0.43232   0.99472   0.71407   0.00000  Uiso   1.00
C67    C     0.28834   0.20403   0.65955   0.00000  Uiso   1.00
C68    C     0.25635   0.21831   0.57835   0.00000  Uiso   1.00
C69    C     0.28815   0.29844   0.56304   0.00000  Uiso   1.00
H70    H     0.42387   0.28749   0.85684   0.00000  Uiso   1.00
H71    H     0.33107   0.29508   0.97013   0.00000  Uiso   1.00
H72    H     0.52837   0.18837   0.86089   0.00000  Uiso   1.00
H73    H     0.42945   0.39675   0.75728   0.00000  Uiso   1.00
H74    H     0.20103   0.27547   0.06767   0.00000  Uiso   1.00
H75    H     0.61705   0.05049   0.83732   0.00000  Uiso   1.00
H76    H     0.40848   0.48989   0.61884   0.00000  Uiso   1.00
H77    H     0.21460   0.07175   0.64053   0.00000  Uiso   1.00
H78    H     0.11030   0.06750   0.74195   0.00000  Uiso   1.00
H79    H     0.30761   0.96079   0.63272   0.00000  Uiso   1.00
H80    H     0.20869   0.16917   0.52911   0.00000  Uiso   1.00
H81    H     0.02185   0.09076   0.88247   0.00000  Uiso   1.00
H82    H     0.43788   0.86577   0.65212   0.00000  Uiso   1.00
H83    H     0.22930   0.30517   0.43365   0.00000  Uiso   1.00
O84    O     0.04662   0.18419   0.04570   0.00000  Uiso   1.00
O85    O     0.59243   0.88903   0.74348   0.00000  Uiso   1.00
O86    O     0.31878   0.46551   0.45685   0.00000  Uiso   1.00
N87    N     0.17316   0.23259   0.01016   0.00000  Uiso   1.00
N88    N     0.56212   0.02224   0.79481   0.00000  Uiso   1.00
N89    N     0.36713   0.43304   0.59054   0.00000  Uiso   1.00
N90    N     0.07675   0.13320   0.91051   0.00000  Uiso   1.00
N91    N     0.46571   0.92285   0.69515   0.00000  Uiso   1.00
N92    N     0.27072   0.33365   0.49089   0.00000  Uiso   1.00
C93    C     0.80806   0.37886   0.23965   0.00000  Uiso   1.00
C94    C     0.83602   0.29522   0.21189   0.00000  Uiso   1.00
C95    C     0.91306   0.28026   0.24425   0.00000  Uiso   1.00
C96    C     0.92657   0.19947   0.21043   0.00000  Uiso   1.00
C97    C     0.97933   0.07926   0.17701   0.00000  Uiso   1.00
C98    C     0.78226   0.40843   0.15561   0.00000  Uiso   1.00
C99    C     0.81410   0.48868   0.14064   0.00000  Uiso   1.00
C100   C     0.78234   0.50319   0.05944   0.00000  Uiso   1.00
C101   C     0.75160   0.55878   0.93866   0.00000  Uiso   1.00
C102   C     0.72846   0.35283   0.27086   0.00000  Uiso   1.00
C103   C     0.71505   0.38634   0.35280   0.00000  Uiso   1.00
C104   C     0.63799   0.35406   0.36863   0.00000  Uiso   1.00
C105   C     0.52372   0.32333   0.42680   0.00000  Uiso   1.00
C106   C     0.69506   0.26197   0.12205   0.00000  Uiso   1.00
C107   C     0.77464   0.23173   0.14802   0.00000  Uiso   1.00
C108   C     0.78803   0.15093   0.11414   0.00000  Uiso   1.00
C109   C     0.86508   0.13586   0.14644   0.00000  Uiso   1.00
C110   C     0.72089   0.34495   0.09173   0.00000  Uiso   1.00
C111   C     0.68907   0.35935   0.01053   0.00000  Uiso   1.00
C112   C     0.72085   0.43959   0.99545   0.00000  Uiso   1.00
C113   C     0.66708   0.28934   0.20699   0.00000  Uiso   1.00
C114   C     0.59003   0.25701   0.22269   0.00000  Uiso   1.00
C115   C     0.57650   0.29046   0.30463   0.00000  Uiso   1.00
H116   H     0.85585   0.42829   0.28938   0.00000  Uiso   1.00
H117   H     0.96055   0.32941   0.29368   0.00000  Uiso   1.00
H118   H     0.86159   0.53780   0.19009   0.00000  Uiso   1.00
H119   H     0.76256   0.43547   0.40221   0.00000  Uiso   1.00
H120   H     0.04957   0.19180   0.27025   0.00000  Uiso   1.00
H121   H     0.84089   0.63120   0.05184   0.00000  Uiso   1.00
H122   H     0.63207   0.41543   0.49914   0.00000  Uiso   1.00
H123   H     0.64727   0.21254   0.07232   0.00000  Uiso   1.00
H124   H     0.74052   0.10181   0.06470   0.00000  Uiso   1.00
H125   H     0.64157   0.31020   0.96112   0.00000  Uiso   1.00
H126   H     0.54254   0.20788   0.17324   0.00000  Uiso   1.00
H127   H     0.87099   0.00707   0.08440   0.00000  Uiso   1.00
H128   H     0.66231   0.44648   0.86600   0.00000  Uiso   1.00
H129   H     0.45349   0.23071   0.31330   0.00000  Uiso   1.00
O130   O     0.02540   0.03050   0.17621   0.00000  Uiso   1.00
O131   O     0.75161   0.60698   0.88968   0.00000  Uiso   1.00
O132   O     0.47765   0.32390   0.47653   0.00000  Uiso   1.00
N133   N     0.99473   0.16351   0.22757   0.00000  Uiso   1.00
N134   N     0.79965   0.57432   0.02336   0.00000  Uiso   1.00
N135   N     0.60441   0.37262   0.44155   0.00000  Uiso   1.00
N136   N     0.89864   0.06411   0.12757   0.00000  Uiso   1.00
N137   N     0.70356   0.47492   0.92336   0.00000  Uiso   1.00
N138   N     0.50832   0.27322   0.34155   0.00000  Uiso   1.00
C139   C     0.76361   0.19236   0.62150   0.00000  Uiso   1.00
C140   C     0.78938   0.16257   0.70542   0.00000  Uiso   1.00
C141   C     0.75735   0.08234   0.72027   0.00000  Uiso   1.00
C142   C     0.78912   0.06760   0.80135   0.00000  Uiso   1.00
C143   C     0.81979   0.01170   0.92193   0.00000  Uiso   1.00
C144   C     0.84318   0.21818   0.59016   0.00000  Uiso   1.00
C145   C     0.85637   0.18471   0.50810   0.00000  Uiso   1.00
C146   C     0.93343   0.21679   0.49217   0.00000  Uiso   1.00
C147   C     0.04761   0.24728   0.43378   0.00000  Uiso   1.00
C148   C     0.73598   0.27616   0.64949   0.00000  Uiso   1.00
C149   C     0.65905   0.29146   0.61731   0.00000  Uiso   1.00
C150   C     0.64586   0.37237   0.65131   0.00000  Uiso   1.00
C151   C     0.59360   0.49287   0.68504   0.00000  Uiso   1.00
C152   C     0.87699   0.30885   0.73909   0.00000  Uiso   1.00
C153   C     0.85096   0.22584   0.76928   0.00000  Uiso   1.00
C154   C     0.88279   0.21122   0.85037   0.00000  Uiso   1.00
C155   C     0.85081   0.13098   0.86535   0.00000  Uiso   1.00
C156   C     0.90476   0.28145   0.65403   0.00000  Uiso   1.00
C157   C     0.98182   0.31359   0.63821   0.00000  Uiso   1.00
C158   C     0.99513   0.28018   0.55615   0.00000  Uiso   1.00
C159   C     0.79756   0.33944   0.71337   0.00000  Uiso   1.00
C160   C     0.78449   0.42034   0.74742   0.00000  Uiso   1.00
C161   C     0.70756   0.43575   0.71530   0.00000  Uiso   1.00
H162   H     0.71567   0.14310   0.57176   0.00000  Uiso   1.00
H163   H     0.70969   0.03339   0.67082   0.00000  Uiso   1.00
H164   H     0.80870   0.13576   0.45869   0.00000  Uiso   1.00
H165   H     0.61141   0.24248   0.56788   0.00000  Uiso   1.00
H166   H     0.73025   0.93964   0.80879   0.00000  Uiso   1.00
H167   H     0.93900   0.15551   0.36149   0.00000  Uiso   1.00
H168   H     0.52297   0.38056   0.59174   0.00000  Uiso   1.00
H169   H     0.92494   0.35812   0.78882   0.00000  Uiso   1.00
H170   H     0.93045   0.26020   0.89979   0.00000  Uiso   1.00
H171   H     0.02946   0.36256   0.68765   0.00000  Uiso   1.00
H172   H     0.83217   0.46929   0.79684   0.00000  Uiso   1.00
H173   H     0.90942   0.12372   0.99463   0.00000  Uiso   1.00
H174   H     0.11818   0.33959   0.54733   0.00000  Uiso   1.00
H175   H     0.70215   0.56464   0.77758   0.00000  Uiso   1.00
O176   O     0.81970   0.96338   0.97078   0.00000  Uiso   1.00
O177   O     0.09357   0.24660   0.38394   0.00000  Uiso   1.00
O178   O     0.54775   0.54186   0.68602   0.00000  Uiso   1.00
N179   N     0.77165   0.99641   0.83731   0.00000  Uiso   1.00
N180   N     0.96683   0.19822   0.41911   0.00000  Uiso   1.00
N181   N     0.57788   0.40863   0.63436   0.00000  Uiso   1.00
N182   N     0.86806   0.09547   0.93731   0.00000  Uiso   1.00
N183   N     0.06324   0.29728   0.51911   0.00000  Uiso   1.00
N184   N     0.67430   0.50769   0.73436   0.00000  Uiso   1.00
C185   C     0.62407   0.76194   0.19272   0.00000  Uiso   1.00
C186   C     0.70352   0.78772   0.16116   0.00000  Uiso   1.00
C187   C     0.71661   0.75405   0.07912   0.00000  Uiso   1.00
C188   C     0.79356   0.78615   0.06295   0.00000  Uiso   1.00
C189   C     0.90753   0.81656   0.00426   0.00000  Uiso   1.00
C190   C     0.59633   0.84571   0.22051   0.00000  Uiso   1.00
C191   C     0.51928   0.86077   0.18836   0.00000  Uiso   1.00
C192   C     0.50599   0.94168   0.22216   0.00000  Uiso   1.00
C193   C     0.45352   0.06209   0.25564   0.00000  Uiso   1.00
C194   C     0.65007   0.73249   0.27679   0.00000  Uiso   1.00
C195   C     0.61821   0.65237   0.29199   0.00000  Uiso   1.00
C196   C     0.65015   0.63796   0.37319   0.00000  Uiso   1.00
C197   C     0.68113   0.58258   0.49407   0.00000  Uiso   1.00
C198   C     0.73746   0.87882   0.30991   0.00000  Uiso   1.00
C199   C     0.76510   0.85121   0.22482   0.00000  Uiso   1.00
C200   C     0.84205   0.88337   0.20878   0.00000  Uiso   1.00
C201   C     0.85525   0.84975   0.12672   0.00000  Uiso   1.00
C202   C     0.65791   0.90919   0.28416   0.00000  Uiso   1.00
C203   C     0.64472   0.99009   0.31802   0.00000  Uiso   1.00
C204   C     0.56768   0.00528   0.28593   0.00000  Uiso   1.00
C205   C     0.71166   0.79597   0.34045   0.00000  Uiso   1.00
C206   C     0.74365   0.78169   0.42165   0.00000  Uiso   1.00
C207   C     0.71185   0.70156   0.43696   0.00000  Uiso   1.00
H208   H     0.57613   0.71251   0.14316   0.00000  Uiso   1.00
H209   H     0.66893   0.70492   0.02987   0.00000  Uiso   1.00
H210   H     0.47163   0.81163   0.13911   0.00000  Uiso   1.00
H211   H     0.57055   0.60325   0.24272   0.00000  Uiso   1.00
H212   H     0.79897   0.72453   0.93233   0.00000  Uiso   1.00
H213   H     0.38295   0.94951   0.16268   0.00000  Uiso   1.00
H214   H     0.59152   0.51011   0.38116   0.00000  Uiso   1.00
H215   H     0.78540   0.92825   0.35947   0.00000  Uiso   1.00
H216   H     0.88970   0.93250   0.25805   0.00000  Uiso   1.00
H217   H     0.69239   0.03921   0.36728   0.00000  Uiso   1.00
H218   H     0.79131   0.83083   0.47089   0.00000  Uiso   1.00
H219   H     0.97815   0.90924   0.11753   0.00000  Uiso   1.00
H220   H     0.56212   0.13423   0.34788   0.00000  Uiso   1.00
H221   H     0.77070   0.69482   0.56635   0.00000  Uiso   1.00
O222   O     0.95338   0.81581   0.95430   0.00000  Uiso   1.00
O223   O     0.40757   0.11097   0.25652   0.00000  Uiso   1.00
O224   O     0.68122   0.53449   0.54315   0.00000  Uiso   1.00
N225   N     0.82684   0.76741   0.98984   0.00000  Uiso   1.00
N226   N     0.43788   0.97776   0.20519   0.00000  Uiso   1.00
N227   N     0.63287   0.56696   0.40946   0.00000  Uiso   1.00
N228   N     0.92325   0.86680   0.08949   0.00000  Uiso   1.00
N229   N     0.53429   0.07715   0.30485   0.00000  Uiso   1.00
N230   N     0.72928   0.66635   0.50911   0.00000  Uiso   1.00
C231   C     0.19194   0.62114   0.76035   0.00000  Uiso   1.00
C232   C     0.16398   0.70478   0.78811   0.00000  Uiso   1.00
C233   C     0.08694   0.71974   0.75575   0.00000  Uiso   1.00
C234   C     0.07343   0.80053   0.78957   0.00000  Uiso   1.00
C235   C     0.02067   0.92074   0.82299   0.00000  Uiso   1.00
C236   C     0.21774   0.59157   0.84439   0.00000  Uiso   1.00
C237   C     0.18590   0.51132   0.85936   0.00000  Uiso   1.00
C238   C     0.21766   0.49681   0.94056   0.00000  Uiso   1.00
C239   C     0.24840   0.44122   0.06134   0.00000  Uiso   1.00
C240   C     0.27154   0.64717   0.72914   0.00000  Uiso   1.00
C241   C     0.28495   0.61366   0.64720   0.00000  Uiso   1.00
C242   C     0.36201   0.64594   0.63137   0.00000  Uiso   1.00
C243   C     0.47628   0.67667   0.57320   0.00000  Uiso   1.00
C244   C     0.30494   0.73803   0.87795   0.00000  Uiso   1.00
C245   C     0.22536   0.76827   0.85198   0.00000  Uiso   1.00
C246   C     0.21197   0.84907   0.88586   0.00000  Uiso   1.00
C247   C     0.13492   0.86414   0.85356   0.00000  Uiso   1.00
C248   C     0.27911   0.65505   0.90827   0.00000  Uiso   1.00
C249   C     0.31093   0.64065   0.98947   0.00000  Uiso   1.00
C250   C     0.27915   0.56041   0.00455   0.00000  Uiso   1.00
C251   C     0.33292   0.71066   0.79301   0.00000  Uiso   1.00
C252   C     0.40997   0.74299   0.77731   0.00000  Uiso   1.00
C253   C     0.42350   0.70954   0.69537   0.00000  Uiso   1.00
H254   H     0.14415   0.57171   0.71062   0.00000  Uiso   1.00
H255   H     0.03945   0.67059   0.70632   0.00000  Uiso   1.00
H256   H     0.13841   0.46220   0.80991   0.00000  Uiso   1.00
H257   H     0.23744   0.56453   0.59779   0.00000  Uiso   1.00
H258   H     0.95043   0.80820   0.72975   0.00000  Uiso   1.00
H259   H     0.15911   0.36880   0.94816   0.00000  Uiso   1.00
H260   H     0.36793   0.58457   0.50086   0.00000  Uiso   1.00
H261   H     0.35273   0.78746   0.92768   0.00000  Uiso   1.00
H262   H     0.25948   0.89819   0.93530   0.00000  Uiso   1.00
H263   H     0.35843   0.68980   0.03888   0.00000  Uiso   1.00
H264   H     0.45746   0.79212   0.82676   0.00000  Uiso   1.00
H265   H     0.12901   0.99293   0.91560   0.00000  Uiso   1.00
H266   H     0.33769   0.55352   0.13400   0.00000  Uiso   1.00
H267   H     0.54651   0.76929   0.68670   0.00000  Uiso   1.00
O268   O     0.97460   0.96950   0.82379   0.00000  Uiso   1.00
O269   O     0.24839   0.39302   0.11032   0.00000  Uiso   1.00
O270   O     0.52235   0.67610   0.52347   0.00000  Uiso   1.00
N271   N     0.00527   0.83649   0.77243   0.00000  Uiso   1.00
N272   N     0.20035   0.42568   0.97664   0.00000  Uiso   1.00
N273   N     0.39559   0.62738   0.55845   0.00000  Uiso   1.00
N274   N     0.10136   0.93589   0.87243   0.00000  Uiso   1.00
N275   N     0.29644   0.52508   0.07664   0.00000  Uiso   1.00
N276   N     0.49168   0.72678   0.65845   0.00000  Uiso   1.00
