data_job_04429
_audit_creation_date              2018-12-19
_audit_creation_method            'Materials Studio'
_symmetry_space_group_name_H-M    'P1'
_symmetry_Int_Tables_number       1
_symmetry_cell_setting            triclinic
loop_
_symmetry_equiv_pos_as_xyz
  x,y,z
_cell_length_a                    26.6298
_cell_length_b                    10.1219
_cell_length_c                    17.6345
_cell_angle_alpha                 90.0000
_cell_angle_beta                  90.0000
_cell_angle_gamma                 90.0000
loop_
_atom_site_label
_atom_site_type_symbol
_atom_site_fract_x
_atom_site_fract_y
_atom_site_fract_z
_atom_site_U_iso_or_equiv
_atom_site_adp_type
_atom_site_occupancy
C1     C     0.58894   0.98523   0.84233   0.00000  Uiso   1.00
C2     C     0.62884   0.88493   0.86544   0.00000  Uiso   1.00
C3     C     0.62237   0.74899   0.86848   0.00000  Uiso   1.00
C4     C     0.66346   0.67423   0.89102   0.00000  Uiso   1.00
C5     C     0.71842   0.50949   0.92407   0.00000  Uiso   1.00
C6     C     0.58445   0.08160   0.90845   0.00000  Uiso   1.00
C7     C     0.54066   0.11102   0.94765   0.00000  Uiso   1.00
C8     C     0.54438   0.20183   0.00639   0.00000  Uiso   1.00
C9     C     0.53042   0.34250   0.10619   0.00000  Uiso   1.00
C10    C     0.61141   0.06384   0.77684   0.00000  Uiso   1.00
C11    C     0.59030   0.07836   0.70537   0.00000  Uiso   1.00
C12    C     0.61671   0.15424   0.65331   0.00000  Uiso   1.00
C13    C     0.64462   0.26733   0.54875   0.00000  Uiso   1.00
C14    C     0.67340   0.09420   0.87695   0.00000  Uiso   1.00
C15    C     0.67471   0.94413   0.88424   0.00000  Uiso   1.00
C16    C     0.71582   0.86955   0.90678   0.00000  Uiso   1.00
C17    C     0.70942   0.73352   0.90985   0.00000  Uiso   1.00
C18    C     0.63032   0.14079   0.92726   0.00000  Uiso   1.00
C19    C     0.63410   0.23158   0.98595   0.00000  Uiso   1.00
C20    C     0.59033   0.26113   0.02523   0.00000  Uiso   1.00
C21    C     0.65729   0.12303   0.79564   0.00000  Uiso   1.00
C22    C     0.68374   0.19891   0.74368   0.00000  Uiso   1.00
C23    C     0.66267   0.21354   0.67215   0.00000  Uiso   1.00
H24    H     0.55323   0.93916   0.82770   0.00000  Uiso   1.00
H25    H     0.58687   0.70322   0.85393   0.00000  Uiso   1.00
H26    H     0.50516   0.06521   0.93308   0.00000  Uiso   1.00
H27    H     0.55480   0.03254   0.69084   0.00000  Uiso   1.00
H28    H     0.64439   0.46775   0.89133   0.00000  Uiso   1.00
H29    H     0.47211   0.23105   0.05821   0.00000  Uiso   1.00
H30    H     0.57677   0.16218   0.54740   0.00000  Uiso   1.00
H31    H     0.70911   0.14029   0.89159   0.00000  Uiso   1.00
H32    H     0.75131   0.91538   0.92133   0.00000  Uiso   1.00
H33    H     0.66961   0.27737   0.00049   0.00000  Uiso   1.00
H34    H     0.71924   0.24470   0.75825   0.00000  Uiso   1.00
H35    H     0.77786   0.63995   0.94604   0.00000  Uiso   1.00
H36    H     0.60558   0.40326   0.11292   0.00000  Uiso   1.00
H37    H     0.71024   0.33437   0.60211   0.00000  Uiso   1.00
O38    O     0.73606   0.40228   0.93712   0.00000  Uiso   1.00
O39    O     0.51004   0.40372   0.15605   0.00000  Uiso   1.00
O40    O     0.64735   0.31334   0.48588   0.00000  Uiso   1.00
N41    N     0.67001   0.53914   0.90011   0.00000  Uiso   1.00
N42    N     0.50894   0.25277   0.05614   0.00000  Uiso   1.00
N43    N     0.60678   0.18840   0.57859   0.00000  Uiso   1.00
N44    N     0.74183   0.63180   0.92955   0.00000  Uiso   1.00
N45    N     0.58076   0.34543   0.08558   0.00000  Uiso   1.00
N46    N     0.67860   0.28106   0.60802   0.00000  Uiso   1.00
C47    C     0.08889   0.46149   0.72359   0.00000  Uiso   1.00
C48    C     0.12850   0.36488   0.75231   0.00000  Uiso   1.00
C49    C     0.12389   0.22834   0.75388   0.00000  Uiso   1.00
C50    C     0.16434   0.15736   0.78230   0.00000  Uiso   1.00
C51    C     0.21921   0.99770   0.82299   0.00000  Uiso   1.00
C52    C     0.07860   0.55620   0.78902   0.00000  Uiso   1.00
C53    C     0.03202   0.58053   0.82145   0.00000  Uiso   1.00
C54    C     0.03047   0.67063   0.88077   0.00000  Uiso   1.00
C55    C     0.00786   0.80807   0.97842   0.00000  Uiso   1.00
C56    C     0.11443   0.54342   0.66212   0.00000  Uiso   1.00
C57    C     0.09798   0.55705   0.58786   0.00000  Uiso   1.00
C58    C     0.12659   0.63642   0.54034   0.00000  Uiso   1.00
C59    C     0.15962   0.75401   0.44096   0.00000  Uiso   1.00
C60    C     0.16894   0.57825   0.77127   0.00000  Uiso   1.00
C61    C     0.17198   0.42830   0.77821   0.00000  Uiso   1.00
C62    C     0.21245   0.35751   0.80663   0.00000  Uiso   1.00
C63    C     0.20790   0.22089   0.80824   0.00000  Uiso   1.00
C64    C     0.12208   0.61962   0.81492   0.00000  Uiso   1.00
C65    C     0.12059   0.70971   0.87420   0.00000  Uiso   1.00
C66    C     0.07402   0.73417   0.90672   0.00000  Uiso   1.00
C67    C     0.15792   0.60684   0.68802   0.00000  Uiso   1.00
C68    C     0.18655   0.68622   0.64061   0.00000  Uiso   1.00
C69    C     0.17015   0.69995   0.56629   0.00000  Uiso   1.00
H70    H     0.05504   0.41213   0.70343   0.00000  Uiso   1.00
H71    H     0.09023   0.17930   0.73384   0.00000  Uiso   1.00
H72    H     0.99838   0.53145   0.80140   0.00000  Uiso   1.00
H73    H     0.06433   0.50796   0.56784   0.00000  Uiso   1.00
H74    H     0.14841   0.94913   0.77900   0.00000  Uiso   1.00
H75    H     0.95474   0.69170   0.92143   0.00000  Uiso   1.00
H76    H     0.09381   0.64216   0.42893   0.00000  Uiso   1.00
H77    H     0.20280   0.62763   0.79143   0.00000  Uiso   1.00
H78    H     0.24609   0.40662   0.82667   0.00000  Uiso   1.00
H79    H     0.15424   0.75877   0.89422   0.00000  Uiso   1.00
H80    H     0.22019   0.73528   0.66067   0.00000  Uiso   1.00
H81    H     0.27491   0.13363   0.85435   0.00000  Uiso   1.00
H82    H     0.08124   0.87621   0.99677   0.00000  Uiso   1.00
H83    H     0.22031   0.82667   0.50427   0.00000  Uiso   1.00
O84    O     0.23747   0.89211   0.83829   0.00000  Uiso   1.00
O85    O     0.98338   0.86635   0.02513   0.00000  Uiso   1.00
O86    O     0.16584   0.80135   0.37899   0.00000  Uiso   1.00
N87    N     0.17224   0.02288   0.79188   0.00000  Uiso   1.00
N88    N     0.99118   0.71713   0.92505   0.00000  Uiso   1.00
N89    N     0.12119   0.67084   0.46461   0.00000  Uiso   1.00
N90    N     0.24031   0.12216   0.83242   0.00000  Uiso   1.00
N91    N     0.05925   0.81640   0.96559   0.00000  Uiso   1.00
N92    N     0.18926   0.77012   0.50515   0.00000  Uiso   1.00
C93    C     0.91106   0.01477   0.34233   0.00000  Uiso   1.00
C94    C     0.87116   0.11507   0.36544   0.00000  Uiso   1.00
C95    C     0.87763   0.25101   0.36848   0.00000  Uiso   1.00
C96    C     0.83654   0.32577   0.39102   0.00000  Uiso   1.00
C97    C     0.78158   0.49051   0.42407   0.00000  Uiso   1.00
C98    C     0.91555   0.91840   0.40845   0.00000  Uiso   1.00
C99    C     0.95934   0.88898   0.44765   0.00000  Uiso   1.00
C100   C     0.95562   0.79817   0.50639   0.00000  Uiso   1.00
C101   C     0.96958   0.65750   0.60619   0.00000  Uiso   1.00
C102   C     0.88859   0.93616   0.27684   0.00000  Uiso   1.00
C103   C     0.90970   0.92164   0.20537   0.00000  Uiso   1.00
C104   C     0.88329   0.84576   0.15331   0.00000  Uiso   1.00
C105   C     0.85538   0.73267   0.04875   0.00000  Uiso   1.00
C106   C     0.82660   0.90580   0.37695   0.00000  Uiso   1.00
C107   C     0.82529   0.05587   0.38424   0.00000  Uiso   1.00
C108   C     0.78418   0.13045   0.40678   0.00000  Uiso   1.00
C109   C     0.79058   0.26648   0.40985   0.00000  Uiso   1.00
C110   C     0.86968   0.85921   0.42726   0.00000  Uiso   1.00
C111   C     0.86590   0.76842   0.48595   0.00000  Uiso   1.00
C112   C     0.90967   0.73887   0.52523   0.00000  Uiso   1.00
C113   C     0.84271   0.87697   0.29564   0.00000  Uiso   1.00
C114   C     0.81626   0.80109   0.24368   0.00000  Uiso   1.00
C115   C     0.83733   0.78646   0.17215   0.00000  Uiso   1.00
H116   H     0.94677   0.06084   0.32770   0.00000  Uiso   1.00
H117   H     0.91313   0.29678   0.35393   0.00000  Uiso   1.00
H118   H     0.99484   0.93479   0.43308   0.00000  Uiso   1.00
H119   H     0.94520   0.96746   0.19084   0.00000  Uiso   1.00
H120   H     0.85561   0.53225   0.39133   0.00000  Uiso   1.00
H121   H     0.02789   0.76895   0.55821   0.00000  Uiso   1.00
H122   H     0.92323   0.83782   0.04740   0.00000  Uiso   1.00
H123   H     0.79089   0.85971   0.39159   0.00000  Uiso   1.00
H124   H     0.74869   0.08462   0.42133   0.00000  Uiso   1.00
H125   H     0.83039   0.72263   0.50049   0.00000  Uiso   1.00
H126   H     0.78076   0.75530   0.25825   0.00000  Uiso   1.00
H127   H     0.72214   0.36005   0.44604   0.00000  Uiso   1.00
H128   H     0.89442   0.59674   0.61292   0.00000  Uiso   1.00
H129   H     0.78976   0.66563   0.10211   0.00000  Uiso   1.00
O130   O     0.76394   0.59772   0.43712   0.00000  Uiso   1.00
O131   O     0.98996   0.59628   0.65605   0.00000  Uiso   1.00
O132   O     0.85265   0.68666   0.98588   0.00000  Uiso   1.00
N133   N     0.82999   0.46086   0.40011   0.00000  Uiso   1.00
N134   N     0.99106   0.74723   0.55614   0.00000  Uiso   1.00
N135   N     0.89322   0.81160   0.07859   0.00000  Uiso   1.00
N136   N     0.75817   0.36820   0.42955   0.00000  Uiso   1.00
N137   N     0.91924   0.65457   0.58558   0.00000  Uiso   1.00
N138   N     0.82140   0.71894   0.10802   0.00000  Uiso   1.00
C139   C     0.41111   0.53851   0.22359   0.00000  Uiso   1.00
C140   C     0.37150   0.63512   0.25231   0.00000  Uiso   1.00
C141   C     0.37611   0.77166   0.25388   0.00000  Uiso   1.00
C142   C     0.33566   0.84264   0.28230   0.00000  Uiso   1.00
C143   C     0.28079   0.00230   0.32299   0.00000  Uiso   1.00
C144   C     0.42140   0.44380   0.28902   0.00000  Uiso   1.00
C145   C     0.46798   0.41947   0.32145   0.00000  Uiso   1.00
C146   C     0.46953   0.32937   0.38077   0.00000  Uiso   1.00
C147   C     0.49214   0.19193   0.47842   0.00000  Uiso   1.00
C148   C     0.38557   0.45658   0.16212   0.00000  Uiso   1.00
C149   C     0.40202   0.44295   0.08786   0.00000  Uiso   1.00
C150   C     0.37341   0.36358   0.04034   0.00000  Uiso   1.00
C151   C     0.34038   0.24599   0.94096   0.00000  Uiso   1.00
C152   C     0.33106   0.42175   0.27127   0.00000  Uiso   1.00
C153   C     0.32802   0.57170   0.27821   0.00000  Uiso   1.00
C154   C     0.28755   0.64249   0.30663   0.00000  Uiso   1.00
C155   C     0.29210   0.77911   0.30824   0.00000  Uiso   1.00
C156   C     0.37792   0.38038   0.31492   0.00000  Uiso   1.00
C157   C     0.37941   0.29029   0.37420   0.00000  Uiso   1.00
C158   C     0.42598   0.26583   0.40672   0.00000  Uiso   1.00
C159   C     0.34208   0.39316   0.18802   0.00000  Uiso   1.00
C160   C     0.31345   0.31378   0.14061   0.00000  Uiso   1.00
C161   C     0.32985   0.30005   0.06629   0.00000  Uiso   1.00
H162   H     0.44496   0.58787   0.20343   0.00000  Uiso   1.00
H163   H     0.40977   0.82070   0.23384   0.00000  Uiso   1.00
H164   H     0.50162   0.46855   0.30140   0.00000  Uiso   1.00
H165   H     0.43567   0.49204   0.06784   0.00000  Uiso   1.00
H166   H     0.35159   0.05087   0.27900   0.00000  Uiso   1.00
H167   H     0.54526   0.30830   0.42143   0.00000  Uiso   1.00
H168   H     0.40619   0.35784   0.92893   0.00000  Uiso   1.00
H169   H     0.29720   0.37237   0.29143   0.00000  Uiso   1.00
H170   H     0.25391   0.59338   0.32667   0.00000  Uiso   1.00
H171   H     0.34576   0.24123   0.39422   0.00000  Uiso   1.00
H172   H     0.27981   0.26472   0.16067   0.00000  Uiso   1.00
H173   H     0.22509   0.86637   0.35435   0.00000  Uiso   1.00
H174   H     0.41876   0.12379   0.49677   0.00000  Uiso   1.00
H175   H     0.27969   0.17333   0.00427   0.00000  Uiso   1.00
O176   O     0.26253   0.10789   0.33829   0.00000  Uiso   1.00
O177   O     0.51662   0.13365   0.52513   0.00000  Uiso   1.00
O178   O     0.33416   0.19865   0.87899   0.00000  Uiso   1.00
N179   N     0.32776   0.97712   0.29188   0.00000  Uiso   1.00
N180   N     0.50882   0.28287   0.42505   0.00000  Uiso   1.00
N181   N     0.37881   0.32916   0.96461   0.00000  Uiso   1.00
N182   N     0.25969   0.87784   0.33242   0.00000  Uiso   1.00
N183   N     0.44075   0.18360   0.46559   0.00000  Uiso   1.00
N184   N     0.31074   0.22988   0.00515   0.00000  Uiso   1.00
C185   C     0.41106   0.48523   0.65767   0.00000  Uiso   1.00
C186   C     0.37116   0.38493   0.63456   0.00000  Uiso   1.00
C187   C     0.37763   0.24899   0.63152   0.00000  Uiso   1.00
C188   C     0.33654   0.17423   0.60898   0.00000  Uiso   1.00
C189   C     0.28158   0.00949   0.57593   0.00000  Uiso   1.00
C190   C     0.41555   0.58160   0.59155   0.00000  Uiso   1.00
C191   C     0.45934   0.61102   0.55235   0.00000  Uiso   1.00
C192   C     0.45562   0.70183   0.49361   0.00000  Uiso   1.00
C193   C     0.46958   0.84250   0.39381   0.00000  Uiso   1.00
C194   C     0.38859   0.56384   0.72316   0.00000  Uiso   1.00
C195   C     0.40970   0.57836   0.79463   0.00000  Uiso   1.00
C196   C     0.38329   0.65424   0.84669   0.00000  Uiso   1.00
C197   C     0.35538   0.76733   0.95125   0.00000  Uiso   1.00
C198   C     0.32660   0.59420   0.62305   0.00000  Uiso   1.00
C199   C     0.32529   0.44413   0.61576   0.00000  Uiso   1.00
C200   C     0.28418   0.36955   0.59322   0.00000  Uiso   1.00
C201   C     0.29058   0.23352   0.59015   0.00000  Uiso   1.00
C202   C     0.36968   0.64079   0.57274   0.00000  Uiso   1.00
C203   C     0.36590   0.73158   0.51405   0.00000  Uiso   1.00
C204   C     0.40967   0.76113   0.47477   0.00000  Uiso   1.00
C205   C     0.34271   0.62303   0.70436   0.00000  Uiso   1.00
C206   C     0.31626   0.69891   0.75632   0.00000  Uiso   1.00
C207   C     0.33733   0.71354   0.82785   0.00000  Uiso   1.00
H208   H     0.44677   0.43916   0.67230   0.00000  Uiso   1.00
H209   H     0.41313   0.20322   0.64607   0.00000  Uiso   1.00
H210   H     0.49484   0.56521   0.56692   0.00000  Uiso   1.00
H211   H     0.44520   0.53254   0.80916   0.00000  Uiso   1.00
H212   H     0.35561   0.96775   0.60867   0.00000  Uiso   1.00
H213   H     0.52789   0.73105   0.44179   0.00000  Uiso   1.00
H214   H     0.42323   0.66218   0.95260   0.00000  Uiso   1.00
H215   H     0.29089   0.64029   0.60841   0.00000  Uiso   1.00
H216   H     0.24869   0.41538   0.57867   0.00000  Uiso   1.00
H217   H     0.33039   0.77737   0.49951   0.00000  Uiso   1.00
H218   H     0.28076   0.74470   0.74175   0.00000  Uiso   1.00
H219   H     0.22214   0.13995   0.55396   0.00000  Uiso   1.00
H220   H     0.39442   0.90326   0.38708   0.00000  Uiso   1.00
H221   H     0.28976   0.83437   0.89789   0.00000  Uiso   1.00
O222   O     0.26394   0.90228   0.56288   0.00000  Uiso   1.00
O223   O     0.48996   0.90372   0.34395   0.00000  Uiso   1.00
O224   O     0.35265   0.81334   0.01412   0.00000  Uiso   1.00
N225   N     0.32999   0.03914   0.59989   0.00000  Uiso   1.00
N226   N     0.49106   0.75277   0.44386   0.00000  Uiso   1.00
N227   N     0.39322   0.68840   0.92141   0.00000  Uiso   1.00
N228   N     0.25817   0.13180   0.57045   0.00000  Uiso   1.00
N229   N     0.41924   0.84543   0.41442   0.00000  Uiso   1.00
N230   N     0.32140   0.78106   0.89198   0.00000  Uiso   1.00
C231   C     0.91111   0.96149   0.77641   0.00000  Uiso   1.00
C232   C     0.87150   0.86488   0.74769   0.00000  Uiso   1.00
C233   C     0.87611   0.72834   0.74612   0.00000  Uiso   1.00
C234   C     0.83566   0.65736   0.71770   0.00000  Uiso   1.00
C235   C     0.78079   0.49770   0.67701   0.00000  Uiso   1.00
C236   C     0.92140   0.05620   0.71098   0.00000  Uiso   1.00
C237   C     0.96798   0.08053   0.67855   0.00000  Uiso   1.00
C238   C     0.96953   0.17063   0.61923   0.00000  Uiso   1.00
C239   C     0.99214   0.30807   0.52158   0.00000  Uiso   1.00
C240   C     0.88557   0.04342   0.83788   0.00000  Uiso   1.00
C241   C     0.90202   0.05705   0.91214   0.00000  Uiso   1.00
C242   C     0.87341   0.13642   0.95966   0.00000  Uiso   1.00
C243   C     0.84038   0.25401   0.05904   0.00000  Uiso   1.00
C244   C     0.83106   0.07825   0.72873   0.00000  Uiso   1.00
C245   C     0.82802   0.92830   0.72179   0.00000  Uiso   1.00
C246   C     0.78755   0.85751   0.69337   0.00000  Uiso   1.00
C247   C     0.79210   0.72089   0.69176   0.00000  Uiso   1.00
C248   C     0.87792   0.11962   0.68508   0.00000  Uiso   1.00
C249   C     0.87941   0.20971   0.62580   0.00000  Uiso   1.00
C250   C     0.92598   0.23417   0.59328   0.00000  Uiso   1.00
C251   C     0.84208   0.10684   0.81198   0.00000  Uiso   1.00
C252   C     0.81345   0.18622   0.85939   0.00000  Uiso   1.00
C253   C     0.82985   0.19995   0.93371   0.00000  Uiso   1.00
H254   H     0.94496   0.91213   0.79657   0.00000  Uiso   1.00
H255   H     0.90977   0.67930   0.76616   0.00000  Uiso   1.00
H256   H     0.00162   0.03145   0.69860   0.00000  Uiso   1.00
H257   H     0.93567   0.00796   0.93216   0.00000  Uiso   1.00
H258   H     0.85159   0.44913   0.72100   0.00000  Uiso   1.00
H259   H     0.04526   0.19170   0.57857   0.00000  Uiso   1.00
H260   H     0.90619   0.14216   0.07107   0.00000  Uiso   1.00
H261   H     0.79720   0.12763   0.70857   0.00000  Uiso   1.00
H262   H     0.75391   0.90662   0.67333   0.00000  Uiso   1.00
H263   H     0.84576   0.25877   0.60578   0.00000  Uiso   1.00
H264   H     0.77981   0.23528   0.83933   0.00000  Uiso   1.00
H265   H     0.72509   0.63363   0.64565   0.00000  Uiso   1.00
H266   H     0.91876   0.37621   0.50323   0.00000  Uiso   1.00
H267   H     0.77969   0.32667   0.99573   0.00000  Uiso   1.00
O268   O     0.76253   0.39211   0.66171   0.00000  Uiso   1.00
O269   O     0.01662   0.36635   0.47487   0.00000  Uiso   1.00
O270   O     0.83416   0.30135   0.12101   0.00000  Uiso   1.00
N271   N     0.82776   0.52288   0.70812   0.00000  Uiso   1.00
N272   N     0.00882   0.21713   0.57495   0.00000  Uiso   1.00
N273   N     0.87881   0.17084   0.03539   0.00000  Uiso   1.00
N274   N     0.75969   0.62216   0.66758   0.00000  Uiso   1.00
N275   N     0.94075   0.31640   0.53441   0.00000  Uiso   1.00
N276   N     0.81074   0.27012   0.99485   0.00000  Uiso   1.00
C277   C     0.08894   0.51477   0.15767   0.00000  Uiso   1.00
C278   C     0.12884   0.61507   0.13456   0.00000  Uiso   1.00
C279   C     0.12237   0.75101   0.13152   0.00000  Uiso   1.00
C280   C     0.16346   0.82577   0.10898   0.00000  Uiso   1.00
C281   C     0.21842   0.99051   0.07593   0.00000  Uiso   1.00
C282   C     0.08445   0.41840   0.09155   0.00000  Uiso   1.00
C283   C     0.04066   0.38898   0.05235   0.00000  Uiso   1.00
C284   C     0.04438   0.29817   0.99361   0.00000  Uiso   1.00
C285   C     0.03042   0.15750   0.89381   0.00000  Uiso   1.00
C286   C     0.11141   0.43616   0.22316   0.00000  Uiso   1.00
C287   C     0.09030   0.42164   0.29463   0.00000  Uiso   1.00
C288   C     0.11671   0.34576   0.34669   0.00000  Uiso   1.00
C289   C     0.14462   0.23267   0.45125   0.00000  Uiso   1.00
C290   C     0.17340   0.40580   0.12305   0.00000  Uiso   1.00
C291   C     0.17471   0.55587   0.11576   0.00000  Uiso   1.00
C292   C     0.21582   0.63045   0.09322   0.00000  Uiso   1.00
C293   C     0.20942   0.76648   0.09015   0.00000  Uiso   1.00
C294   C     0.13032   0.35921   0.07274   0.00000  Uiso   1.00
C295   C     0.13410   0.26842   0.01405   0.00000  Uiso   1.00
C296   C     0.09033   0.23887   0.97477   0.00000  Uiso   1.00
C297   C     0.15729   0.37697   0.20436   0.00000  Uiso   1.00
C298   C     0.18374   0.30109   0.25632   0.00000  Uiso   1.00
C299   C     0.16267   0.28646   0.32785   0.00000  Uiso   1.00
H300   H     0.05323   0.56084   0.17230   0.00000  Uiso   1.00
H301   H     0.08687   0.79678   0.14607   0.00000  Uiso   1.00
H302   H     0.00516   0.43479   0.06692   0.00000  Uiso   1.00
H303   H     0.05480   0.46746   0.30916   0.00000  Uiso   1.00
H304   H     0.14439   0.03225   0.10867   0.00000  Uiso   1.00
H305   H     0.97211   0.26895   0.94179   0.00000  Uiso   1.00
H306   H     0.07677   0.33782   0.45260   0.00000  Uiso   1.00
H307   H     0.20911   0.35971   0.10841   0.00000  Uiso   1.00
H308   H     0.25131   0.58462   0.07867   0.00000  Uiso   1.00
H309   H     0.16961   0.22263   0.99951   0.00000  Uiso   1.00
H310   H     0.21924   0.25530   0.24175   0.00000  Uiso   1.00
H311   H     0.27786   0.86005   0.05396   0.00000  Uiso   1.00
H312   H     0.10558   0.09674   0.88708   0.00000  Uiso   1.00
H313   H     0.21024   0.16563   0.39789   0.00000  Uiso   1.00
O314   O     0.23606   0.09772   0.06288   0.00000  Uiso   1.00
O315   O     0.01004   0.09628   0.84395   0.00000  Uiso   1.00
O316   O     0.14735   0.18666   0.51412   0.00000  Uiso   1.00
N317   N     0.17001   0.96086   0.09989   0.00000  Uiso   1.00
N318   N     0.00894   0.24723   0.94386   0.00000  Uiso   1.00
N319   N     0.10678   0.31160   0.42141   0.00000  Uiso   1.00
N320   N     0.24183   0.86820   0.07045   0.00000  Uiso   1.00
N321   N     0.08076   0.15457   0.91442   0.00000  Uiso   1.00
N322   N     0.17860   0.21894   0.39198   0.00000  Uiso   1.00
C323   C     0.58889   0.03851   0.27641   0.00000  Uiso   1.00
C324   C     0.62850   0.13512   0.24769   0.00000  Uiso   1.00
C325   C     0.62389   0.27166   0.24612   0.00000  Uiso   1.00
C326   C     0.66434   0.34264   0.21770   0.00000  Uiso   1.00
C327   C     0.71921   0.50230   0.17701   0.00000  Uiso   1.00
C328   C     0.57860   0.94380   0.21098   0.00000  Uiso   1.00
C329   C     0.53202   0.91947   0.17855   0.00000  Uiso   1.00
C330   C     0.53047   0.82937   0.11923   0.00000  Uiso   1.00
C331   C     0.50786   0.69193   0.02158   0.00000  Uiso   1.00
C332   C     0.61443   0.95658   0.33788   0.00000  Uiso   1.00
C333   C     0.59798   0.94295   0.41214   0.00000  Uiso   1.00
C334   C     0.62659   0.86358   0.45966   0.00000  Uiso   1.00
C335   C     0.65962   0.74599   0.55904   0.00000  Uiso   1.00
C336   C     0.66894   0.92175   0.22873   0.00000  Uiso   1.00
C337   C     0.67198   0.07170   0.22179   0.00000  Uiso   1.00
C338   C     0.71245   0.14249   0.19337   0.00000  Uiso   1.00
C339   C     0.70790   0.27911   0.19176   0.00000  Uiso   1.00
C340   C     0.62208   0.88038   0.18508   0.00000  Uiso   1.00
C341   C     0.62059   0.79029   0.12580   0.00000  Uiso   1.00
C342   C     0.57402   0.76583   0.09328   0.00000  Uiso   1.00
C343   C     0.65792   0.89316   0.31198   0.00000  Uiso   1.00
C344   C     0.68655   0.81378   0.35939   0.00000  Uiso   1.00
C345   C     0.67015   0.80005   0.43371   0.00000  Uiso   1.00
H346   H     0.55504   0.08787   0.29657   0.00000  Uiso   1.00
H347   H     0.59023   0.32070   0.26616   0.00000  Uiso   1.00
H348   H     0.49838   0.96855   0.19860   0.00000  Uiso   1.00
H349   H     0.56433   0.99204   0.43216   0.00000  Uiso   1.00
H350   H     0.64841   0.55087   0.22100   0.00000  Uiso   1.00
H351   H     0.45474   0.80830   0.07857   0.00000  Uiso   1.00
H352   H     0.59381   0.85784   0.57107   0.00000  Uiso   1.00
H353   H     0.70280   0.87237   0.20857   0.00000  Uiso   1.00
H354   H     0.74609   0.09338   0.17333   0.00000  Uiso   1.00
H355   H     0.65424   0.74123   0.10578   0.00000  Uiso   1.00
H356   H     0.72019   0.76472   0.33933   0.00000  Uiso   1.00
H357   H     0.77491   0.36637   0.14565   0.00000  Uiso   1.00
H358   H     0.58124   0.62379   0.00323   0.00000  Uiso   1.00
H359   H     0.72031   0.67333   0.49573   0.00000  Uiso   1.00
O360   O     0.73747   0.60789   0.16171   0.00000  Uiso   1.00
O361   O     0.48338   0.63365   0.97487   0.00000  Uiso   1.00
O362   O     0.66584   0.69865   0.62101   0.00000  Uiso   1.00
N363   N     0.67224   0.47712   0.20812   0.00000  Uiso   1.00
N364   N     0.49118   0.78287   0.07495   0.00000  Uiso   1.00
N365   N     0.62119   0.82916   0.53539   0.00000  Uiso   1.00
N366   N     0.74031   0.37784   0.16758   0.00000  Uiso   1.00
N367   N     0.55925   0.68360   0.03441   0.00000  Uiso   1.00
N368   N     0.68926   0.72988   0.49485   0.00000  Uiso   1.00
