data_job_01948
_audit_creation_date              2018-12-19
_audit_creation_method            'Materials Studio'
_symmetry_space_group_name_H-M    'P1'
_symmetry_Int_Tables_number       1
_symmetry_cell_setting            triclinic
loop_
_symmetry_equiv_pos_as_xyz
  x,y,z
_cell_length_a                    13.0141
_cell_length_b                    16.6232
_cell_length_c                    22.7052
_cell_angle_alpha                 90.0000
_cell_angle_beta                  146.5484
_cell_angle_gamma                 90.0000
loop_
_atom_site_label
_atom_site_type_symbol
_atom_site_fract_x
_atom_site_fract_y
_atom_site_fract_z
_atom_site_U_iso_or_equiv
_atom_site_adp_type
_atom_site_occupancy
C1     C     0.62435   0.71613   0.49581   0.00000  Uiso   1.00
C2     C     0.60150   0.74070   0.54919   0.00000  Uiso   1.00
C3     C     0.71801   0.71840   0.65089   0.00000  Uiso   1.00
C4     C     0.67331   0.74712   0.68517   0.00000  Uiso   1.00
C5     C     0.66146   0.77774   0.77794   0.00000  Uiso   1.00
C6     C     0.44197   0.67555   0.39106   0.00000  Uiso   1.00
C7     C     0.42436   0.59848   0.35980   0.00000  Uiso   1.00
C8     C     0.24537   0.57236   0.26095   0.00000  Uiso   1.00
C9     C     0.98586   0.50186   0.10819   0.00000  Uiso   1.00
C10    C     0.63319   0.79427   0.46497   0.00000  Uiso   1.00
C11    C     0.77633   0.81702   0.49583   0.00000  Uiso   1.00
C12    C     0.75830   0.89085   0.45919   0.00000  Uiso   1.00
C13    C     0.79568   0.00468   0.42118   0.00000  Uiso   1.00
C14    C     0.33779   0.80679   0.37584   0.00000  Uiso   1.00
C15    C     0.44585   0.78994   0.48402   0.00000  Uiso   1.00
C16    C     0.40096   0.81870   0.51816   0.00000  Uiso   1.00
C17    C     0.51739   0.79645   0.61989   0.00000  Uiso   1.00
C18    C     0.28633   0.72479   0.32590   0.00000  Uiso   1.00
C19    C     0.10732   0.69878   0.22707   0.00000  Uiso   1.00
C20    C     0.08944   0.62169   0.19567   0.00000  Uiso   1.00
C21    C     0.47754   0.84351   0.39981   0.00000  Uiso   1.00
C22    C     0.45928   0.91732   0.36310   0.00000  Uiso   1.00
C23    C     0.60237   0.94018   0.39390   0.00000  Uiso   1.00
H24    H     0.74552   0.67779   0.54654   0.00000  Uiso   1.00
H25    H     0.83845   0.68028   0.70129   0.00000  Uiso   1.00
H26    H     0.54484   0.56039   0.41024   0.00000  Uiso   1.00
H27    H     0.89675   0.77890   0.54625   0.00000  Uiso   1.00
H28    H     0.87279   0.70474   0.84411   0.00000  Uiso   1.00
H29    H     0.25372   0.45194   0.23040   0.00000  Uiso   1.00
H30    H     0.99579   0.91271   0.51721   0.00000  Uiso   1.00
H31    H     0.21660   0.84513   0.32511   0.00000  Uiso   1.00
H32    H     0.28050   0.85681   0.46771   0.00000  Uiso   1.00
H33    H     0.98690   0.73690   0.17666   0.00000  Uiso   1.00
H34    H     0.33881   0.95541   0.31268   0.00000  Uiso   1.00
H35    H     0.41993   0.84801   0.65453   0.00000  Uiso   1.00
H36    H     0.80086   0.59521   0.04082   0.00000  Uiso   1.00
H37    H     0.54294   0.05598   0.32763   0.00000  Uiso   1.00
O38    O     0.69790   0.78101   0.84711   0.00000  Uiso   1.00
O39    O     0.88572   0.44936   0.04194   0.00000  Uiso   1.00
O40    O     0.85930   0.05387   0.41823   0.00000  Uiso   1.00
N41    N     0.75746   0.73687   0.77993   0.00000  Uiso   1.00
N42    N     0.17866   0.50051   0.20616   0.00000  Uiso   1.00
N43    N     0.87242   0.93128   0.47427   0.00000  Uiso   1.00
N44    N     0.51378   0.81396   0.67792   0.00000  Uiso   1.00
N45    N     0.93499   0.57760   0.10414   0.00000  Uiso   1.00
N46    N     0.62874   0.00837   0.37226   0.00000  Uiso   1.00
C47    C     0.34391   0.69002   0.98926   0.00000  Uiso   1.00
C48    C     0.35898   0.70124   0.92998   0.00000  Uiso   1.00
C49    C     0.22463   0.67968   0.82468   0.00000  Uiso   1.00
C50    C     0.26489   0.69492   0.78517   0.00000  Uiso   1.00
C51    C     0.26268   0.70690   0.68347   0.00000  Uiso   1.00
C52    C     0.51337   0.64045   0.08839   0.00000  Uiso   1.00
C53    C     0.50883   0.56779   0.11629   0.00000  Uiso   1.00
C54    C     0.67906   0.53187   0.21014   0.00000  Uiso   1.00
C55    C     0.91655   0.44951   0.35441   0.00000  Uiso   1.00
C56    C     0.37210   0.77318   0.02965   0.00000  Uiso   1.00
C57    C     0.24881   0.81211   0.00818   0.00000  Uiso   1.00
C58    C     0.30013   0.88793   0.05260   0.00000  Uiso   1.00
C59    C     0.31827   0.01165   0.10567   0.00000  Uiso   1.00
C60    C     0.65430   0.75543   0.10634   0.00000  Uiso   1.00
C61    C     0.52758   0.73676   0.99357   0.00000  Uiso   1.00
C62    C     0.56805   0.75205   0.95421   0.00000  Uiso   1.00
C63    C     0.43378   0.73051   0.84888   0.00000  Uiso   1.00
C64    C     0.68196   0.67598   0.15198   0.00000  Uiso   1.00
C65    C     0.85224   0.64016   0.24582   0.00000  Uiso   1.00
C66    C     0.84796   0.56746   0.27385   0.00000  Uiso   1.00
C67    C     0.54069   0.80871   0.09324   0.00000  Uiso   1.00
C68    C     0.59222   0.88448   0.13771   0.00000  Uiso   1.00
C69    C     0.46903   0.92352   0.11631   0.00000  Uiso   1.00
H70    H     0.21266   0.66235   0.93975   0.00000  Uiso   1.00
H71    H     0.09418   0.65218   0.77550   0.00000  Uiso   1.00
H72    H     0.37834   0.54032   0.06706   0.00000  Uiso   1.00
H73    H     0.11836   0.78460   0.95897   0.00000  Uiso   1.00
H74    H     0.03721   0.65653   0.62144   0.00000  Uiso   1.00
H75    H     0.63637   0.42068   0.23625   0.00000  Uiso   1.00
H76    H     0.08814   0.93580   0.00831   0.00000  Uiso   1.00
H77    H     0.78557   0.78309   0.15585   0.00000  Uiso   1.00
H78    H     0.69853   0.77954   0.00345   0.00000  Uiso   1.00
H79    H     0.98268   0.66768   0.29501   0.00000  Uiso   1.00
H80    H     0.72270   0.91196   0.18692   0.00000  Uiso   1.00
H81    H     0.52772   0.75990   0.80646   0.00000  Uiso   1.00
H82    H     0.12688   0.52405   0.42127   0.00000  Uiso   1.00
H83    H     0.57865   0.03917   0.19333   0.00000  Uiso   1.00
O84    O     0.21490   0.70368   0.60981   0.00000  Uiso   1.00
O85    O     0.00097   0.39426   0.41641   0.00000  Uiso   1.00
O86    O     0.28170   0.07008   0.11736   0.00000  Uiso   1.00
N87    N     0.16458   0.68136   0.68589   0.00000  Uiso   1.00
N88    N     0.72476   0.46085   0.26069   0.00000  Uiso   1.00
N89    N     0.21223   0.94243   0.04761   0.00000  Uiso   1.00
N90    N     0.42852   0.73699   0.78545   0.00000  Uiso   1.00
N91    N     0.98870   0.51647   0.36025   0.00000  Uiso   1.00
N92    N     0.47617   0.99806   0.14717   0.00000  Uiso   1.00
C93    C     0.62435   0.28387   0.99581   0.00000  Uiso   1.00
C94    C     0.60150   0.25930   0.04919   0.00000  Uiso   1.00
C95    C     0.71801   0.28160   0.15089   0.00000  Uiso   1.00
C96    C     0.67331   0.25288   0.18517   0.00000  Uiso   1.00
C97    C     0.66146   0.22226   0.27794   0.00000  Uiso   1.00
C98    C     0.44197   0.32445   0.89106   0.00000  Uiso   1.00
C99    C     0.42436   0.40152   0.85980   0.00000  Uiso   1.00
C100   C     0.24537   0.42764   0.76095   0.00000  Uiso   1.00
C101   C     0.98586   0.49814   0.60819   0.00000  Uiso   1.00
C102   C     0.63319   0.20573   0.96497   0.00000  Uiso   1.00
C103   C     0.77633   0.18298   0.99583   0.00000  Uiso   1.00
C104   C     0.75830   0.10915   0.95919   0.00000  Uiso   1.00
C105   C     0.79568   0.99532   0.92118   0.00000  Uiso   1.00
C106   C     0.33779   0.19321   0.87584   0.00000  Uiso   1.00
C107   C     0.44585   0.21006   0.98402   0.00000  Uiso   1.00
C108   C     0.40096   0.18130   0.01816   0.00000  Uiso   1.00
C109   C     0.51739   0.20355   0.11989   0.00000  Uiso   1.00
C110   C     0.28633   0.27521   0.82590   0.00000  Uiso   1.00
C111   C     0.10732   0.30122   0.72707   0.00000  Uiso   1.00
C112   C     0.08944   0.37831   0.69567   0.00000  Uiso   1.00
C113   C     0.47754   0.15649   0.89981   0.00000  Uiso   1.00
C114   C     0.45928   0.08268   0.86310   0.00000  Uiso   1.00
C115   C     0.60237   0.05982   0.89390   0.00000  Uiso   1.00
H116   H     0.74552   0.32221   0.04654   0.00000  Uiso   1.00
H117   H     0.83845   0.31972   0.20129   0.00000  Uiso   1.00
H118   H     0.54484   0.43961   0.91024   0.00000  Uiso   1.00
H119   H     0.89675   0.22110   0.04625   0.00000  Uiso   1.00
H120   H     0.87279   0.29526   0.34411   0.00000  Uiso   1.00
H121   H     0.25372   0.54806   0.73040   0.00000  Uiso   1.00
H122   H     0.99579   0.08729   0.01721   0.00000  Uiso   1.00
H123   H     0.21660   0.15487   0.82511   0.00000  Uiso   1.00
H124   H     0.28050   0.14319   0.96771   0.00000  Uiso   1.00
H125   H     0.98690   0.26310   0.67666   0.00000  Uiso   1.00
H126   H     0.33881   0.04459   0.81268   0.00000  Uiso   1.00
H127   H     0.41993   0.15199   0.15453   0.00000  Uiso   1.00
H128   H     0.80086   0.40479   0.54082   0.00000  Uiso   1.00
H129   H     0.54294   0.94402   0.82763   0.00000  Uiso   1.00
O130   O     0.69790   0.21899   0.34711   0.00000  Uiso   1.00
O131   O     0.88572   0.55064   0.54194   0.00000  Uiso   1.00
O132   O     0.85930   0.94613   0.91823   0.00000  Uiso   1.00
N133   N     0.75746   0.26313   0.27993   0.00000  Uiso   1.00
N134   N     0.17866   0.49949   0.70616   0.00000  Uiso   1.00
N135   N     0.87242   0.06872   0.97427   0.00000  Uiso   1.00
N136   N     0.51378   0.18604   0.17792   0.00000  Uiso   1.00
N137   N     0.93499   0.42240   0.60414   0.00000  Uiso   1.00
N138   N     0.62874   0.99163   0.87226   0.00000  Uiso   1.00
C139   C     0.34391   0.30998   0.48926   0.00000  Uiso   1.00
C140   C     0.35898   0.29876   0.42998   0.00000  Uiso   1.00
C141   C     0.22463   0.32032   0.32468   0.00000  Uiso   1.00
C142   C     0.26489   0.30508   0.28517   0.00000  Uiso   1.00
C143   C     0.26268   0.29310   0.18347   0.00000  Uiso   1.00
C144   C     0.51337   0.35955   0.58839   0.00000  Uiso   1.00
C145   C     0.50883   0.43221   0.61629   0.00000  Uiso   1.00
C146   C     0.67906   0.46813   0.71014   0.00000  Uiso   1.00
C147   C     0.91655   0.55049   0.85441   0.00000  Uiso   1.00
C148   C     0.37210   0.22682   0.52965   0.00000  Uiso   1.00
C149   C     0.24881   0.18789   0.50818   0.00000  Uiso   1.00
C150   C     0.30013   0.11207   0.55260   0.00000  Uiso   1.00
C151   C     0.31827   0.98835   0.60567   0.00000  Uiso   1.00
C152   C     0.65430   0.24457   0.60634   0.00000  Uiso   1.00
C153   C     0.52758   0.26324   0.49357   0.00000  Uiso   1.00
C154   C     0.56805   0.24795   0.45421   0.00000  Uiso   1.00
C155   C     0.43378   0.26949   0.34888   0.00000  Uiso   1.00
C156   C     0.68196   0.32402   0.65198   0.00000  Uiso   1.00
C157   C     0.85224   0.35984   0.74582   0.00000  Uiso   1.00
C158   C     0.84796   0.43254   0.77385   0.00000  Uiso   1.00
C159   C     0.54069   0.19129   0.59324   0.00000  Uiso   1.00
C160   C     0.59222   0.11552   0.63771   0.00000  Uiso   1.00
C161   C     0.46903   0.07648   0.61631   0.00000  Uiso   1.00
H162   H     0.21266   0.33765   0.43975   0.00000  Uiso   1.00
H163   H     0.09418   0.34782   0.27550   0.00000  Uiso   1.00
H164   H     0.37834   0.45968   0.56706   0.00000  Uiso   1.00
H165   H     0.11836   0.21540   0.45897   0.00000  Uiso   1.00
H166   H     0.03721   0.34347   0.12144   0.00000  Uiso   1.00
H167   H     0.63637   0.57932   0.73625   0.00000  Uiso   1.00
H168   H     0.08814   0.06420   0.50831   0.00000  Uiso   1.00
H169   H     0.78557   0.21691   0.65585   0.00000  Uiso   1.00
H170   H     0.69853   0.22046   0.50345   0.00000  Uiso   1.00
H171   H     0.98268   0.33232   0.79501   0.00000  Uiso   1.00
H172   H     0.72270   0.08804   0.68692   0.00000  Uiso   1.00
H173   H     0.52772   0.24010   0.30646   0.00000  Uiso   1.00
H174   H     0.12688   0.47595   0.92127   0.00000  Uiso   1.00
H175   H     0.57865   0.96083   0.69333   0.00000  Uiso   1.00
O176   O     0.21490   0.29632   0.10981   0.00000  Uiso   1.00
O177   O     0.00097   0.60574   0.91641   0.00000  Uiso   1.00
O178   O     0.28170   0.92992   0.61736   0.00000  Uiso   1.00
N179   N     0.16458   0.31864   0.18589   0.00000  Uiso   1.00
N180   N     0.72476   0.53915   0.76069   0.00000  Uiso   1.00
N181   N     0.21223   0.05757   0.54761   0.00000  Uiso   1.00
N182   N     0.42852   0.26301   0.28545   0.00000  Uiso   1.00
N183   N     0.98870   0.48353   0.86025   0.00000  Uiso   1.00
N184   N     0.47617   0.00194   0.64717   0.00000  Uiso   1.00
