data_job_02919
_audit_creation_date              2018-12-19
_audit_creation_method            'Materials Studio'
_symmetry_space_group_name_H-M    'P1'
_symmetry_Int_Tables_number       1
_symmetry_cell_setting            triclinic
loop_
_symmetry_equiv_pos_as_xyz
  x,y,z
_cell_length_a                    12.3854
_cell_length_b                    21.2112
_cell_length_c                    18.6688
_cell_angle_alpha                 90.0000
_cell_angle_beta                  126.8317
_cell_angle_gamma                 90.0000
loop_
_atom_site_label
_atom_site_type_symbol
_atom_site_fract_x
_atom_site_fract_y
_atom_site_fract_z
_atom_site_U_iso_or_equiv
_atom_site_adp_type
_atom_site_occupancy
C1     C     0.38675   0.14356   0.54723   0.00000  Uiso   1.00
C2     C     0.31068   0.10831   0.45836   0.00000  Uiso   1.00
C3     C     0.27402   0.04519   0.44571   0.00000  Uiso   1.00
C4     C     0.20488   0.02178   0.35926   0.00000  Uiso   1.00
C5     C     0.09158   0.96118   0.23210   0.00000  Uiso   1.00
C6     C     0.51177   0.17119   0.56119   0.00000  Uiso   1.00
C7     C     0.64419   0.16095   0.63500   0.00000  Uiso   1.00
C8     C     0.74433   0.19049   0.63511   0.00000  Uiso   1.00
C9     C     0.94323   0.22757   0.66762   0.00000  Uiso   1.00
C10    C     0.29834   0.19962   0.53235   0.00000  Uiso   1.00
C11    C     0.25132   0.21329   0.58193   0.00000  Uiso   1.00
C12    C     0.17179   0.26677   0.55778   0.00000  Uiso   1.00
C13    C     0.03930   0.34798   0.54552   0.00000  Uiso   1.00
C14    C     0.32915   0.21423   0.41620   0.00000  Uiso   1.00
C15    C     0.27940   0.14669   0.38719   0.00000  Uiso   1.00
C16    C     0.21029   0.12337   0.30074   0.00000  Uiso   1.00
C17    C     0.17353   0.06023   0.28796   0.00000  Uiso   1.00
C18    C     0.48049   0.20958   0.49002   0.00000  Uiso   1.00
C19    C     0.58046   0.23914   0.49002   0.00000  Uiso   1.00
C20    C     0.71299   0.22895   0.56381   0.00000  Uiso   1.00
C21    C     0.26705   0.23800   0.46118   0.00000  Uiso   1.00
C22    C     0.18759   0.29148   0.43695   0.00000  Uiso   1.00
C23    C     0.14045   0.30522   0.48648   0.00000  Uiso   1.00
H24    H     0.41112   0.11368   0.60264   0.00000  Uiso   1.00
H25    H     0.29826   0.01549   0.50081   0.00000  Uiso   1.00
H26    H     0.66837   0.13125   0.69007   0.00000  Uiso   1.00
H27    H     0.27556   0.18357   0.63700   0.00000  Uiso   1.00
H28    H     0.15939   0.92356   0.35652   0.00000  Uiso   1.00
H29    H     0.93978   0.16766   0.75560   0.00000  Uiso   1.00
H30    H     0.11146   0.27799   0.64371   0.00000  Uiso   1.00
H31    H     0.30479   0.24412   0.36079   0.00000  Uiso   1.00
H32    H     0.18609   0.15309   0.24567   0.00000  Uiso   1.00
H33    H     0.55621   0.26885   0.43494   0.00000  Uiso   1.00
H34    H     0.16339   0.32117   0.38187   0.00000  Uiso   1.00
H35    H     0.06835   0.03524   0.14945   0.00000  Uiso   1.00
H36    H     0.84874   0.27934   0.54853   0.00000  Uiso   1.00
H37    H     0.02042   0.38967   0.43664   0.00000  Uiso   1.00
O38    O     0.03774   0.91716   0.18163   0.00000  Uiso   1.00
O39    O     0.06158   0.23741   0.70521   0.00000  Uiso   1.00
O40    O     0.97485   0.38217   0.55841   0.00000  Uiso   1.00
N41    N     0.15422   0.96234   0.32358   0.00000  Uiso   1.00
N42    N     0.88385   0.19055   0.69669   0.00000  Uiso   1.00
N43    N     0.10947   0.29371   0.59210   0.00000  Uiso   1.00
N44    N     0.10524   0.02243   0.21215   0.00000  Uiso   1.00
N45    N     0.83486   0.25064   0.58526   0.00000  Uiso   1.00
N46    N     0.06048   0.35380   0.48067   0.00000  Uiso   1.00
C47    C     0.61325   0.64356   0.95277   0.00000  Uiso   1.00
C48    C     0.68932   0.60831   0.04164   0.00000  Uiso   1.00
C49    C     0.72598   0.54519   0.05429   0.00000  Uiso   1.00
C50    C     0.79512   0.52178   0.14074   0.00000  Uiso   1.00
C51    C     0.90842   0.46118   0.26790   0.00000  Uiso   1.00
C52    C     0.48823   0.67119   0.93881   0.00000  Uiso   1.00
C53    C     0.35581   0.66095   0.86500   0.00000  Uiso   1.00
C54    C     0.25567   0.69049   0.86489   0.00000  Uiso   1.00
C55    C     0.05677   0.72757   0.83238   0.00000  Uiso   1.00
C56    C     0.70166   0.69962   0.96765   0.00000  Uiso   1.00
C57    C     0.74868   0.71329   0.91807   0.00000  Uiso   1.00
C58    C     0.82821   0.76677   0.94222   0.00000  Uiso   1.00
C59    C     0.96070   0.84798   0.95448   0.00000  Uiso   1.00
C60    C     0.67085   0.71423   0.08380   0.00000  Uiso   1.00
C61    C     0.72060   0.64669   0.11281   0.00000  Uiso   1.00
C62    C     0.78971   0.62337   0.19926   0.00000  Uiso   1.00
C63    C     0.82647   0.56023   0.21204   0.00000  Uiso   1.00
C64    C     0.51951   0.70958   0.00998   0.00000  Uiso   1.00
C65    C     0.41954   0.73914   0.00998   0.00000  Uiso   1.00
C66    C     0.28701   0.72895   0.93619   0.00000  Uiso   1.00
C67    C     0.73295   0.73800   0.03882   0.00000  Uiso   1.00
C68    C     0.81241   0.79148   0.06305   0.00000  Uiso   1.00
C69    C     0.85955   0.80522   0.01352   0.00000  Uiso   1.00
H70    H     0.58888   0.61368   0.89736   0.00000  Uiso   1.00
H71    H     0.70174   0.51549   0.99919   0.00000  Uiso   1.00
H72    H     0.33163   0.63125   0.80993   0.00000  Uiso   1.00
H73    H     0.72444   0.68357   0.86300   0.00000  Uiso   1.00
H74    H     0.84061   0.42356   0.14348   0.00000  Uiso   1.00
H75    H     0.06022   0.66766   0.74440   0.00000  Uiso   1.00
H76    H     0.88854   0.77799   0.85629   0.00000  Uiso   1.00
H77    H     0.69521   0.74412   0.13921   0.00000  Uiso   1.00
H78    H     0.81391   0.65309   0.25433   0.00000  Uiso   1.00
H79    H     0.44379   0.76885   0.06506   0.00000  Uiso   1.00
H80    H     0.83661   0.82117   0.11813   0.00000  Uiso   1.00
H81    H     0.93165   0.53524   0.35055   0.00000  Uiso   1.00
H82    H     0.15126   0.77934   0.95147   0.00000  Uiso   1.00
H83    H     0.97958   0.88967   0.06336   0.00000  Uiso   1.00
O84    O     0.96226   0.41716   0.31837   0.00000  Uiso   1.00
O85    O     0.93842   0.73741   0.79479   0.00000  Uiso   1.00
O86    O     0.02515   0.88217   0.94159   0.00000  Uiso   1.00
N87    N     0.84578   0.46234   0.17642   0.00000  Uiso   1.00
N88    N     0.11615   0.69055   0.80331   0.00000  Uiso   1.00
N89    N     0.89053   0.79371   0.90790   0.00000  Uiso   1.00
N90    N     0.89476   0.52243   0.28785   0.00000  Uiso   1.00
N91    N     0.16514   0.75064   0.91474   0.00000  Uiso   1.00
N92    N     0.93952   0.85380   0.01933   0.00000  Uiso   1.00
C93    C     0.61325   0.85644   0.45277   0.00000  Uiso   1.00
C94    C     0.68932   0.89169   0.54164   0.00000  Uiso   1.00
C95    C     0.72598   0.95481   0.55429   0.00000  Uiso   1.00
C96    C     0.79512   0.97822   0.64074   0.00000  Uiso   1.00
C97    C     0.90842   0.03882   0.76790   0.00000  Uiso   1.00
C98    C     0.48823   0.82881   0.43881   0.00000  Uiso   1.00
C99    C     0.35581   0.83905   0.36500   0.00000  Uiso   1.00
C100   C     0.25567   0.80951   0.36489   0.00000  Uiso   1.00
C101   C     0.05677   0.77243   0.33238   0.00000  Uiso   1.00
C102   C     0.70166   0.80038   0.46765   0.00000  Uiso   1.00
C103   C     0.74868   0.78671   0.41807   0.00000  Uiso   1.00
C104   C     0.82821   0.73323   0.44222   0.00000  Uiso   1.00
C105   C     0.96070   0.65202   0.45448   0.00000  Uiso   1.00
C106   C     0.67085   0.78577   0.58380   0.00000  Uiso   1.00
C107   C     0.72060   0.85331   0.61281   0.00000  Uiso   1.00
C108   C     0.78971   0.87663   0.69926   0.00000  Uiso   1.00
C109   C     0.82647   0.93977   0.71204   0.00000  Uiso   1.00
C110   C     0.51951   0.79042   0.50998   0.00000  Uiso   1.00
C111   C     0.41954   0.76086   0.50998   0.00000  Uiso   1.00
C112   C     0.28701   0.77105   0.43619   0.00000  Uiso   1.00
C113   C     0.73295   0.76200   0.53882   0.00000  Uiso   1.00
C114   C     0.81241   0.70852   0.56305   0.00000  Uiso   1.00
C115   C     0.85955   0.69478   0.51352   0.00000  Uiso   1.00
H116   H     0.58888   0.88632   0.39736   0.00000  Uiso   1.00
H117   H     0.70174   0.98451   0.49919   0.00000  Uiso   1.00
H118   H     0.33163   0.86875   0.30993   0.00000  Uiso   1.00
H119   H     0.72444   0.81643   0.36300   0.00000  Uiso   1.00
H120   H     0.84061   0.07644   0.64348   0.00000  Uiso   1.00
H121   H     0.06022   0.83234   0.24440   0.00000  Uiso   1.00
H122   H     0.88854   0.72201   0.35629   0.00000  Uiso   1.00
H123   H     0.69521   0.75588   0.63921   0.00000  Uiso   1.00
H124   H     0.81391   0.84691   0.75433   0.00000  Uiso   1.00
H125   H     0.44379   0.73115   0.56506   0.00000  Uiso   1.00
H126   H     0.83661   0.67883   0.61813   0.00000  Uiso   1.00
H127   H     0.93165   0.96476   0.85055   0.00000  Uiso   1.00
H128   H     0.15126   0.72066   0.45147   0.00000  Uiso   1.00
H129   H     0.97958   0.61033   0.56336   0.00000  Uiso   1.00
O130   O     0.96226   0.08284   0.81837   0.00000  Uiso   1.00
O131   O     0.93842   0.76259   0.29479   0.00000  Uiso   1.00
O132   O     0.02515   0.61783   0.44159   0.00000  Uiso   1.00
N133   N     0.84578   0.03766   0.67642   0.00000  Uiso   1.00
N134   N     0.11615   0.80945   0.30331   0.00000  Uiso   1.00
N135   N     0.89053   0.70629   0.40790   0.00000  Uiso   1.00
N136   N     0.89476   0.97757   0.78785   0.00000  Uiso   1.00
N137   N     0.16514   0.74936   0.41474   0.00000  Uiso   1.00
N138   N     0.93952   0.64620   0.51933   0.00000  Uiso   1.00
C139   C     0.38675   0.35644   0.04723   0.00000  Uiso   1.00
C140   C     0.31068   0.39169   0.95836   0.00000  Uiso   1.00
C141   C     0.27402   0.45481   0.94571   0.00000  Uiso   1.00
C142   C     0.20488   0.47822   0.85926   0.00000  Uiso   1.00
C143   C     0.09158   0.53882   0.73210   0.00000  Uiso   1.00
C144   C     0.51177   0.32881   0.06119   0.00000  Uiso   1.00
C145   C     0.64419   0.33905   0.13500   0.00000  Uiso   1.00
C146   C     0.74433   0.30951   0.13511   0.00000  Uiso   1.00
C147   C     0.94323   0.27243   0.16762   0.00000  Uiso   1.00
C148   C     0.29834   0.30038   0.03235   0.00000  Uiso   1.00
C149   C     0.25132   0.28671   0.08193   0.00000  Uiso   1.00
C150   C     0.17179   0.23323   0.05778   0.00000  Uiso   1.00
C151   C     0.03930   0.15202   0.04552   0.00000  Uiso   1.00
C152   C     0.32915   0.28577   0.91620   0.00000  Uiso   1.00
C153   C     0.27940   0.35331   0.88719   0.00000  Uiso   1.00
C154   C     0.21029   0.37663   0.80074   0.00000  Uiso   1.00
C155   C     0.17353   0.43977   0.78796   0.00000  Uiso   1.00
C156   C     0.48049   0.29042   0.99002   0.00000  Uiso   1.00
C157   C     0.58046   0.26086   0.99002   0.00000  Uiso   1.00
C158   C     0.71299   0.27105   0.06381   0.00000  Uiso   1.00
C159   C     0.26705   0.26200   0.96118   0.00000  Uiso   1.00
C160   C     0.18759   0.20852   0.93695   0.00000  Uiso   1.00
C161   C     0.14045   0.19478   0.98648   0.00000  Uiso   1.00
H162   H     0.41112   0.38632   0.10264   0.00000  Uiso   1.00
H163   H     0.29826   0.48451   0.00081   0.00000  Uiso   1.00
H164   H     0.66837   0.36875   0.19007   0.00000  Uiso   1.00
H165   H     0.27556   0.31643   0.13700   0.00000  Uiso   1.00
H166   H     0.15939   0.57644   0.85652   0.00000  Uiso   1.00
H167   H     0.93978   0.33234   0.25560   0.00000  Uiso   1.00
H168   H     0.11146   0.22201   0.14371   0.00000  Uiso   1.00
H169   H     0.30479   0.25588   0.86079   0.00000  Uiso   1.00
H170   H     0.18609   0.34691   0.74567   0.00000  Uiso   1.00
H171   H     0.55621   0.23115   0.93494   0.00000  Uiso   1.00
H172   H     0.16339   0.17883   0.88187   0.00000  Uiso   1.00
H173   H     0.06835   0.46476   0.64945   0.00000  Uiso   1.00
H174   H     0.84874   0.22066   0.04853   0.00000  Uiso   1.00
H175   H     0.02042   0.11033   0.93664   0.00000  Uiso   1.00
O176   O     0.03774   0.58284   0.68163   0.00000  Uiso   1.00
O177   O     0.06158   0.26259   0.20521   0.00000  Uiso   1.00
O178   O     0.97485   0.11783   0.05841   0.00000  Uiso   1.00
N179   N     0.15422   0.53766   0.82358   0.00000  Uiso   1.00
N180   N     0.88385   0.30945   0.19669   0.00000  Uiso   1.00
N181   N     0.10947   0.20629   0.09210   0.00000  Uiso   1.00
N182   N     0.10524   0.47757   0.71215   0.00000  Uiso   1.00
N183   N     0.83486   0.24936   0.08526   0.00000  Uiso   1.00
N184   N     0.06048   0.14620   0.98067   0.00000  Uiso   1.00
