data_job_01958
_audit_creation_date              2018-12-19
_audit_creation_method            'Materials Studio'
_symmetry_space_group_name_H-M    'P1'
_symmetry_Int_Tables_number       1
_symmetry_cell_setting            triclinic
loop_
_symmetry_equiv_pos_as_xyz
  x,y,z
_cell_length_a                    8.8926
_cell_length_b                    10.1396
_cell_length_c                    16.9601
_cell_angle_alpha                 100.2411
_cell_angle_beta                  94.3219
_cell_angle_gamma                 81.4371
loop_
_atom_site_label
_atom_site_type_symbol
_atom_site_fract_x
_atom_site_fract_y
_atom_site_fract_z
_atom_site_U_iso_or_equiv
_atom_site_adp_type
_atom_site_occupancy
C1     C     0.94381   0.73999   0.21184   0.00000  Uiso   1.00
C2     C     0.89134   0.85427   0.27953   0.00000  Uiso   1.00
C3     C     0.74140   0.90937   0.29365   0.00000  Uiso   1.00
C4     C     0.71707   0.01328   0.35865   0.00000  Uiso   1.00
C5     C     0.61714   0.18363   0.45628   0.00000  Uiso   1.00
C6     C     0.05457   0.79511   0.16585   0.00000  Uiso   1.00
C7     C     0.04188   0.80045   0.08438   0.00000  Uiso   1.00
C8     C     0.15497   0.85454   0.05369   0.00000  Uiso   1.00
C9     C     0.30851   0.93295   0.97481   0.00000  Uiso   1.00
C10    C     0.03863   0.62991   0.25204   0.00000  Uiso   1.00
C11    C     0.01257   0.49633   0.24302   0.00000  Uiso   1.00
C12    C     0.11226   0.41133   0.28488   0.00000  Uiso   1.00
C13    C     0.24105   0.23324   0.33982   0.00000  Uiso   1.00
C14    C     0.16722   0.82654   0.30219   0.00000  Uiso   1.00
C15    C     0.01269   0.90128   0.32861   0.00000  Uiso   1.00
C16    C     0.98858   0.00514   0.39362   0.00000  Uiso   1.00
C17    C     0.83863   0.06038   0.40783   0.00000  Uiso   1.00
C18    C     0.17591   0.84212   0.21493   0.00000  Uiso   1.00
C19    C     0.28905   0.89621   0.18435   0.00000  Uiso   1.00
C20    C     0.27653   0.90164   0.10286   0.00000  Uiso   1.00
C21    C     0.15998   0.67692   0.30112   0.00000  Uiso   1.00
C22    C     0.25974   0.59211   0.34300   0.00000  Uiso   1.00
C23    C     0.23383   0.45843   0.33405   0.00000  Uiso   1.00
H24    H     0.84934   0.70338   0.17362   0.00000  Uiso   1.00
H25    H     0.64752   0.87297   0.25565   0.00000  Uiso   1.00
H26    H     0.94797   0.76404   0.04641   0.00000  Uiso   1.00
H27    H     0.91865   0.45999   0.20503   0.00000  Uiso   1.00
H28    H     0.47729   0.08175   0.36821   0.00000  Uiso   1.00
H29    H     0.11081   0.85204   0.92703   0.00000  Uiso   1.00
H30    H     0.04900   0.21086   0.26151   0.00000  Uiso   1.00
H31    H     0.26170   0.86315   0.34040   0.00000  Uiso   1.00
H32    H     0.08251   0.04150   0.43159   0.00000  Uiso   1.00
H33    H     0.38295   0.93258   0.22235   0.00000  Uiso   1.00
H34    H     0.35363   0.62852   0.38097   0.00000  Uiso   1.00
H35    H     0.83034   0.21854   0.51101   0.00000  Uiso   1.00
H36    H     0.46386   0.98883   0.06982   0.00000  Uiso   1.00
H37    H     0.40205   0.34766   0.40430   0.00000  Uiso   1.00
O38    O     0.52850   0.26461   0.49657   0.00000  Uiso   1.00
O39    O     0.35966   0.96322   0.91775   0.00000  Uiso   1.00
O40    O     0.27856   0.12203   0.35658   0.00000  Uiso   1.00
N41    N     0.58497   0.08944   0.38932   0.00000  Uiso   1.00
N42    N     0.17726   0.87470   0.97684   0.00000  Uiso   1.00
N43    N     0.11949   0.27525   0.28953   0.00000  Uiso   1.00
N44    N     0.77494   0.16305   0.46615   0.00000  Uiso   1.00
N45    N     0.36723   0.94831   0.05367   0.00000  Uiso   1.00
N46    N     0.30947   0.34886   0.36637   0.00000  Uiso   1.00
C47    C     0.05619   0.26001   0.78816   0.00000  Uiso   1.00
C48    C     0.10866   0.14573   0.72047   0.00000  Uiso   1.00
C49    C     0.25860   0.09063   0.70635   0.00000  Uiso   1.00
C50    C     0.28293   0.98672   0.64135   0.00000  Uiso   1.00
C51    C     0.38286   0.81637   0.54372   0.00000  Uiso   1.00
C52    C     0.94543   0.20489   0.83415   0.00000  Uiso   1.00
C53    C     0.95812   0.19955   0.91562   0.00000  Uiso   1.00
C54    C     0.84503   0.14546   0.94631   0.00000  Uiso   1.00
C55    C     0.69149   0.06705   0.02519   0.00000  Uiso   1.00
C56    C     0.96137   0.37009   0.74796   0.00000  Uiso   1.00
C57    C     0.98743   0.50367   0.75698   0.00000  Uiso   1.00
C58    C     0.88774   0.58867   0.71512   0.00000  Uiso   1.00
C59    C     0.75895   0.76676   0.66018   0.00000  Uiso   1.00
C60    C     0.83278   0.17346   0.69781   0.00000  Uiso   1.00
C61    C     0.98731   0.09872   0.67139   0.00000  Uiso   1.00
C62    C     0.01142   0.99486   0.60638   0.00000  Uiso   1.00
C63    C     0.16137   0.93962   0.59217   0.00000  Uiso   1.00
C64    C     0.82409   0.15788   0.78507   0.00000  Uiso   1.00
C65    C     0.71095   0.10379   0.81565   0.00000  Uiso   1.00
C66    C     0.72347   0.09836   0.89714   0.00000  Uiso   1.00
C67    C     0.84002   0.32308   0.69888   0.00000  Uiso   1.00
C68    C     0.74026   0.40789   0.65700   0.00000  Uiso   1.00
C69    C     0.76617   0.54157   0.66595   0.00000  Uiso   1.00
H70    H     0.15066   0.29662   0.82638   0.00000  Uiso   1.00
H71    H     0.35248   0.12703   0.74435   0.00000  Uiso   1.00
H72    H     0.05203   0.23596   0.95359   0.00000  Uiso   1.00
H73    H     0.08135   0.54001   0.79497   0.00000  Uiso   1.00
H74    H     0.52271   0.91825   0.63179   0.00000  Uiso   1.00
H75    H     0.88919   0.14796   0.07297   0.00000  Uiso   1.00
H76    H     0.95100   0.78914   0.73849   0.00000  Uiso   1.00
H77    H     0.73830   0.13685   0.65960   0.00000  Uiso   1.00
H78    H     0.91749   0.95850   0.56841   0.00000  Uiso   1.00
H79    H     0.61705   0.06742   0.77765   0.00000  Uiso   1.00
H80    H     0.64637   0.37148   0.61903   0.00000  Uiso   1.00
H81    H     0.16966   0.78146   0.48899   0.00000  Uiso   1.00
H82    H     0.53614   0.01117   0.93018   0.00000  Uiso   1.00
H83    H     0.59795   0.65234   0.59570   0.00000  Uiso   1.00
O84    O     0.47150   0.73539   0.50343   0.00000  Uiso   1.00
O85    O     0.64034   0.03678   0.08225   0.00000  Uiso   1.00
O86    O     0.72144   0.87797   0.64342   0.00000  Uiso   1.00
N87    N     0.41503   0.91056   0.61068   0.00000  Uiso   1.00
N88    N     0.82274   0.12530   0.02316   0.00000  Uiso   1.00
N89    N     0.88051   0.72475   0.71047   0.00000  Uiso   1.00
N90    N     0.22506   0.83695   0.53385   0.00000  Uiso   1.00
N91    N     0.63277   0.05169   0.94633   0.00000  Uiso   1.00
N92    N     0.69053   0.65114   0.63363   0.00000  Uiso   1.00
