data_job_05649
_audit_creation_date              2018-12-19
_audit_creation_method            'Materials Studio'
_symmetry_space_group_name_H-M    'P1'
_symmetry_Int_Tables_number       1
_symmetry_cell_setting            triclinic
loop_
_symmetry_equiv_pos_as_xyz
  x,y,z
_cell_length_a                    33.7981
_cell_length_b                    15.8904
_cell_length_c                    12.1278
_cell_angle_alpha                 90.0000
_cell_angle_beta                  90.0000
_cell_angle_gamma                 90.0000
loop_
_atom_site_label
_atom_site_type_symbol
_atom_site_fract_x
_atom_site_fract_y
_atom_site_fract_z
_atom_site_U_iso_or_equiv
_atom_site_adp_type
_atom_site_occupancy
C1     C     0.89131   0.61338   0.96667   0.00000  Uiso   1.00
C2     C     0.86563   0.69220   0.97146   0.00000  Uiso   1.00
C3     C     0.86551   0.75685   0.89452   0.00000  Uiso   1.00
C4     C     0.83987   0.82352   0.91375   0.00000  Uiso   1.00
C5     C     0.80376   0.94565   0.90709   0.00000  Uiso   1.00
C6     C     0.91439   0.61131   0.07467   0.00000  Uiso   1.00
C7     C     0.95527   0.60792   0.08450   0.00000  Uiso   1.00
C8     C     0.97068   0.60649   0.19061   0.00000  Uiso   1.00
C9     C     0.01028   0.60296   0.34418   0.00000  Uiso   1.00
C10    C     0.86285   0.53900   0.97104   0.00000  Uiso   1.00
C11    C     0.86039   0.47480   0.89375   0.00000  Uiso   1.00
C12    C     0.83241   0.41247   0.91262   0.00000  Uiso   1.00
C13    C     0.79197   0.29667   0.90529   0.00000  Uiso   1.00
C14    C     0.84599   0.61683   0.13762   0.00000  Uiso   1.00
C15    C     0.84102   0.69407   0.06432   0.00000  Uiso   1.00
C16    C     0.81537   0.76066   0.08366   0.00000  Uiso   1.00
C17    C     0.81521   0.82540   0.00676   0.00000  Uiso   1.00
C18    C     0.88978   0.61318   0.16752   0.00000  Uiso   1.00
C19    C     0.90513   0.61174   0.27364   0.00000  Uiso   1.00
C20    C     0.94603   0.60836   0.28363   0.00000  Uiso   1.00
C21    C     0.83823   0.54087   0.06389   0.00000  Uiso   1.00
C22    C     0.81025   0.47862   0.08289   0.00000  Uiso   1.00
C23    C     0.80775   0.41434   0.00564   0.00000  Uiso   1.00
H24    H     0.91048   0.61192   0.89438   0.00000  Uiso   1.00
H25    H     0.88457   0.75538   0.82268   0.00000  Uiso   1.00
H26    H     0.97432   0.60647   0.01263   0.00000  Uiso   1.00
H27    H     0.87945   0.47337   0.82191   0.00000  Uiso   1.00
H28    H     0.84500   0.91527   0.78415   0.00000  Uiso   1.00
H29    H     0.03424   0.60126   0.18467   0.00000  Uiso   1.00
H30    H     0.83419   0.32059   0.78249   0.00000  Uiso   1.00
H31    H     0.82682   0.61828   0.20992   0.00000  Uiso   1.00
H32    H     0.79632   0.76209   0.15553   0.00000  Uiso   1.00
H33    H     0.88607   0.61318   0.34548   0.00000  Uiso   1.00
H34    H     0.79121   0.48009   0.15475   0.00000  Uiso   1.00
H35    H     0.77338   0.92072   0.05431   0.00000  Uiso   1.00
H36    H     0.96262   0.60670   0.45483   0.00000  Uiso   1.00
H37    H     0.76257   0.32604   0.05265   0.00000  Uiso   1.00
O38    O     0.79065   0.01250   0.87778   0.00000  Uiso   1.00
O39    O     0.03892   0.60051   0.40324   0.00000  Uiso   1.00
O40    O     0.77646   0.23228   0.87559   0.00000  Uiso   1.00
N41    N     0.83232   0.89681   0.85519   0.00000  Uiso   1.00
N42    N     0.00925   0.60324   0.22965   0.00000  Uiso   1.00
N43    N     0.82223   0.34082   0.85366   0.00000  Uiso   1.00
N44    N     0.79379   0.89974   0.00055   0.00000  Uiso   1.00
N45    N     0.97071   0.60617   0.37501   0.00000  Uiso   1.00
N46    N     0.78369   0.34376   0.99903   0.00000  Uiso   1.00
C47    C     0.88368   0.38515   0.53221   0.00000  Uiso   1.00
C48    C     0.85787   0.30654   0.52679   0.00000  Uiso   1.00
C49    C     0.85753   0.24170   0.60344   0.00000  Uiso   1.00
C50    C     0.83181   0.17527   0.58364   0.00000  Uiso   1.00
C51    C     0.79548   0.05341   0.58935   0.00000  Uiso   1.00
C52    C     0.90692   0.38732   0.42448   0.00000  Uiso   1.00
C53    C     0.94782   0.39042   0.41511   0.00000  Uiso   1.00
C54    C     0.96338   0.39201   0.30918   0.00000  Uiso   1.00
C55    C     0.00320   0.39562   0.15606   0.00000  Uiso   1.00
C56    C     0.85535   0.45977   0.52786   0.00000  Uiso   1.00
C57    C     0.85289   0.52378   0.60540   0.00000  Uiso   1.00
C58    C     0.82504   0.58638   0.58650   0.00000  Uiso   1.00
C59    C     0.78479   0.70247   0.59390   0.00000  Uiso   1.00
C60    C     0.83860   0.38249   0.36075   0.00000  Uiso   1.00
C61    C     0.83339   0.30510   0.43365   0.00000  Uiso   1.00
C62    C     0.80766   0.23876   0.41373   0.00000  Uiso   1.00
C63    C     0.80728   0.17383   0.49034   0.00000  Uiso   1.00
C64    C     0.88244   0.38588   0.33135   0.00000  Uiso   1.00
C65    C     0.89794   0.38747   0.22541   0.00000  Uiso   1.00
C66    C     0.93885   0.39056   0.21588   0.00000  Uiso   1.00
C67    C     0.83086   0.45832   0.43473   0.00000  Uiso   1.00
C68    C     0.80301   0.52084   0.41570   0.00000  Uiso   1.00
C69    C     0.80051   0.58493   0.49320   0.00000  Uiso   1.00
H70    H     0.90274   0.38628   0.60472   0.00000  Uiso   1.00
H71    H     0.87649   0.24284   0.67550   0.00000  Uiso   1.00
H72    H     0.96676   0.39154   0.48720   0.00000  Uiso   1.00
H73    H     0.87185   0.52488   0.67746   0.00000  Uiso   1.00
H74    H     0.83660   0.08315   0.71288   0.00000  Uiso   1.00
H75    H     0.02694   0.39673   0.31584   0.00000  Uiso   1.00
H76    H     0.82679   0.67791   0.71705   0.00000  Uiso   1.00
H77    H     0.81953   0.38137   0.28823   0.00000  Uiso   1.00
H78    H     0.78871   0.23766   0.34165   0.00000  Uiso   1.00
H79    H     0.87898   0.38636   0.15335   0.00000  Uiso   1.00
H80    H     0.78407   0.51970   0.34362   0.00000  Uiso   1.00
H81    H     0.76535   0.07895   0.44192   0.00000  Uiso   1.00
H82    H     0.95569   0.39253   0.04488   0.00000  Uiso   1.00
H83    H     0.75555   0.67370   0.44608   0.00000  Uiso   1.00
O84    O     0.78221   0.98658   0.61823   0.00000  Uiso   1.00
O85    O     0.03193   0.39801   0.09734   0.00000  Uiso   1.00
O86    O     0.76935   0.76690   0.62371   0.00000  Uiso   1.00
N87    N     0.82405   0.10189   0.64179   0.00000  Uiso   1.00
N88    N     0.00201   0.39506   0.27058   0.00000  Uiso   1.00
N89    N     0.81490   0.65795   0.64566   0.00000  Uiso   1.00
N90    N     0.78572   0.09963   0.49599   0.00000  Uiso   1.00
N91    N     0.96367   0.39279   0.12478   0.00000  Uiso   1.00
N92    N     0.77657   0.65568   0.49986   0.00000  Uiso   1.00
C93    C     0.10869   0.38662   0.46667   0.00000  Uiso   1.00
C94    C     0.13437   0.30780   0.47146   0.00000  Uiso   1.00
C95    C     0.13449   0.24315   0.39452   0.00000  Uiso   1.00
C96    C     0.16013   0.17648   0.41375   0.00000  Uiso   1.00
C97    C     0.19624   0.05435   0.40709   0.00000  Uiso   1.00
C98    C     0.08561   0.38869   0.57467   0.00000  Uiso   1.00
C99    C     0.04473   0.39208   0.58450   0.00000  Uiso   1.00
C100   C     0.02932   0.39351   0.69061   0.00000  Uiso   1.00
C101   C     0.98972   0.39704   0.84418   0.00000  Uiso   1.00
C102   C     0.13715   0.46100   0.47104   0.00000  Uiso   1.00
C103   C     0.13961   0.52520   0.39375   0.00000  Uiso   1.00
C104   C     0.16759   0.58753   0.41262   0.00000  Uiso   1.00
C105   C     0.20803   0.70333   0.40529   0.00000  Uiso   1.00
C106   C     0.15401   0.38317   0.63762   0.00000  Uiso   1.00
C107   C     0.15898   0.30593   0.56432   0.00000  Uiso   1.00
C108   C     0.18463   0.23934   0.58366   0.00000  Uiso   1.00
C109   C     0.18479   0.17460   0.50676   0.00000  Uiso   1.00
C110   C     0.11022   0.38682   0.66752   0.00000  Uiso   1.00
C111   C     0.09487   0.38826   0.77364   0.00000  Uiso   1.00
C112   C     0.05397   0.39164   0.78363   0.00000  Uiso   1.00
C113   C     0.16177   0.45913   0.56389   0.00000  Uiso   1.00
C114   C     0.18975   0.52138   0.58289   0.00000  Uiso   1.00
C115   C     0.19225   0.58566   0.50564   0.00000  Uiso   1.00
H116   H     0.08952   0.38808   0.39438   0.00000  Uiso   1.00
H117   H     0.11543   0.24462   0.32268   0.00000  Uiso   1.00
H118   H     0.02568   0.39353   0.51263   0.00000  Uiso   1.00
H119   H     0.12055   0.52663   0.32191   0.00000  Uiso   1.00
H120   H     0.15500   0.08473   0.28415   0.00000  Uiso   1.00
H121   H     0.96576   0.39874   0.68467   0.00000  Uiso   1.00
H122   H     0.16581   0.67941   0.28249   0.00000  Uiso   1.00
H123   H     0.17318   0.38172   0.70992   0.00000  Uiso   1.00
H124   H     0.20368   0.23791   0.65553   0.00000  Uiso   1.00
H125   H     0.11393   0.38682   0.84548   0.00000  Uiso   1.00
H126   H     0.20879   0.51991   0.65475   0.00000  Uiso   1.00
H127   H     0.22662   0.07928   0.55431   0.00000  Uiso   1.00
H128   H     0.03738   0.39330   0.95483   0.00000  Uiso   1.00
H129   H     0.23743   0.67396   0.55265   0.00000  Uiso   1.00
O130   O     0.20935   0.98750   0.37778   0.00000  Uiso   1.00
O131   O     0.96108   0.39949   0.90324   0.00000  Uiso   1.00
O132   O     0.22354   0.76772   0.37559   0.00000  Uiso   1.00
N133   N     0.16768   0.10319   0.35519   0.00000  Uiso   1.00
N134   N     0.99075   0.39676   0.72965   0.00000  Uiso   1.00
N135   N     0.17777   0.65918   0.35366   0.00000  Uiso   1.00
N136   N     0.20621   0.10026   0.50055   0.00000  Uiso   1.00
N137   N     0.02929   0.39383   0.87501   0.00000  Uiso   1.00
N138   N     0.21631   0.65624   0.49903   0.00000  Uiso   1.00
C139   C     0.11632   0.61485   0.03221   0.00000  Uiso   1.00
C140   C     0.14213   0.69346   0.02679   0.00000  Uiso   1.00
C141   C     0.14247   0.75830   0.10344   0.00000  Uiso   1.00
C142   C     0.16819   0.82473   0.08364   0.00000  Uiso   1.00
C143   C     0.20452   0.94659   0.08935   0.00000  Uiso   1.00
C144   C     0.09308   0.61268   0.92448   0.00000  Uiso   1.00
C145   C     0.05218   0.60958   0.91511   0.00000  Uiso   1.00
C146   C     0.03662   0.60799   0.80918   0.00000  Uiso   1.00
C147   C     0.99680   0.60438   0.65606   0.00000  Uiso   1.00
C148   C     0.14465   0.54023   0.02786   0.00000  Uiso   1.00
C149   C     0.14711   0.47622   0.10540   0.00000  Uiso   1.00
C150   C     0.17496   0.41362   0.08650   0.00000  Uiso   1.00
C151   C     0.21521   0.29753   0.09390   0.00000  Uiso   1.00
C152   C     0.16140   0.61751   0.86075   0.00000  Uiso   1.00
C153   C     0.16661   0.69490   0.93365   0.00000  Uiso   1.00
C154   C     0.19234   0.76124   0.91373   0.00000  Uiso   1.00
C155   C     0.19272   0.82617   0.99034   0.00000  Uiso   1.00
C156   C     0.11756   0.61412   0.83135   0.00000  Uiso   1.00
C157   C     0.10206   0.61253   0.72541   0.00000  Uiso   1.00
C158   C     0.06115   0.60944   0.71588   0.00000  Uiso   1.00
C159   C     0.16914   0.54168   0.93473   0.00000  Uiso   1.00
C160   C     0.19699   0.47916   0.91570   0.00000  Uiso   1.00
C161   C     0.19949   0.41507   0.99320   0.00000  Uiso   1.00
H162   H     0.09726   0.61372   0.10472   0.00000  Uiso   1.00
H163   H     0.12351   0.75716   0.17550   0.00000  Uiso   1.00
H164   H     0.03324   0.60846   0.98720   0.00000  Uiso   1.00
H165   H     0.12815   0.47512   0.17746   0.00000  Uiso   1.00
H166   H     0.16340   0.91685   0.21288   0.00000  Uiso   1.00
H167   H     0.97306   0.60327   0.81584   0.00000  Uiso   1.00
H168   H     0.17321   0.32209   0.21705   0.00000  Uiso   1.00
H169   H     0.18047   0.61863   0.78823   0.00000  Uiso   1.00
H170   H     0.21129   0.76234   0.84165   0.00000  Uiso   1.00
H171   H     0.12102   0.61364   0.65335   0.00000  Uiso   1.00
H172   H     0.21593   0.48030   0.84362   0.00000  Uiso   1.00
H173   H     0.23465   0.92105   0.94192   0.00000  Uiso   1.00
H174   H     0.04431   0.60747   0.54488   0.00000  Uiso   1.00
H175   H     0.24445   0.32630   0.94608   0.00000  Uiso   1.00
O176   O     0.21779   0.01342   0.11823   0.00000  Uiso   1.00
O177   O     0.96807   0.60199   0.59734   0.00000  Uiso   1.00
O178   O     0.23065   0.23310   0.12371   0.00000  Uiso   1.00
N179   N     0.17595   0.89811   0.14179   0.00000  Uiso   1.00
N180   N     0.99799   0.60494   0.77058   0.00000  Uiso   1.00
N181   N     0.18510   0.34205   0.14566   0.00000  Uiso   1.00
N182   N     0.21428   0.90037   0.99599   0.00000  Uiso   1.00
N183   N     0.03633   0.60721   0.62478   0.00000  Uiso   1.00
N184   N     0.22343   0.34432   0.99986   0.00000  Uiso   1.00
C185   C     0.39131   0.88662   0.96667   0.00000  Uiso   1.00
C186   C     0.36563   0.80780   0.97146   0.00000  Uiso   1.00
C187   C     0.36551   0.74315   0.89452   0.00000  Uiso   1.00
C188   C     0.33987   0.67648   0.91375   0.00000  Uiso   1.00
C189   C     0.30376   0.55435   0.90709   0.00000  Uiso   1.00
C190   C     0.41439   0.88869   0.07467   0.00000  Uiso   1.00
C191   C     0.45527   0.89208   0.08450   0.00000  Uiso   1.00
C192   C     0.47068   0.89351   0.19061   0.00000  Uiso   1.00
C193   C     0.51028   0.89704   0.34418   0.00000  Uiso   1.00
C194   C     0.36285   0.96100   0.97104   0.00000  Uiso   1.00
C195   C     0.36039   0.02520   0.89375   0.00000  Uiso   1.00
C196   C     0.33241   0.08753   0.91262   0.00000  Uiso   1.00
C197   C     0.29197   0.20333   0.90529   0.00000  Uiso   1.00
C198   C     0.34599   0.88317   0.13762   0.00000  Uiso   1.00
C199   C     0.34102   0.80593   0.06432   0.00000  Uiso   1.00
C200   C     0.31537   0.73934   0.08366   0.00000  Uiso   1.00
C201   C     0.31521   0.67460   0.00676   0.00000  Uiso   1.00
C202   C     0.38978   0.88682   0.16752   0.00000  Uiso   1.00
C203   C     0.40513   0.88826   0.27364   0.00000  Uiso   1.00
C204   C     0.44603   0.89164   0.28363   0.00000  Uiso   1.00
C205   C     0.33823   0.95913   0.06389   0.00000  Uiso   1.00
C206   C     0.31025   0.02138   0.08289   0.00000  Uiso   1.00
C207   C     0.30775   0.08566   0.00564   0.00000  Uiso   1.00
H208   H     0.41048   0.88808   0.89438   0.00000  Uiso   1.00
H209   H     0.38457   0.74462   0.82268   0.00000  Uiso   1.00
H210   H     0.47432   0.89353   0.01263   0.00000  Uiso   1.00
H211   H     0.37945   0.02663   0.82191   0.00000  Uiso   1.00
H212   H     0.34500   0.58473   0.78415   0.00000  Uiso   1.00
H213   H     0.53424   0.89874   0.18467   0.00000  Uiso   1.00
H214   H     0.33419   0.17941   0.78249   0.00000  Uiso   1.00
H215   H     0.32682   0.88172   0.20992   0.00000  Uiso   1.00
H216   H     0.29632   0.73791   0.15553   0.00000  Uiso   1.00
H217   H     0.38607   0.88682   0.34548   0.00000  Uiso   1.00
H218   H     0.29121   0.01991   0.15475   0.00000  Uiso   1.00
H219   H     0.27338   0.57928   0.05431   0.00000  Uiso   1.00
H220   H     0.46262   0.89330   0.45483   0.00000  Uiso   1.00
H221   H     0.26257   0.17396   0.05265   0.00000  Uiso   1.00
O222   O     0.29065   0.48750   0.87778   0.00000  Uiso   1.00
O223   O     0.53892   0.89949   0.40324   0.00000  Uiso   1.00
O224   O     0.27646   0.26772   0.87559   0.00000  Uiso   1.00
N225   N     0.33232   0.60319   0.85519   0.00000  Uiso   1.00
N226   N     0.50925   0.89676   0.22965   0.00000  Uiso   1.00
N227   N     0.32223   0.15918   0.85366   0.00000  Uiso   1.00
N228   N     0.29379   0.60026   0.00055   0.00000  Uiso   1.00
N229   N     0.47071   0.89383   0.37501   0.00000  Uiso   1.00
N230   N     0.28369   0.15624   0.99903   0.00000  Uiso   1.00
C231   C     0.38368   0.11485   0.53221   0.00000  Uiso   1.00
C232   C     0.35787   0.19346   0.52679   0.00000  Uiso   1.00
C233   C     0.35753   0.25830   0.60344   0.00000  Uiso   1.00
C234   C     0.33181   0.32473   0.58364   0.00000  Uiso   1.00
C235   C     0.29548   0.44659   0.58935   0.00000  Uiso   1.00
C236   C     0.40692   0.11268   0.42448   0.00000  Uiso   1.00
C237   C     0.44782   0.10958   0.41511   0.00000  Uiso   1.00
C238   C     0.46338   0.10799   0.30918   0.00000  Uiso   1.00
C239   C     0.50320   0.10438   0.15606   0.00000  Uiso   1.00
C240   C     0.35535   0.04023   0.52786   0.00000  Uiso   1.00
C241   C     0.35289   0.97622   0.60540   0.00000  Uiso   1.00
C242   C     0.32504   0.91362   0.58650   0.00000  Uiso   1.00
C243   C     0.28479   0.79753   0.59390   0.00000  Uiso   1.00
C244   C     0.33860   0.11751   0.36075   0.00000  Uiso   1.00
C245   C     0.33339   0.19490   0.43365   0.00000  Uiso   1.00
C246   C     0.30766   0.26124   0.41373   0.00000  Uiso   1.00
C247   C     0.30728   0.32617   0.49034   0.00000  Uiso   1.00
C248   C     0.38244   0.11412   0.33135   0.00000  Uiso   1.00
C249   C     0.39794   0.11253   0.22541   0.00000  Uiso   1.00
C250   C     0.43885   0.10944   0.21588   0.00000  Uiso   1.00
C251   C     0.33086   0.04168   0.43473   0.00000  Uiso   1.00
C252   C     0.30301   0.97916   0.41570   0.00000  Uiso   1.00
C253   C     0.30051   0.91507   0.49320   0.00000  Uiso   1.00
H254   H     0.40274   0.11372   0.60472   0.00000  Uiso   1.00
H255   H     0.37649   0.25716   0.67550   0.00000  Uiso   1.00
H256   H     0.46676   0.10846   0.48720   0.00000  Uiso   1.00
H257   H     0.37185   0.97512   0.67746   0.00000  Uiso   1.00
H258   H     0.33660   0.41685   0.71288   0.00000  Uiso   1.00
H259   H     0.52694   0.10327   0.31584   0.00000  Uiso   1.00
H260   H     0.32679   0.82209   0.71705   0.00000  Uiso   1.00
H261   H     0.31953   0.11863   0.28823   0.00000  Uiso   1.00
H262   H     0.28871   0.26234   0.34165   0.00000  Uiso   1.00
H263   H     0.37898   0.11364   0.15335   0.00000  Uiso   1.00
H264   H     0.28407   0.98030   0.34362   0.00000  Uiso   1.00
H265   H     0.26535   0.42105   0.44192   0.00000  Uiso   1.00
H266   H     0.45569   0.10747   0.04488   0.00000  Uiso   1.00
H267   H     0.25555   0.82630   0.44608   0.00000  Uiso   1.00
O268   O     0.28221   0.51342   0.61823   0.00000  Uiso   1.00
O269   O     0.53193   0.10199   0.09734   0.00000  Uiso   1.00
O270   O     0.26935   0.73310   0.62371   0.00000  Uiso   1.00
N271   N     0.32405   0.39811   0.64179   0.00000  Uiso   1.00
N272   N     0.50201   0.10494   0.27058   0.00000  Uiso   1.00
N273   N     0.31490   0.84205   0.64566   0.00000  Uiso   1.00
N274   N     0.28572   0.40037   0.49599   0.00000  Uiso   1.00
N275   N     0.46367   0.10721   0.12478   0.00000  Uiso   1.00
N276   N     0.27657   0.84432   0.49986   0.00000  Uiso   1.00
C277   C     0.60869   0.11338   0.46667   0.00000  Uiso   1.00
C278   C     0.63437   0.19220   0.47146   0.00000  Uiso   1.00
C279   C     0.63449   0.25685   0.39452   0.00000  Uiso   1.00
C280   C     0.66013   0.32352   0.41375   0.00000  Uiso   1.00
C281   C     0.69624   0.44565   0.40709   0.00000  Uiso   1.00
C282   C     0.58561   0.11131   0.57467   0.00000  Uiso   1.00
C283   C     0.54473   0.10792   0.58450   0.00000  Uiso   1.00
C284   C     0.52932   0.10649   0.69061   0.00000  Uiso   1.00
C285   C     0.48972   0.10296   0.84418   0.00000  Uiso   1.00
C286   C     0.63715   0.03900   0.47104   0.00000  Uiso   1.00
C287   C     0.63961   0.97480   0.39375   0.00000  Uiso   1.00
C288   C     0.66759   0.91247   0.41262   0.00000  Uiso   1.00
C289   C     0.70803   0.79667   0.40529   0.00000  Uiso   1.00
C290   C     0.65401   0.11683   0.63762   0.00000  Uiso   1.00
C291   C     0.65898   0.19407   0.56432   0.00000  Uiso   1.00
C292   C     0.68463   0.26066   0.58366   0.00000  Uiso   1.00
C293   C     0.68479   0.32540   0.50676   0.00000  Uiso   1.00
C294   C     0.61022   0.11318   0.66752   0.00000  Uiso   1.00
C295   C     0.59487   0.11174   0.77364   0.00000  Uiso   1.00
C296   C     0.55397   0.10836   0.78363   0.00000  Uiso   1.00
C297   C     0.66177   0.04087   0.56389   0.00000  Uiso   1.00
C298   C     0.68975   0.97862   0.58289   0.00000  Uiso   1.00
C299   C     0.69225   0.91434   0.50564   0.00000  Uiso   1.00
H300   H     0.58952   0.11192   0.39438   0.00000  Uiso   1.00
H301   H     0.61543   0.25538   0.32268   0.00000  Uiso   1.00
H302   H     0.52568   0.10647   0.51263   0.00000  Uiso   1.00
H303   H     0.62055   0.97337   0.32191   0.00000  Uiso   1.00
H304   H     0.65500   0.41527   0.28415   0.00000  Uiso   1.00
H305   H     0.46576   0.10126   0.68467   0.00000  Uiso   1.00
H306   H     0.66581   0.82059   0.28249   0.00000  Uiso   1.00
H307   H     0.67318   0.11828   0.70992   0.00000  Uiso   1.00
H308   H     0.70368   0.26209   0.65553   0.00000  Uiso   1.00
H309   H     0.61393   0.11318   0.84548   0.00000  Uiso   1.00
H310   H     0.70879   0.98009   0.65475   0.00000  Uiso   1.00
H311   H     0.72662   0.42072   0.55431   0.00000  Uiso   1.00
H312   H     0.53738   0.10670   0.95483   0.00000  Uiso   1.00
H313   H     0.73743   0.82604   0.55265   0.00000  Uiso   1.00
O314   O     0.70935   0.51250   0.37778   0.00000  Uiso   1.00
O315   O     0.46108   0.10051   0.90324   0.00000  Uiso   1.00
O316   O     0.72354   0.73228   0.37559   0.00000  Uiso   1.00
N317   N     0.66768   0.39681   0.35519   0.00000  Uiso   1.00
N318   N     0.49075   0.10324   0.72965   0.00000  Uiso   1.00
N319   N     0.67777   0.84082   0.35366   0.00000  Uiso   1.00
N320   N     0.70621   0.39974   0.50055   0.00000  Uiso   1.00
N321   N     0.52929   0.10617   0.87501   0.00000  Uiso   1.00
N322   N     0.71631   0.84376   0.49903   0.00000  Uiso   1.00
C323   C     0.61632   0.88515   0.03221   0.00000  Uiso   1.00
C324   C     0.64213   0.80654   0.02679   0.00000  Uiso   1.00
C325   C     0.64247   0.74170   0.10344   0.00000  Uiso   1.00
C326   C     0.66819   0.67527   0.08364   0.00000  Uiso   1.00
C327   C     0.70452   0.55341   0.08935   0.00000  Uiso   1.00
C328   C     0.59308   0.88732   0.92448   0.00000  Uiso   1.00
C329   C     0.55218   0.89042   0.91511   0.00000  Uiso   1.00
C330   C     0.53662   0.89201   0.80918   0.00000  Uiso   1.00
C331   C     0.49680   0.89562   0.65606   0.00000  Uiso   1.00
C332   C     0.64465   0.95977   0.02786   0.00000  Uiso   1.00
C333   C     0.64711   0.02378   0.10540   0.00000  Uiso   1.00
C334   C     0.67496   0.08638   0.08650   0.00000  Uiso   1.00
C335   C     0.71521   0.20247   0.09390   0.00000  Uiso   1.00
C336   C     0.66140   0.88249   0.86075   0.00000  Uiso   1.00
C337   C     0.66661   0.80510   0.93365   0.00000  Uiso   1.00
C338   C     0.69234   0.73876   0.91373   0.00000  Uiso   1.00
C339   C     0.69272   0.67383   0.99034   0.00000  Uiso   1.00
C340   C     0.61756   0.88588   0.83135   0.00000  Uiso   1.00
C341   C     0.60206   0.88747   0.72541   0.00000  Uiso   1.00
C342   C     0.56115   0.89056   0.71588   0.00000  Uiso   1.00
C343   C     0.66914   0.95832   0.93473   0.00000  Uiso   1.00
C344   C     0.69699   0.02084   0.91570   0.00000  Uiso   1.00
C345   C     0.69949   0.08493   0.99320   0.00000  Uiso   1.00
H346   H     0.59726   0.88628   0.10472   0.00000  Uiso   1.00
H347   H     0.62351   0.74284   0.17550   0.00000  Uiso   1.00
H348   H     0.53324   0.89154   0.98720   0.00000  Uiso   1.00
H349   H     0.62815   0.02488   0.17746   0.00000  Uiso   1.00
H350   H     0.66340   0.58315   0.21288   0.00000  Uiso   1.00
H351   H     0.47306   0.89673   0.81584   0.00000  Uiso   1.00
H352   H     0.67321   0.17791   0.21705   0.00000  Uiso   1.00
H353   H     0.68047   0.88137   0.78823   0.00000  Uiso   1.00
H354   H     0.71129   0.73766   0.84165   0.00000  Uiso   1.00
H355   H     0.62102   0.88636   0.65335   0.00000  Uiso   1.00
H356   H     0.71593   0.01970   0.84362   0.00000  Uiso   1.00
H357   H     0.73465   0.57895   0.94192   0.00000  Uiso   1.00
H358   H     0.54431   0.89253   0.54488   0.00000  Uiso   1.00
H359   H     0.74445   0.17370   0.94608   0.00000  Uiso   1.00
O360   O     0.71779   0.48658   0.11823   0.00000  Uiso   1.00
O361   O     0.46807   0.89801   0.59734   0.00000  Uiso   1.00
O362   O     0.73065   0.26690   0.12371   0.00000  Uiso   1.00
N363   N     0.67595   0.60189   0.14179   0.00000  Uiso   1.00
N364   N     0.49799   0.89506   0.77058   0.00000  Uiso   1.00
N365   N     0.68510   0.15795   0.14566   0.00000  Uiso   1.00
N366   N     0.71428   0.59963   0.99599   0.00000  Uiso   1.00
N367   N     0.53633   0.89279   0.62478   0.00000  Uiso   1.00
N368   N     0.72343   0.15568   0.99986   0.00000  Uiso   1.00
