data_job_02729
_audit_creation_date              2018-12-19
_audit_creation_method            'Materials Studio'
_symmetry_space_group_name_H-M    'P1'
_symmetry_Int_Tables_number       1
_symmetry_cell_setting            triclinic
loop_
_symmetry_equiv_pos_as_xyz
  x,y,z
_cell_length_a                    15.3552
_cell_length_b                    8.2948
_cell_length_c                    24.2807
_cell_angle_alpha                 90.0000
_cell_angle_beta                  127.0081
_cell_angle_gamma                 90.0000
loop_
_atom_site_label
_atom_site_type_symbol
_atom_site_fract_x
_atom_site_fract_y
_atom_site_fract_z
_atom_site_U_iso_or_equiv
_atom_site_adp_type
_atom_site_occupancy
C1     C     0.30931   0.88768   0.09744   0.00000  Uiso   1.00
C2     C     0.32295   0.74461   0.14146   0.00000  Uiso   1.00
C3     C     0.33919   0.75380   0.20412   0.00000  Uiso   1.00
C4     C     0.34979   0.60908   0.23639   0.00000  Uiso   1.00
C5     C     0.37185   0.40951   0.30924   0.00000  Uiso   1.00
C6     C     0.39732   0.86910   0.08702   0.00000  Uiso   1.00
C7     C     0.47608   0.98297   0.10390   0.00000  Uiso   1.00
C8     C     0.54928   0.94305   0.09032   0.00000  Uiso   1.00
C9     C     0.68674   0.93681   0.07859   0.00000  Uiso   1.00
C10    C     0.20079   0.86201   0.02674   0.00000  Uiso   1.00
C11    C     0.11432   0.96994   0.99293   0.00000  Uiso   1.00
C12    C     0.02206   0.92406   0.92859   0.00000  Uiso   1.00
C13    C     0.85439   0.90681   0.82327   0.00000  Uiso   1.00
C14    C     0.29925   0.61434   0.04331   0.00000  Uiso   1.00
C15    C     0.31748   0.59615   0.11206   0.00000  Uiso   1.00
C16    C     0.32805   0.45137   0.14423   0.00000  Uiso   1.00
C17    C     0.34431   0.46034   0.20693   0.00000  Uiso   1.00
C18    C     0.39185   0.72064   0.05762   0.00000  Uiso   1.00
C19    C     0.46494   0.68055   0.04400   0.00000  Uiso   1.00
C20    C     0.54380   0.79432   0.06086   0.00000  Uiso   1.00
C21    C     0.19532   0.71354   0.99734   0.00000  Uiso   1.00
C22    C     0.10318   0.66750   0.93304   0.00000  Uiso   1.00
C23    C     0.01659   0.77533   0.89913   0.00000  Uiso   1.00
H24    H     0.31358   0.00328   0.12033   0.00000  Uiso   1.00
H25    H     0.34343   0.86872   0.22687   0.00000  Uiso   1.00
H26    H     0.48029   0.09786   0.12664   0.00000  Uiso   1.00
H27    H     0.11858   0.08482   0.01569   0.00000  Uiso   1.00
H28    H     0.37416   0.65407   0.33202   0.00000  Uiso   1.00
H29    H     0.66271   0.13725   0.12068   0.00000  Uiso   1.00
H30    H     0.89998   0.10975   0.88672   0.00000  Uiso   1.00
H31    H     0.29499   0.49875   0.02041   0.00000  Uiso   1.00
H32    H     0.32382   0.33650   0.12147   0.00000  Uiso   1.00
H33    H     0.46068   0.56564   0.02125   0.00000  Uiso   1.00
H34    H     0.09898   0.55260   0.91030   0.00000  Uiso   1.00
H35    H     0.35825   0.22209   0.24648   0.00000  Uiso   1.00
H36    H     0.64679   0.70528   0.03513   0.00000  Uiso   1.00
H37    H     0.88407   0.67778   0.80118   0.00000  Uiso   1.00
O38    O     0.38554   0.34045   0.35754   0.00000  Uiso   1.00
O39    O     0.76409   0.97438   0.08025   0.00000  Uiso   1.00
O40    O     0.76341   0.93830   0.77331   0.00000  Uiso   1.00
N41    N     0.36643   0.57467   0.29802   0.00000  Uiso   1.00
N42    N     0.63622   0.02640   0.10043   0.00000  Uiso   1.00
N43    N     0.92315   0.00071   0.88169   0.00000  Uiso   1.00
N44    N     0.35787   0.34222   0.25199   0.00000  Uiso   1.00
N45    N     0.62766   0.79396   0.05440   0.00000  Uiso   1.00
N46    N     0.91458   0.76827   0.83566   0.00000  Uiso   1.00
C47    C     0.69069   0.88768   0.40256   0.00000  Uiso   1.00
C48    C     0.67705   0.74461   0.35854   0.00000  Uiso   1.00
C49    C     0.66081   0.75380   0.29588   0.00000  Uiso   1.00
C50    C     0.65021   0.60908   0.26361   0.00000  Uiso   1.00
C51    C     0.62815   0.40951   0.19076   0.00000  Uiso   1.00
C52    C     0.60268   0.86910   0.41298   0.00000  Uiso   1.00
C53    C     0.52392   0.98297   0.39610   0.00000  Uiso   1.00
C54    C     0.45072   0.94305   0.40968   0.00000  Uiso   1.00
C55    C     0.31326   0.93681   0.42141   0.00000  Uiso   1.00
C56    C     0.79921   0.86201   0.47326   0.00000  Uiso   1.00
C57    C     0.88568   0.96994   0.50707   0.00000  Uiso   1.00
C58    C     0.97794   0.92406   0.57141   0.00000  Uiso   1.00
C59    C     0.14561   0.90681   0.67673   0.00000  Uiso   1.00
C60    C     0.70075   0.61434   0.45669   0.00000  Uiso   1.00
C61    C     0.68252   0.59615   0.38794   0.00000  Uiso   1.00
C62    C     0.67195   0.45137   0.35577   0.00000  Uiso   1.00
C63    C     0.65569   0.46034   0.29307   0.00000  Uiso   1.00
C64    C     0.60815   0.72064   0.44238   0.00000  Uiso   1.00
C65    C     0.53506   0.68055   0.45600   0.00000  Uiso   1.00
C66    C     0.45620   0.79432   0.43914   0.00000  Uiso   1.00
C67    C     0.80468   0.71354   0.50266   0.00000  Uiso   1.00
C68    C     0.89682   0.66750   0.56696   0.00000  Uiso   1.00
C69    C     0.98341   0.77533   0.60087   0.00000  Uiso   1.00
H70    H     0.68642   0.00328   0.37967   0.00000  Uiso   1.00
H71    H     0.65657   0.86872   0.27313   0.00000  Uiso   1.00
H72    H     0.51971   0.09786   0.37336   0.00000  Uiso   1.00
H73    H     0.88142   0.08482   0.48431   0.00000  Uiso   1.00
H74    H     0.62584   0.65407   0.16798   0.00000  Uiso   1.00
H75    H     0.33729   0.13725   0.37932   0.00000  Uiso   1.00
H76    H     0.10002   0.10975   0.61328   0.00000  Uiso   1.00
H77    H     0.70501   0.49875   0.47959   0.00000  Uiso   1.00
H78    H     0.67618   0.33650   0.37853   0.00000  Uiso   1.00
H79    H     0.53932   0.56564   0.47875   0.00000  Uiso   1.00
H80    H     0.90102   0.55260   0.58970   0.00000  Uiso   1.00
H81    H     0.64175   0.22209   0.25352   0.00000  Uiso   1.00
H82    H     0.35321   0.70528   0.46487   0.00000  Uiso   1.00
H83    H     0.11593   0.67778   0.69882   0.00000  Uiso   1.00
O84    O     0.61446   0.34045   0.14246   0.00000  Uiso   1.00
O85    O     0.23591   0.97438   0.41975   0.00000  Uiso   1.00
O86    O     0.23659   0.93830   0.72669   0.00000  Uiso   1.00
N87    N     0.63357   0.57467   0.20198   0.00000  Uiso   1.00
N88    N     0.36378   0.02640   0.39957   0.00000  Uiso   1.00
N89    N     0.07685   0.00071   0.61831   0.00000  Uiso   1.00
N90    N     0.64213   0.34222   0.24801   0.00000  Uiso   1.00
N91    N     0.37234   0.79396   0.44560   0.00000  Uiso   1.00
N92    N     0.08542   0.76827   0.66434   0.00000  Uiso   1.00
C93    C     0.69069   0.11232   0.90256   0.00000  Uiso   1.00
C94    C     0.67705   0.25539   0.85854   0.00000  Uiso   1.00
C95    C     0.66081   0.24620   0.79588   0.00000  Uiso   1.00
C96    C     0.65021   0.39092   0.76361   0.00000  Uiso   1.00
C97    C     0.62815   0.59049   0.69076   0.00000  Uiso   1.00
C98    C     0.60268   0.13090   0.91298   0.00000  Uiso   1.00
C99    C     0.52392   0.01703   0.89610   0.00000  Uiso   1.00
C100   C     0.45072   0.05695   0.90968   0.00000  Uiso   1.00
C101   C     0.31326   0.06319   0.92141   0.00000  Uiso   1.00
C102   C     0.79921   0.13799   0.97326   0.00000  Uiso   1.00
C103   C     0.88568   0.03006   0.00707   0.00000  Uiso   1.00
C104   C     0.97794   0.07594   0.07141   0.00000  Uiso   1.00
C105   C     0.14561   0.09319   0.17673   0.00000  Uiso   1.00
C106   C     0.70075   0.38566   0.95669   0.00000  Uiso   1.00
C107   C     0.68252   0.40385   0.88794   0.00000  Uiso   1.00
C108   C     0.67195   0.54863   0.85577   0.00000  Uiso   1.00
C109   C     0.65569   0.53966   0.79307   0.00000  Uiso   1.00
C110   C     0.60815   0.27936   0.94238   0.00000  Uiso   1.00
C111   C     0.53506   0.31945   0.95600   0.00000  Uiso   1.00
C112   C     0.45620   0.20568   0.93914   0.00000  Uiso   1.00
C113   C     0.80468   0.28646   0.00266   0.00000  Uiso   1.00
C114   C     0.89682   0.33250   0.06696   0.00000  Uiso   1.00
C115   C     0.98341   0.22467   0.10087   0.00000  Uiso   1.00
H116   H     0.68642   0.99672   0.87967   0.00000  Uiso   1.00
H117   H     0.65657   0.13128   0.77313   0.00000  Uiso   1.00
H118   H     0.51971   0.90214   0.87336   0.00000  Uiso   1.00
H119   H     0.88142   0.91518   0.98431   0.00000  Uiso   1.00
H120   H     0.62584   0.34593   0.66798   0.00000  Uiso   1.00
H121   H     0.33729   0.86275   0.87932   0.00000  Uiso   1.00
H122   H     0.10002   0.89025   0.11328   0.00000  Uiso   1.00
H123   H     0.70501   0.50125   0.97959   0.00000  Uiso   1.00
H124   H     0.67618   0.66350   0.87853   0.00000  Uiso   1.00
H125   H     0.53932   0.43436   0.97875   0.00000  Uiso   1.00
H126   H     0.90102   0.44740   0.08970   0.00000  Uiso   1.00
H127   H     0.64175   0.77791   0.75352   0.00000  Uiso   1.00
H128   H     0.35321   0.29472   0.96487   0.00000  Uiso   1.00
H129   H     0.11593   0.32222   0.19882   0.00000  Uiso   1.00
O130   O     0.61446   0.65955   0.64246   0.00000  Uiso   1.00
O131   O     0.23591   0.02562   0.91975   0.00000  Uiso   1.00
O132   O     0.23659   0.06170   0.22669   0.00000  Uiso   1.00
N133   N     0.63357   0.42533   0.70198   0.00000  Uiso   1.00
N134   N     0.36378   0.97360   0.89957   0.00000  Uiso   1.00
N135   N     0.07685   0.99929   0.11831   0.00000  Uiso   1.00
N136   N     0.64213   0.65778   0.74801   0.00000  Uiso   1.00
N137   N     0.37234   0.20604   0.94560   0.00000  Uiso   1.00
N138   N     0.08542   0.23173   0.16434   0.00000  Uiso   1.00
C139   C     0.30931   0.11232   0.59744   0.00000  Uiso   1.00
C140   C     0.32295   0.25539   0.64146   0.00000  Uiso   1.00
C141   C     0.33919   0.24620   0.70412   0.00000  Uiso   1.00
C142   C     0.34979   0.39092   0.73639   0.00000  Uiso   1.00
C143   C     0.37185   0.59049   0.80924   0.00000  Uiso   1.00
C144   C     0.39732   0.13090   0.58702   0.00000  Uiso   1.00
C145   C     0.47608   0.01703   0.60390   0.00000  Uiso   1.00
C146   C     0.54928   0.05695   0.59032   0.00000  Uiso   1.00
C147   C     0.68674   0.06319   0.57859   0.00000  Uiso   1.00
C148   C     0.20079   0.13799   0.52674   0.00000  Uiso   1.00
C149   C     0.11432   0.03006   0.49293   0.00000  Uiso   1.00
C150   C     0.02206   0.07594   0.42859   0.00000  Uiso   1.00
C151   C     0.85439   0.09319   0.32327   0.00000  Uiso   1.00
C152   C     0.29925   0.38566   0.54331   0.00000  Uiso   1.00
C153   C     0.31748   0.40385   0.61206   0.00000  Uiso   1.00
C154   C     0.32805   0.54863   0.64423   0.00000  Uiso   1.00
C155   C     0.34431   0.53966   0.70693   0.00000  Uiso   1.00
C156   C     0.39185   0.27936   0.55762   0.00000  Uiso   1.00
C157   C     0.46494   0.31945   0.54400   0.00000  Uiso   1.00
C158   C     0.54380   0.20568   0.56086   0.00000  Uiso   1.00
C159   C     0.19532   0.28646   0.49734   0.00000  Uiso   1.00
C160   C     0.10318   0.33250   0.43304   0.00000  Uiso   1.00
C161   C     0.01659   0.22467   0.39913   0.00000  Uiso   1.00
H162   H     0.31358   0.99672   0.62033   0.00000  Uiso   1.00
H163   H     0.34343   0.13128   0.72687   0.00000  Uiso   1.00
H164   H     0.48029   0.90214   0.62664   0.00000  Uiso   1.00
H165   H     0.11858   0.91518   0.51569   0.00000  Uiso   1.00
H166   H     0.37416   0.34593   0.83202   0.00000  Uiso   1.00
H167   H     0.66271   0.86275   0.62068   0.00000  Uiso   1.00
H168   H     0.89998   0.89025   0.38672   0.00000  Uiso   1.00
H169   H     0.29499   0.50125   0.52041   0.00000  Uiso   1.00
H170   H     0.32382   0.66350   0.62147   0.00000  Uiso   1.00
H171   H     0.46068   0.43436   0.52125   0.00000  Uiso   1.00
H172   H     0.09898   0.44740   0.41030   0.00000  Uiso   1.00
H173   H     0.35825   0.77791   0.74648   0.00000  Uiso   1.00
H174   H     0.64679   0.29472   0.53513   0.00000  Uiso   1.00
H175   H     0.88407   0.32222   0.30118   0.00000  Uiso   1.00
O176   O     0.38554   0.65955   0.85754   0.00000  Uiso   1.00
O177   O     0.76409   0.02562   0.58025   0.00000  Uiso   1.00
O178   O     0.76341   0.06170   0.27331   0.00000  Uiso   1.00
N179   N     0.36643   0.42533   0.79802   0.00000  Uiso   1.00
N180   N     0.63622   0.97360   0.60043   0.00000  Uiso   1.00
N181   N     0.92315   0.99929   0.38169   0.00000  Uiso   1.00
N182   N     0.35787   0.65778   0.75199   0.00000  Uiso   1.00
N183   N     0.62766   0.20604   0.55440   0.00000  Uiso   1.00
N184   N     0.91458   0.23173   0.33566   0.00000  Uiso   1.00
