data_job_06944
_audit_creation_date              2018-12-19
_audit_creation_method            'Materials Studio'
_symmetry_space_group_name_H-M    'P1'
_symmetry_Int_Tables_number       1
_symmetry_cell_setting            triclinic
loop_
_symmetry_equiv_pos_as_xyz
  x,y,z
_cell_length_a                    21.2556
_cell_length_b                    19.8539
_cell_length_c                    23.4204
_cell_angle_alpha                 110.3240
_cell_angle_beta                  95.2951
_cell_angle_gamma                 93.8522
loop_
_atom_site_label
_atom_site_type_symbol
_atom_site_fract_x
_atom_site_fract_y
_atom_site_fract_z
_atom_site_U_iso_or_equiv
_atom_site_adp_type
_atom_site_occupancy
C1     C     0.11649   0.62011   0.41907   0.00000  Uiso   1.00
C2     C     0.15789   0.60256   0.36704   0.00000  Uiso   1.00
C3     C     0.21868   0.63493   0.37018   0.00000  Uiso   1.00
C4     C     0.24866   0.61133   0.31758   0.00000  Uiso   1.00
C5     C     0.31748   0.59231   0.24495   0.00000  Uiso   1.00
C6     C     0.05469   0.64062   0.39422   0.00000  Uiso   1.00
C7     C     0.02869   0.70500   0.42023   0.00000  Uiso   1.00
C8     C     0.97179   0.71343   0.39052   0.00000  Uiso   1.00
C9     C     0.88035   0.75349   0.36013   0.00000  Uiso   1.00
C10    C     0.09930   0.54898   0.42810   0.00000  Uiso   1.00
C11    C     0.11080   0.53630   0.48260   0.00000  Uiso   1.00
C12    C     0.09145   0.46758   0.48142   0.00000  Uiso   1.00
C13    C     0.06928   0.36535   0.50363   0.00000  Uiso   1.00
C14    C     0.06165   0.52061   0.32006   0.00000  Uiso   1.00
C15    C     0.12811   0.54851   0.31326   0.00000  Uiso   1.00
C16    C     0.15801   0.52485   0.26064   0.00000  Uiso   1.00
C17    C     0.21883   0.55718   0.26370   0.00000  Uiso   1.00
C18    C     0.02490   0.58658   0.34045   0.00000  Uiso   1.00
C19    C     0.96802   0.59491   0.31069   0.00000  Uiso   1.00
C20    C     0.94195   0.65928   0.33665   0.00000  Uiso   1.00
C21    C     0.06952   0.49493   0.37433   0.00000  Uiso   1.00
C22    C     0.05014   0.42622   0.37306   0.00000  Uiso   1.00
C23    C     0.06161   0.41344   0.42755   0.00000  Uiso   1.00
H24    H     0.13967   0.66219   0.46094   0.00000  Uiso   1.00
H25    H     0.24171   0.67676   0.41180   0.00000  Uiso   1.00
H26    H     0.05175   0.74681   0.46185   0.00000  Uiso   1.00
H27    H     0.13385   0.57814   0.52421   0.00000  Uiso   1.00
H28    H     0.34169   0.66910   0.33360   0.00000  Uiso   1.00
H29    H     0.94114   0.81679   0.43915   0.00000  Uiso   1.00
H30    H     0.11427   0.46112   0.57064   0.00000  Uiso   1.00
H31    H     0.03846   0.47853   0.27820   0.00000  Uiso   1.00
H32    H     0.13495   0.48302   0.21903   0.00000  Uiso   1.00
H33    H     0.94499   0.55307   0.26908   0.00000  Uiso   1.00
H34    H     0.02709   0.38441   0.33144   0.00000  Uiso   1.00
H35    H     0.25504   0.51186   0.17714   0.00000  Uiso   1.00
H36    H     0.85448   0.65955   0.28269   0.00000  Uiso   1.00
H37    H     0.02762   0.30388   0.41418   0.00000  Uiso   1.00
O38    O     0.36366   0.59676   0.21974   0.00000  Uiso   1.00
O39    O     0.83814   0.79052   0.35822   0.00000  Uiso   1.00
O40    O     0.06529   0.32389   0.53074   0.00000  Uiso   1.00
N41    N     0.30806   0.63147   0.30490   0.00000  Uiso   1.00
N42    N     0.93358   0.76955   0.40358   0.00000  Uiso   1.00
N43    N     0.09542   0.43704   0.52652   0.00000  Uiso   1.00
N44    N     0.26144   0.54685   0.22071   0.00000  Uiso   1.00
N45    N     0.88695   0.68494   0.31938   0.00000  Uiso   1.00
N46    N     0.04879   0.35243   0.44233   0.00000  Uiso   1.00
C47    C     0.38055   0.19459   0.72243   0.00000  Uiso   1.00
C48    C     0.36204   0.26635   0.76443   0.00000  Uiso   1.00
C49    C     0.40383   0.32662   0.79887   0.00000  Uiso   1.00
C50    C     0.37749   0.38704   0.83440   0.00000  Uiso   1.00
C51    C     0.35876   0.49844   0.89949   0.00000  Uiso   1.00
C52    C     0.35217   0.13705   0.74481   0.00000  Uiso   1.00
C53    C     0.38566   0.08860   0.76275   0.00000  Uiso   1.00
C54    C     0.35101   0.04018   0.78176   0.00000  Uiso   1.00
C55    C     0.31694   0.95081   0.81635   0.00000  Uiso   1.00
C56    C     0.34447   0.18046   0.65933   0.00000  Uiso   1.00
C57    C     0.37148   0.16848   0.60538   0.00000  Uiso   1.00
C58    C     0.33034   0.15658   0.55241   0.00000  Uiso   1.00
C59    C     0.28432   0.13460   0.45426   0.00000  Uiso   1.00
C60    C     0.25946   0.19473   0.72428   0.00000  Uiso   1.00
C61    C     0.29627   0.26642   0.76544   0.00000  Uiso   1.00
C62    C     0.26986   0.32677   0.80092   0.00000  Uiso   1.00
C63    C     0.31161   0.38711   0.83541   0.00000  Uiso   1.00
C64    C     0.28640   0.13713   0.74582   0.00000  Uiso   1.00
C65    C     0.25169   0.08876   0.76480   0.00000  Uiso   1.00
C66    C     0.28512   0.04025   0.78277   0.00000  Uiso   1.00
C67    C     0.27870   0.18053   0.66033   0.00000  Uiso   1.00
C68    C     0.23751   0.16864   0.60743   0.00000  Uiso   1.00
C69    C     0.26446   0.15665   0.55341   0.00000  Uiso   1.00
H70    H     0.43175   0.19453   0.72165   0.00000  Uiso   1.00
H71    H     0.45473   0.32653   0.79809   0.00000  Uiso   1.00
H72    H     0.43655   0.08855   0.76197   0.00000  Uiso   1.00
H73    H     0.42238   0.16843   0.60462   0.00000  Uiso   1.00
H74    H     0.45119   0.47291   0.88329   0.00000  Uiso   1.00
H75    H     0.41287   0.97110   0.80711   0.00000  Uiso   1.00
H76    H     0.38298   0.13953   0.47531   0.00000  Uiso   1.00
H77    H     0.20826   0.19478   0.72506   0.00000  Uiso   1.00
H78    H     0.21896   0.32681   0.80169   0.00000  Uiso   1.00
H79    H     0.20079   0.08883   0.76557   0.00000  Uiso   1.00
H80    H     0.18662   0.16870   0.60822   0.00000  Uiso   1.00
H81    H     0.25984   0.47314   0.88622   0.00000  Uiso   1.00
H82    H     0.22152   0.97132   0.81003   0.00000  Uiso   1.00
H83    H     0.19163   0.13975   0.47824   0.00000  Uiso   1.00
O84    O     0.36659   0.55986   0.93511   0.00000  Uiso   1.00
O85    O     0.31632   0.90150   0.83515   0.00000  Uiso   1.00
O86    O     0.27710   0.12247   0.39985   0.00000  Uiso   1.00
N87    N     0.40469   0.45485   0.87345   0.00000  Uiso   1.00
N88    N     0.36886   0.98570   0.80224   0.00000  Uiso   1.00
N89    N     0.34091   0.14314   0.49203   0.00000  Uiso   1.00
N90    N     0.30172   0.45497   0.87503   0.00000  Uiso   1.00
N91    N     0.26589   0.98582   0.80381   0.00000  Uiso   1.00
N92    N     0.23795   0.14326   0.49361   0.00000  Uiso   1.00
C93    C     0.55606   0.50666   0.05378   0.00000  Uiso   1.00
C94    C     0.57500   0.48053   0.10632   0.00000  Uiso   1.00
C95    C     0.62579   0.51079   0.15205   0.00000  Uiso   1.00
C96    C     0.63521   0.47899   0.19598   0.00000  Uiso   1.00
C97    C     0.67072   0.44750   0.27781   0.00000  Uiso   1.00
C98    C     0.55578   0.44176   0.99489   0.00000  Uiso   1.00
C99    C     0.59040   0.43945   0.94693   0.00000  Uiso   1.00
C100   C     0.58362   0.37501   0.89706   0.00000  Uiso   1.00
C101   C     0.58926   0.28336   0.80588   0.00000  Uiso   1.00
C102   C     0.48698   0.52210   0.05787   0.00000  Uiso   1.00
C103   C     0.46374   0.58732   0.06284   0.00000  Uiso   1.00
C104   C     0.39904   0.59051   0.06598   0.00000  Uiso   1.00
C105   C     0.29785   0.62359   0.07257   0.00000  Uiso   1.00
C106   C     0.48248   0.39636   0.05048   0.00000  Uiso   1.00
C107   C     0.53504   0.42061   0.10452   0.00000  Uiso   1.00
C108   C     0.54438   0.38876   0.14840   0.00000  Uiso   1.00
C109   C     0.59517   0.41897   0.19419   0.00000  Uiso   1.00
C110   C     0.51582   0.38185   0.99310   0.00000  Uiso   1.00
C111   C     0.50899   0.31741   0.94328   0.00000  Uiso   1.00
C112   C     0.54359   0.31499   0.89526   0.00000  Uiso   1.00
C113   C     0.44701   0.46219   0.05607   0.00000  Uiso   1.00
C114   C     0.38233   0.46528   0.05919   0.00000  Uiso   1.00
C115   C     0.35900   0.53049   0.06418   0.00000  Uiso   1.00
H116   H     0.58718   0.55330   0.05517   0.00000  Uiso   1.00
H117   H     0.65671   0.55716   0.15342   0.00000  Uiso   1.00
H118   H     0.62132   0.48582   0.94833   0.00000  Uiso   1.00
H119   H     0.49468   0.63367   0.06423   0.00000  Uiso   1.00
H120   H     0.71619   0.53499   0.26154   0.00000  Uiso   1.00
H121   H     0.64154   0.38458   0.82910   0.00000  Uiso   1.00
H122   H     0.37451   0.69635   0.07348   0.00000  Uiso   1.00
H123   H     0.45136   0.34971   0.04908   0.00000  Uiso   1.00
H124   H     0.51345   0.34240   0.14700   0.00000  Uiso   1.00
H125   H     0.47805   0.27106   0.94191   0.00000  Uiso   1.00
H126   H     0.35142   0.41891   0.05780   0.00000  Uiso   1.00
H127   H     0.59991   0.36068   0.25632   0.00000  Uiso   1.00
H128   H     0.52526   0.21028   0.82388   0.00000  Uiso   1.00
H129   H     0.25823   0.52204   0.06826   0.00000  Uiso   1.00
O130   O     0.70136   0.44668   0.32344   0.00000  Uiso   1.00
O131   O     0.60341   0.24936   0.75609   0.00000  Uiso   1.00
O132   O     0.25307   0.65839   0.07672   0.00000  Uiso   1.00
N133   N     0.68030   0.49498   0.24688   0.00000  Uiso   1.00
N134   N     0.61051   0.35436   0.84258   0.00000  Uiso   1.00
N135   N     0.36086   0.64583   0.07104   0.00000  Uiso   1.00
N136   N     0.61773   0.40119   0.24408   0.00000  Uiso   1.00
N137   N     0.54795   0.26056   0.83977   0.00000  Uiso   1.00
N138   N     0.29829   0.55203   0.06823   0.00000  Uiso   1.00
C139   C     0.56549   0.92948   0.18136   0.00000  Uiso   1.00
C140   C     0.62866   0.92538   0.21595   0.00000  Uiso   1.00
C141   C     0.66847   0.98383   0.25682   0.00000  Uiso   1.00
C142   C     0.72413   0.96877   0.28375   0.00000  Uiso   1.00
C143   C     0.81988   0.97320   0.33955   0.00000  Uiso   1.00
C144   C     0.51597   0.88215   0.19762   0.00000  Uiso   1.00
C145   C     0.46105   0.90425   0.22305   0.00000  Uiso   1.00
C146   C     0.42185   0.85280   0.23454   0.00000  Uiso   1.00
C147   C     0.34263   0.79011   0.26182   0.00000  Uiso   1.00
C148   C     0.57106   0.89136   0.11348   0.00000  Uiso   1.00
C149   C     0.56244   0.92119   0.06816   0.00000  Uiso   1.00
C150   C     0.56961   0.87748   0.00880   0.00000  Uiso   1.00
C151   C     0.57592   0.82908   0.90544   0.00000  Uiso   1.00
C152   C     0.59354   0.79881   0.15651   0.00000  Uiso   1.00
C153   C     0.64389   0.85440   0.20246   0.00000  Uiso   1.00
C154   C     0.69950   0.83926   0.22933   0.00000  Uiso   1.00
C155   C     0.73940   0.89767   0.27023   0.00000  Uiso   1.00
C156   C     0.53121   0.81118   0.18412   0.00000  Uiso   1.00
C157   C     0.49208   0.75968   0.19557   0.00000  Uiso   1.00
C158   C     0.43711   0.78170   0.22102   0.00000  Uiso   1.00
C159   C     0.58630   0.82038   0.09998   0.00000  Uiso   1.00
C160   C     0.59347   0.77662   0.04068   0.00000  Uiso   1.00
C161   C     0.58487   0.80638   0.99528   0.00000  Uiso   1.00
H162   H     0.55363   0.98473   0.19186   0.00000  Uiso   1.00
H163   H     0.65666   0.03875   0.26726   0.00000  Uiso   1.00
H164   H     0.44927   0.95918   0.23349   0.00000  Uiso   1.00
H165   H     0.55065   0.97611   0.07862   0.00000  Uiso   1.00
H166   H     0.77760   0.06733   0.34491   0.00000  Uiso   1.00
H167   H     0.34029   0.89955   0.27369   0.00000  Uiso   1.00
H168   H     0.55407   0.93526   0.94712   0.00000  Uiso   1.00
H169   H     0.60540   0.74355   0.14600   0.00000  Uiso   1.00
H170   H     0.71128   0.78433   0.21888   0.00000  Uiso   1.00
H171   H     0.50388   0.70476   0.18511   0.00000  Uiso   1.00
H172   H     0.60526   0.72170   0.03025   0.00000  Uiso   1.00
H173   H     0.82193   0.86083   0.30565   0.00000  Uiso   1.00
H174   H     0.38461   0.69305   0.23442   0.00000  Uiso   1.00
H175   H     0.59840   0.72877   0.90786   0.00000  Uiso   1.00
O176   O     0.86847   0.99525   0.37406   0.00000  Uiso   1.00
O177   O     0.29473   0.77514   0.28061   0.00000  Uiso   1.00
O178   O     0.57521   0.82199   0.85217   0.00000  Uiso   1.00
N179   N     0.77351   0.01313   0.32566   0.00000  Uiso   1.00
N180   N     0.36465   0.85628   0.25908   0.00000  Uiso   1.00
N181   N     0.56450   0.88966   0.95376   0.00000  Uiso   1.00
N182   N     0.79736   0.90202   0.30453   0.00000  Uiso   1.00
N183   N     0.38851   0.74516   0.23795   0.00000  Uiso   1.00
N184   N     0.58836   0.77854   0.93264   0.00000  Uiso   1.00
C185   C     0.85601   0.22534   0.52708   0.00000  Uiso   1.00
C186   C     0.81387   0.25174   0.57800   0.00000  Uiso   1.00
C187   C     0.82823   0.31283   0.63063   0.00000  Uiso   1.00
C188   C     0.78341   0.32776   0.67165   0.00000  Uiso   1.00
C189   C     0.72665   0.37555   0.75242   0.00000  Uiso   1.00
C190   C     0.81582   0.22002   0.46797   0.00000  Uiso   1.00
C191   C     0.83184   0.25443   0.42808   0.00000  Uiso   1.00
C192   C     0.78867   0.24266   0.37647   0.00000  Uiso   1.00
C193   C     0.73496   0.24116   0.28638   0.00000  Uiso   1.00
C194   C     0.86629   0.14801   0.52106   0.00000  Uiso   1.00
C195   C     0.92473   0.12187   0.52579   0.00000  Uiso   1.00
C196   C     0.92405   0.04947   0.51887   0.00000  Uiso   1.00
C197   C     0.94870   0.93617   0.51121   0.00000  Uiso   1.00
C198   C     0.75087   0.14324   0.50634   0.00000  Uiso   1.00
C199   C     0.75676   0.20714   0.56673   0.00000  Uiso   1.00
C200   C     0.71191   0.22198   0.60769   0.00000  Uiso   1.00
C201   C     0.72620   0.28308   0.66038   0.00000  Uiso   1.00
C202   C     0.75872   0.17542   0.45670   0.00000  Uiso   1.00
C203   C     0.71552   0.16359   0.40514   0.00000  Uiso   1.00
C204   C     0.73146   0.19798   0.36519   0.00000  Uiso   1.00
C205   C     0.80918   0.10341   0.50980   0.00000  Uiso   1.00
C206   C     0.80841   0.03103   0.50286   0.00000  Uiso   1.00
C207   C     0.86684   0.00479   0.50758   0.00000  Uiso   1.00
H208   H     0.90047   0.26006   0.53584   0.00000  Uiso   1.00
H209   H     0.87243   0.34733   0.63933   0.00000  Uiso   1.00
H210   H     0.87603   0.28893   0.43680   0.00000  Uiso   1.00
H211   H     0.96891   0.15640   0.53451   0.00000  Uiso   1.00
H212   H     0.81614   0.42443   0.74908   0.00000  Uiso   1.00
H213   H     0.82376   0.30128   0.32204   0.00000  Uiso   1.00
H214   H     0.01962   0.02180   0.52806   0.00000  Uiso   1.00
H215   H     0.70641   0.10851   0.49757   0.00000  Uiso   1.00
H216   H     0.66772   0.18746   0.59896   0.00000  Uiso   1.00
H217   H     0.67133   0.12907   0.39644   0.00000  Uiso   1.00
H218   H     0.76421   0.99653   0.49414   0.00000  Uiso   1.00
H219   H     0.64999   0.29468   0.71632   0.00000  Uiso   1.00
H220   H     0.65762   0.17152   0.28927   0.00000  Uiso   1.00
H221   H     0.85347   0.89205   0.49530   0.00000  Uiso   1.00
O222   O     0.71111   0.41423   0.80008   0.00000  Uiso   1.00
O223   O     0.72111   0.25266   0.23981   0.00000  Uiso   1.00
O224   O     0.97807   0.88599   0.51011   0.00000  Uiso   1.00
N225   N     0.78236   0.38305   0.72746   0.00000  Uiso   1.00
N226   N     0.78947   0.26792   0.32821   0.00000  Uiso   1.00
N227   N     0.97258   0.00663   0.52081   0.00000  Uiso   1.00
N228   N     0.69295   0.31323   0.70983   0.00000  Uiso   1.00
N229   N     0.70007   0.19810   0.31058   0.00000  Uiso   1.00
N230   N     0.88318   0.93681   0.50318   0.00000  Uiso   1.00
C231   C     0.98461   0.78142   0.91321   0.00000  Uiso   1.00
C232   C     0.01204   0.83347   0.88468   0.00000  Uiso   1.00
C233   C     0.03293   0.90599   0.91570   0.00000  Uiso   1.00
C234   C     0.05644   0.94443   0.88137   0.00000  Uiso   1.00
C235   C     0.09867   0.03027   0.84666   0.00000  Uiso   1.00
C236   C     0.02561   0.71884   0.89819   0.00000  Uiso   1.00
C237   C     0.05791   0.69497   0.94058   0.00000  Uiso   1.00
C238   C     0.09284   0.63689   0.91762   0.00000  Uiso   1.00
C239   C     0.15612   0.54472   0.90389   0.00000  Uiso   1.00
C240   C     0.91933   0.75034   0.87718   0.00000  Uiso   1.00
C241   C     0.86227   0.75293   0.90190   0.00000  Uiso   1.00
C242   C     0.80772   0.72136   0.86125   0.00000  Uiso   1.00
C243   C     0.70598   0.67810   0.81489   0.00000  Uiso   1.00
C244   C     0.98920   0.72072   0.79708   0.00000  Uiso   1.00
C245   C     0.01453   0.80050   0.82160   0.00000  Uiso   1.00
C246   C     0.03801   0.83884   0.78721   0.00000  Uiso   1.00
C247   C     0.05893   0.91140   0.81817   0.00000  Uiso   1.00
C248   C     0.02811   0.68587   0.83512   0.00000  Uiso   1.00
C249   C     0.06299   0.62781   0.81209   0.00000  Uiso   1.00
C250   C     0.09534   0.60386   0.85443   0.00000  Uiso   1.00
C251   C     0.92182   0.71737   0.81410   0.00000  Uiso   1.00
C252   C     0.86735   0.68578   0.77340   0.00000  Uiso   1.00
C253   C     0.81022   0.68833   0.79805   0.00000  Uiso   1.00
H254   H     0.98267   0.80708   0.96232   0.00000  Uiso   1.00
H255   H     0.03100   0.93148   0.96452   0.00000  Uiso   1.00
H256   H     0.05597   0.72049   0.98939   0.00000  Uiso   1.00
H257   H     0.86036   0.77845   0.95071   0.00000  Uiso   1.00
H258   H     0.08570   0.05487   0.93914   0.00000  Uiso   1.00
H259   H     0.13834   0.60995   0.99158   0.00000  Uiso   1.00
H260   H     0.72585   0.73217   0.91002   0.00000  Uiso   1.00
H261   H     0.99114   0.69505   0.74796   0.00000  Uiso   1.00
H262   H     0.03993   0.81331   0.73840   0.00000  Uiso   1.00
H263   H     0.06491   0.60231   0.76327   0.00000  Uiso   1.00
H264   H     0.86929   0.66028   0.72459   0.00000  Uiso   1.00
H265   H     0.09295   0.95895   0.75561   0.00000  Uiso   1.00
H266   H     0.14559   0.51403   0.80805   0.00000  Uiso   1.00
H267   H     0.73311   0.63626   0.72649   0.00000  Uiso   1.00
O268   O     0.12129   0.08672   0.84495   0.00000  Uiso   1.00
O269   O     0.19034   0.50300   0.91375   0.00000  Uiso   1.00
O270   O     0.64917   0.66335   0.80675   0.00000  Uiso   1.00
N271   N     0.08070   0.01607   0.89725   0.00000  Uiso   1.00
N272   N     0.12992   0.60010   0.94629   0.00000  Uiso   1.00
N273   N     0.74428   0.71435   0.87004   0.00000  Uiso   1.00
N274   N     0.08460   0.96446   0.79850   0.00000  Uiso   1.00
N275   N     0.13382   0.54849   0.84753   0.00000  Uiso   1.00
N276   N     0.74819   0.66274   0.77128   0.00000  Uiso   1.00
C277   C     0.83001   0.45637   0.53123   0.00000  Uiso   1.00
C278   C     0.76711   0.42727   0.54484   0.00000  Uiso   1.00
C279   C     0.72776   0.36720   0.50577   0.00000  Uiso   1.00
C280   C     0.67228   0.34936   0.52670   0.00000  Uiso   1.00
C281   C     0.57700   0.29795   0.53903   0.00000  Uiso   1.00
C282   C     0.87969   0.45841   0.58329   0.00000  Uiso   1.00
C283   C     0.93499   0.42453   0.57653   0.00000  Uiso   1.00
C284   C     0.97428   0.43291   0.62983   0.00000  Uiso   1.00
C285   C     0.05379   0.42989   0.70185   0.00000  Uiso   1.00
C286   C     0.82365   0.53493   0.53866   0.00000  Uiso   1.00
C287   C     0.83186   0.56539   0.49439   0.00000  Uiso   1.00
C288   C     0.82399   0.63821   0.51013   0.00000  Uiso   1.00
C289   C     0.81650   0.75399   0.51286   0.00000  Uiso   1.00
C290   C     0.80145   0.53152   0.63789   0.00000  Uiso   1.00
C291   C     0.75160   0.46809   0.60278   0.00000  Uiso   1.00
C292   C     0.69616   0.45034   0.62378   0.00000  Uiso   1.00
C293   C     0.65674   0.39026   0.58474   0.00000  Uiso   1.00
C294   C     0.86417   0.49922   0.64122   0.00000  Uiso   1.00
C295   C     0.90339   0.50767   0.69454   0.00000  Uiso   1.00
C296   C     0.95874   0.47381   0.68787   0.00000  Uiso   1.00
C297   C     0.80814   0.57575   0.59660   0.00000  Uiso   1.00
C298   C     0.80026   0.64854   0.61240   0.00000  Uiso   1.00
C299   C     0.80845   0.67910   0.56817   0.00000  Uiso   1.00
H300   H     0.84209   0.42459   0.48613   0.00000  Uiso   1.00
H301   H     0.73979   0.33562   0.46094   0.00000  Uiso   1.00
H302   H     0.94699   0.39295   0.53169   0.00000  Uiso   1.00
H303   H     0.84387   0.53379   0.44957   0.00000  Uiso   1.00
H304   H     0.61954   0.25496   0.45857   0.00000  Uiso   1.00
H305   H     0.05644   0.37586   0.60776   0.00000  Uiso   1.00
H306   H     0.83900   0.67286   0.43458   0.00000  Uiso   1.00
H307   H     0.78937   0.56330   0.68300   0.00000  Uiso   1.00
H308   H     0.68417   0.48194   0.66861   0.00000  Uiso   1.00
H309   H     0.89137   0.53927   0.73937   0.00000  Uiso   1.00
H310   H     0.78825   0.68011   0.65724   0.00000  Uiso   1.00
H311   H     0.57440   0.37372   0.62712   0.00000  Uiso   1.00
H312   H     0.01131   0.49462   0.77631   0.00000  Uiso   1.00
H313   H     0.79386   0.79161   0.60314   0.00000  Uiso   1.00
O314   O     0.52873   0.25830   0.52984   0.00000  Uiso   1.00
O315   O     0.10193   0.41693   0.72556   0.00000  Uiso   1.00
O316   O     0.81665   0.80657   0.49836   0.00000  Uiso   1.00
N317   N     0.62335   0.29409   0.50021   0.00000  Uiso   1.00
N318   N     0.03182   0.40711   0.63969   0.00000  Uiso   1.00
N319   N     0.82854   0.68478   0.47779   0.00000  Uiso   1.00
N320   N     0.59906   0.35799   0.59090   0.00000  Uiso   1.00
N321   N     0.00753   0.47101   0.73039   0.00000  Uiso   1.00
N322   N     0.80425   0.74868   0.56849   0.00000  Uiso   1.00
C323   C     0.49319   0.87957   0.45289   0.00000  Uiso   1.00
C324   C     0.55140   0.84465   0.42769   0.00000  Uiso   1.00
C325   C     0.55117   0.77498   0.38603   0.00000  Uiso   1.00
C326   C     0.60939   0.75314   0.36865   0.00000  Uiso   1.00
C327   C     0.69119   0.69190   0.32593   0.00000  Uiso   1.00
C328   C     0.49244   0.94848   0.43805   0.00000  Uiso   1.00
C329   C     0.44263   0.96613   0.40509   0.00000  Uiso   1.00
C330   C     0.45122   0.03170   0.39644   0.00000  Uiso   1.00
C331   C     0.44146   0.13169   0.36984   0.00000  Uiso   1.00
C332   C     0.50688   0.90389   0.52254   0.00000  Uiso   1.00
C333   C     0.46920   0.88406   0.56063   0.00000  Uiso   1.00
C334   C     0.48994   0.91211   0.62312   0.00000  Uiso   1.00
C335   C     0.50261   0.94286   0.72770   0.00000  Uiso   1.00
C336   C     0.59701   0.96467   0.49611   0.00000  Uiso   1.00
C337   C     0.60779   0.89087   0.45117   0.00000  Uiso   1.00
C338   C     0.66603   0.86913   0.43385   0.00000  Uiso   1.00
C339   C     0.66588   0.79945   0.39217   0.00000  Uiso   1.00
C340   C     0.54883   0.99471   0.46152   0.00000  Uiso   1.00
C341   C     0.55749   0.06028   0.45292   0.00000  Uiso   1.00
C342   C     0.50771   0.07801   0.41996   0.00000  Uiso   1.00
C343   C     0.56327   0.95011   0.54602   0.00000  Uiso   1.00
C344   C     0.58407   0.97821   0.60846   0.00000  Uiso   1.00
C345   C     0.54643   0.95841   0.64664   0.00000  Uiso   1.00
H346   H     0.44929   0.84359   0.43460   0.00000  Uiso   1.00
H347   H     0.50752   0.73923   0.36786   0.00000  Uiso   1.00
H348   H     0.39899   0.93035   0.38693   0.00000  Uiso   1.00
H349   H     0.42557   0.84829   0.54244   0.00000  Uiso   1.00
H350   H     0.59693   0.64393   0.30420   0.00000  Uiso   1.00
H351   H     0.36810   0.04692   0.34443   0.00000  Uiso   1.00
H352   H     0.42414   0.87388   0.67236   0.00000  Uiso   1.00
H353   H     0.64092   0.00066   0.51440   0.00000  Uiso   1.00
H354   H     0.70966   0.90492   0.45203   0.00000  Uiso   1.00
H355   H     0.60113   0.09603   0.47110   0.00000  Uiso   1.00
H356   H     0.62771   0.01397   0.62661   0.00000  Uiso   1.00
H357   H     0.76100   0.77840   0.37252   0.00000  Uiso   1.00
H358   H     0.53216   0.18140   0.41275   0.00000  Uiso   1.00
H359   H     0.58820   0.00836   0.74067   0.00000  Uiso   1.00
O360   O     0.72073   0.64536   0.29588   0.00000  Uiso   1.00
O361   O     0.42050   0.17407   0.34867   0.00000  Uiso   1.00
O362   O     0.49402   0.94705   0.77890   0.00000  Uiso   1.00
N363   N     0.62612   0.68871   0.32885   0.00000  Uiso   1.00
N364   N     0.41217   0.06548   0.36645   0.00000  Uiso   1.00
N365   N     0.46455   0.90372   0.67304   0.00000  Uiso   1.00
N366   N     0.71440   0.76107   0.36561   0.00000  Uiso   1.00
N367   N     0.50046   0.13784   0.40321   0.00000  Uiso   1.00
N368   N     0.55284   0.97608   0.70980   0.00000  Uiso   1.00
C369   C     0.31030   0.63109   0.80234   0.00000  Uiso   1.00
C370   C     0.29243   0.67287   0.76059   0.00000  Uiso   1.00
C371   C     0.23655   0.65951   0.72096   0.00000  Uiso   1.00
C372   C     0.22916   0.70378   0.68667   0.00000  Uiso   1.00
C373   C     0.19427   0.76021   0.62108   0.00000  Uiso   1.00
C374   C     0.32366   0.68696   0.86719   0.00000  Uiso   1.00
C375   C     0.29404   0.68545   0.91718   0.00000  Uiso   1.00
C376   C     0.31294   0.74158   0.97263   0.00000  Uiso   1.00
C377   C     0.32656   0.81986   0.07254   0.00000  Uiso   1.00
C378   C     0.37392   0.60360   0.78582   0.00000  Uiso   1.00
C379   C     0.38657   0.53200   0.76740   0.00000  Uiso   1.00
C380   C     0.44779   0.51794   0.75435   0.00000  Uiso   1.00
C381   C     0.53945   0.46679   0.72791   0.00000  Uiso   1.00
C382   C     0.39655   0.73345   0.81192   0.00000  Uiso   1.00
C383   C     0.33927   0.72847   0.76580   0.00000  Uiso   1.00
C384   C     0.33197   0.77276   0.73156   0.00000  Uiso   1.00
C385   C     0.27608   0.75947   0.69188   0.00000  Uiso   1.00
C386   C     0.37050   0.74256   0.87239   0.00000  Uiso   1.00
C387   C     0.38945   0.79870   0.92778   0.00000  Uiso   1.00
C388   C     0.35987   0.79728   0.97784   0.00000  Uiso   1.00
C389   C     0.42076   0.65920   0.79102   0.00000  Uiso   1.00
C390   C     0.48198   0.64525   0.77799   0.00000  Uiso   1.00
C391   C     0.49472   0.57364   0.75956   0.00000  Uiso   1.00
H392   H     0.27384   0.58781   0.79830   0.00000  Uiso   1.00
H393   H     0.20031   0.61648   0.71695   0.00000  Uiso   1.00
H394   H     0.25779   0.64241   0.91315   0.00000  Uiso   1.00
H395   H     0.35031   0.48899   0.76338   0.00000  Uiso   1.00
H396   H     0.13944   0.67281   0.62908   0.00000  Uiso   1.00
H397   H     0.26066   0.72748   0.04276   0.00000  Uiso   1.00
H398   H     0.45575   0.40394   0.72696   0.00000  Uiso   1.00
H399   H     0.43302   0.77674   0.81597   0.00000  Uiso   1.00
H400   H     0.36822   0.81578   0.73559   0.00000  Uiso   1.00
H401   H     0.42571   0.84171   0.93179   0.00000  Uiso   1.00
H402   H     0.51822   0.68829   0.78202   0.00000  Uiso   1.00
H403   H     0.27572   0.83457   0.64421   0.00000  Uiso   1.00
H404   H     0.39695   0.88923   0.05790   0.00000  Uiso   1.00
H405   H     0.59203   0.56570   0.74209   0.00000  Uiso   1.00
O406   O     0.16208   0.77598   0.58346   0.00000  Uiso   1.00
O407   O     0.32113   0.84769   0.12620   0.00000  Uiso   1.00
O408   O     0.57707   0.42322   0.71188   0.00000  Uiso   1.00
N409   N     0.18041   0.70551   0.64366   0.00000  Uiso   1.00
N410   N     0.29374   0.75663   0.03043   0.00000  Uiso   1.00
N411   N     0.47613   0.45415   0.73520   0.00000  Uiso   1.00
N412   N     0.25374   0.79256   0.65180   0.00000  Uiso   1.00
N413   N     0.36707   0.84367   0.03857   0.00000  Uiso   1.00
N414   N     0.54947   0.54119   0.74334   0.00000  Uiso   1.00
C415   C     0.34717   0.07239   0.99350   0.00000  Uiso   1.00
C416   C     0.31242   0.13598   0.99033   0.00000  Uiso   1.00
C417   C     0.25897   0.13176   0.94995   0.00000  Uiso   1.00
C418   C     0.23426   0.19611   0.95435   0.00000  Uiso   1.00
C419   C     0.17610   0.28480   0.94284   0.00000  Uiso   1.00
C420   C     0.41596   0.08998   0.98538   0.00000  Uiso   1.00
C421   C     0.44957   0.04707   0.94084   0.00000  Uiso   1.00
C422   C     0.51204   0.07270   0.94108   0.00000  Uiso   1.00
C423   C     0.61465   0.08994   0.92190   0.00000  Uiso   1.00
C424   C     0.34819   0.07467   0.05933   0.00000  Uiso   1.00
C425   C     0.32483   0.01888   0.07698   0.00000  Uiso   1.00
C426   C     0.33025   0.03162   0.13949   0.00000  Uiso   1.00
C427   C     0.32763   0.02509   0.23514   0.00000  Uiso   1.00
C428   C     0.39834   0.19419   0.07311   0.00000  Uiso   1.00
C429   C     0.34022   0.20214   0.03357   0.00000  Uiso   1.00
C430   C     0.31559   0.26652   0.03803   0.00000  Uiso   1.00
C431   C     0.26211   0.26239   0.99767   0.00000  Uiso   1.00
C432   C     0.44376   0.15613   0.02862   0.00000  Uiso   1.00
C433   C     0.50619   0.18183   0.02892   0.00000  Uiso   1.00
C434   C     0.53989   0.13897   0.98439   0.00000  Uiso   1.00
C435   C     0.37599   0.14083   0.10258   0.00000  Uiso   1.00
C436   C     0.38145   0.15364   0.16506   0.00000  Uiso   1.00
C437   C     0.35810   0.09789   0.18280   0.00000  Uiso   1.00
H438   H     0.32553   0.02088   0.95983   0.00000  Uiso   1.00
H439   H     0.23747   0.08055   0.91649   0.00000  Uiso   1.00
H440   H     0.42805   0.99587   0.90739   0.00000  Uiso   1.00
H441   H     0.30333   0.96770   0.04351   0.00000  Uiso   1.00
H442   H     0.15212   0.17589   0.88750   0.00000  Uiso   1.00
H443   H     0.55397   0.99733   0.86831   0.00000  Uiso   1.00
H444   H     0.29096   0.93790   0.15535   0.00000  Uiso   1.00
H445   H     0.41999   0.24569   0.10677   0.00000  Uiso   1.00
H446   H     0.33711   0.31770   0.07150   0.00000  Uiso   1.00
H447   H     0.52769   0.23302   0.06239   0.00000  Uiso   1.00
H448   H     0.40296   0.20485   0.19851   0.00000  Uiso   1.00
H449   H     0.23299   0.36837   0.01331   0.00000  Uiso   1.00
H450   H     0.63484   0.18980   0.99412   0.00000  Uiso   1.00
H451   H     0.37183   0.13039   0.28116   0.00000  Uiso   1.00
O452   O     0.13634   0.31544   0.92453   0.00000  Uiso   1.00
O453   O     0.66356   0.08117   0.89937   0.00000  Uiso   1.00
O454   O     0.31850   0.00322   0.27595   0.00000  Uiso   1.00
N455   N     0.18252   0.21130   0.92196   0.00000  Uiso   1.00
N456   N     0.55822   0.04436   0.90401   0.00000  Uiso   1.00
N457   N     0.31235   0.98880   0.17237   0.00000  Uiso   1.00
N458   N     0.22603   0.31488   0.98965   0.00000  Uiso   1.00
N459   N     0.60174   0.14794   0.97171   0.00000  Uiso   1.00
N460   N     0.35586   0.09238   0.24006   0.00000  Uiso   1.00
C461   C     0.08309   0.88366   0.36543   0.00000  Uiso   1.00
C462   C     0.10006   0.83940   0.30232   0.00000  Uiso   1.00
C463   C     0.06752   0.77466   0.26267   0.00000  Uiso   1.00
C464   C     0.09059   0.74256   0.20704   0.00000  Uiso   1.00
C465   C     0.10880   0.66902   0.11140   0.00000  Uiso   1.00
C466   C     0.14233   0.89263   0.41050   0.00000  Uiso   1.00
C467   C     0.14532   0.87265   0.46181   0.00000  Uiso   1.00
C468   C     0.20397   0.88536   0.49725   0.00000  Uiso   1.00
C469   C     0.28778   0.89451   0.56958   0.00000  Uiso   1.00
C470   C     0.07462   0.95877   0.36407   0.00000  Uiso   1.00
C471   C     0.02068   0.99440   0.37635   0.00000  Uiso   1.00
C472   C     0.02233   0.06281   0.37271   0.00000  Uiso   1.00
C473   C     0.00101   0.17464   0.37295   0.00000  Uiso   1.00
C474   C     0.18193   0.94178   0.33712   0.00000  Uiso   1.00
C475   C     0.15375   0.87098   0.28695   0.00000  Uiso   1.00
C476   C     0.17687   0.83897   0.23136   0.00000  Uiso   1.00
C477   C     0.14437   0.77419   0.19163   0.00000  Uiso   1.00
C478   C     0.19601   0.92420   0.39513   0.00000  Uiso   1.00
C479   C     0.25467   0.93696   0.43050   0.00000  Uiso   1.00
C480   C     0.25775   0.91699   0.48185   0.00000  Uiso   1.00
C481   C     0.12830   0.99034   0.34869   0.00000  Uiso   1.00
C482   C     0.13004   0.05871   0.34503   0.00000  Uiso   1.00
C483   C     0.07612   0.09444   0.35731   0.00000  Uiso   1.00
H484   H     0.04130   0.85908   0.37740   0.00000  Uiso   1.00
H485   H     0.02598   0.75024   0.27459   0.00000  Uiso   1.00
H486   H     0.10376   0.84822   0.47370   0.00000  Uiso   1.00
H487   H     0.97915   0.96995   0.38825   0.00000  Uiso   1.00
H488   H     0.03269   0.64348   0.15384   0.00000  Uiso   1.00
H489   H     0.19670   0.85010   0.57368   0.00000  Uiso   1.00
H490   H     0.93392   0.10680   0.39349   0.00000  Uiso   1.00
H491   H     0.22373   0.96637   0.32516   0.00000  Uiso   1.00
H492   H     0.21842   0.86341   0.21947   0.00000  Uiso   1.00
H493   H     0.29621   0.96139   0.41859   0.00000  Uiso   1.00
H494   H     0.17159   0.08312   0.33313   0.00000  Uiso   1.00
H495   H     0.18888   0.73533   0.10910   0.00000  Uiso   1.00
H496   H     0.35289   0.94196   0.52895   0.00000  Uiso   1.00
H497   H     0.09011   0.19866   0.34876   0.00000  Uiso   1.00
O498   O     0.10401   0.61973   0.06290   0.00000  Uiso   1.00
O499   O     0.31918   0.89083   0.61373   0.00000  Uiso   1.00
O500   O     0.97442   0.22761   0.37732   0.00000  Uiso   1.00
N501   N     0.07017   0.67923   0.15781   0.00000  Uiso   1.00
N502   N     0.22351   0.87241   0.55033   0.00000  Uiso   1.00
N503   N     0.97784   0.11240   0.38189   0.00000  Uiso   1.00
N504   N     0.15421   0.72866   0.13374   0.00000  Uiso   1.00
N505   N     0.30755   0.92183   0.52626   0.00000  Uiso   1.00
N506   N     0.06189   0.16183   0.35782   0.00000  Uiso   1.00
C507   C     0.85488   0.37614   0.98085   0.00000  Uiso   1.00
C508   C     0.82368   0.33573   0.01738   0.00000  Uiso   1.00
C509   C     0.79760   0.26412   0.99433   0.00000  Uiso   1.00
C510   C     0.77129   0.23716   0.03516   0.00000  Uiso   1.00
C511   C     0.72284   0.16786   0.08249   0.00000  Uiso   1.00
C512   C     0.81913   0.44223   0.98866   0.00000  Uiso   1.00
C513   C     0.78925   0.46015   0.94146   0.00000  Uiso   1.00
C514   C     0.75911   0.52285   0.95811   0.00000  Uiso   1.00
C515   C     0.70364   0.61891   0.96086   0.00000  Uiso   1.00
C516   C     0.92158   0.40493   0.01429   0.00000  Uiso   1.00
C517   C     0.97784   0.39151   0.98864   0.00000  Uiso   1.00
C518   C     0.03396   0.42281   0.02687   0.00000  Uiso   1.00
C519   C     0.13756   0.46096   0.06941   0.00000  Uiso   1.00
C520   C     0.85451   0.45562   0.09435   0.00000  Uiso   1.00
C521   C     0.82348   0.37890   0.07902   0.00000  Uiso   1.00
C522   C     0.79720   0.35205   0.11990   0.00000  Uiso   1.00
C523   C     0.77109   0.28040   0.09692   0.00000  Uiso   1.00
C524   C     0.81893   0.48539   0.05030   0.00000  Uiso   1.00
C525   C     0.78884   0.54808   0.06703   0.00000  Uiso   1.00
C526   C     0.75891   0.56609   0.01987   0.00000  Uiso   1.00
C527   C     0.92138   0.44809   0.07594   0.00000  Uiso   1.00
C528   C     0.97743   0.47943   0.11421   0.00000  Uiso   1.00
C529   C     0.03376   0.46606   0.08863   0.00000  Uiso   1.00
H530   H     0.85503   0.34253   0.93285   0.00000  Uiso   1.00
H531   H     0.79776   0.23073   0.94662   0.00000  Uiso   1.00
H532   H     0.78941   0.42674   0.89376   0.00000  Uiso   1.00
H533   H     0.97797   0.35810   0.94093   0.00000  Uiso   1.00
H534   H     0.73416   0.12582   0.98906   0.00000  Uiso   1.00
H535   H     0.71657   0.53912   0.87760   0.00000  Uiso   1.00
H536   H     0.11419   0.39439   0.97707   0.00000  Uiso   1.00
H537   H     0.85436   0.48923   0.14234   0.00000  Uiso   1.00
H538   H     0.79705   0.38547   0.16760   0.00000  Uiso   1.00
H539   H     0.78870   0.58148   0.11474   0.00000  Uiso   1.00
H540   H     0.97726   0.51284   0.16192   0.00000  Uiso   1.00
H541   H     0.73357   0.25141   0.16842   0.00000  Uiso   1.00
H542   H     0.71599   0.66472   0.05696   0.00000  Uiso   1.00
H543   H     0.11361   0.51998   0.15644   0.00000  Uiso   1.00
O544   O     0.69616   0.11772   0.09157   0.00000  Uiso   1.00
O545   O     0.67310   0.65996   0.94534   0.00000  Uiso   1.00
O546   O     0.19476   0.47007   0.07585   0.00000  Uiso   1.00
N547   N     0.74190   0.16961   0.02781   0.00000  Uiso   1.00
N548   N     0.72544   0.55602   0.92360   0.00000  Uiso   1.00
N549   N     0.09719   0.42072   0.01660   0.00000  Uiso   1.00
N550   N     0.74158   0.23719   0.12432   0.00000  Uiso   1.00
N551   N     0.72513   0.62360   0.02011   0.00000  Uiso   1.00
N552   N     0.09687   0.48830   0.11311   0.00000  Uiso   1.00
