data_job_01377
_audit_creation_date              2018-12-19
_audit_creation_method            'Materials Studio'
_symmetry_space_group_name_H-M    'P1'
_symmetry_Int_Tables_number       1
_symmetry_cell_setting            triclinic
loop_
_symmetry_equiv_pos_as_xyz
  x,y,z
_cell_length_a                    12.9466
_cell_length_b                    16.9549
_cell_length_c                    20.6558
_cell_angle_alpha                 90.0000
_cell_angle_beta                  135.1737
_cell_angle_gamma                 90.0000
loop_
_atom_site_label
_atom_site_type_symbol
_atom_site_fract_x
_atom_site_fract_y
_atom_site_fract_z
_atom_site_U_iso_or_equiv
_atom_site_adp_type
_atom_site_occupancy
C1     C     0.79829   0.34514   0.59092   0.00000  Uiso   1.00
C2     C     0.93592   0.30750   0.62386   0.00000  Uiso   1.00
C3     C     0.94719   0.23084   0.60587   0.00000  Uiso   1.00
C4     C     0.08264   0.20758   0.64217   0.00000  Uiso   1.00
C5     C     0.27814   0.14126   0.68538   0.00000  Uiso   1.00
C6     C     0.84040   0.37406   0.67702   0.00000  Uiso   1.00
C7     C     0.77133   0.35337   0.70372   0.00000  Uiso   1.00
C8     C     0.82636   0.38616   0.78478   0.00000  Uiso   1.00
C9     C     0.87349   0.42323   0.91049   0.00000  Uiso   1.00
C10    C     0.76969   0.41899   0.53800   0.00000  Uiso   1.00
C11    C     0.64115   0.43608   0.44782   0.00000  Uiso   1.00
C12    C     0.63664   0.50670   0.41184   0.00000  Uiso   1.00
C13    C     0.57398   0.61352   0.32170   0.00000  Uiso   1.00
C14    C     0.01881   0.44017   0.68739   0.00000  Uiso   1.00
C15    C     0.05569   0.35912   0.67626   0.00000  Uiso   1.00
C16    C     0.19116   0.33597   0.71260   0.00000  Uiso   1.00
C17    C     0.20263   0.25929   0.69466   0.00000  Uiso   1.00
C18    C     0.96017   0.42568   0.72942   0.00000  Uiso   1.00
C19    C     0.01531   0.45851   0.81045   0.00000  Uiso   1.00
C20    C     0.94636   0.43787   0.83727   0.00000  Uiso   1.00
C21    C     0.88946   0.47060   0.59040   0.00000  Uiso   1.00
C22    C     0.88514   0.54121   0.55455   0.00000  Uiso   1.00
C23    C     0.75663   0.55841   0.46433   0.00000  Uiso   1.00
H24    H     0.70504   0.30496   0.55013   0.00000  Uiso   1.00
H25    H     0.85447   0.19091   0.56532   0.00000  Uiso   1.00
H26    H     0.67864   0.31343   0.66315   0.00000  Uiso   1.00
H27    H     0.54849   0.39612   0.40729   0.00000  Uiso   1.00
H28    H     0.07298   0.08721   0.60530   0.00000  Uiso   1.00
H29    H     0.70219   0.34558   0.81156   0.00000  Uiso   1.00
H30    H     0.42774   0.51995   0.27203   0.00000  Uiso   1.00
H31    H     0.11206   0.48036   0.72819   0.00000  Uiso   1.00
H32    H     0.28383   0.37593   0.75315   0.00000  Uiso   1.00
H33    H     0.10800   0.49845   0.85098   0.00000  Uiso   1.00
H34    H     0.97785   0.58114   0.59512   0.00000  Uiso   1.00
H35    H     0.42147   0.23738   0.75775   0.00000  Uiso   1.00
H36    H     0.05067   0.49575   0.96402   0.00000  Uiso   1.00
H37    H     0.77623   0.67012   0.42448   0.00000  Uiso   1.00
O38    O     0.35288   0.09042   0.69475   0.00000  Uiso   1.00
O39    O     0.86640   0.42941   0.96536   0.00000  Uiso   1.00
O40    O     0.50634   0.65818   0.25750   0.00000  Uiso   1.00
N41    N     0.13141   0.13689   0.63773   0.00000  Uiso   1.00
N42    N     0.78476   0.37844   0.83059   0.00000  Uiso   1.00
N43    N     0.52816   0.54147   0.32618   0.00000  Uiso   1.00
N44    N     0.31893   0.21769   0.71977   0.00000  Uiso   1.00
N45    N     0.97228   0.45925   0.91262   0.00000  Uiso   1.00
N46    N     0.71568   0.62228   0.40821   0.00000  Uiso   1.00
C47    C     0.20171   0.84514   0.90908   0.00000  Uiso   1.00
C48    C     0.06408   0.80750   0.87614   0.00000  Uiso   1.00
C49    C     0.05281   0.73084   0.89413   0.00000  Uiso   1.00
C50    C     0.91736   0.70758   0.85783   0.00000  Uiso   1.00
C51    C     0.72186   0.64126   0.81462   0.00000  Uiso   1.00
C52    C     0.15960   0.87406   0.82298   0.00000  Uiso   1.00
C53    C     0.22867   0.85337   0.79628   0.00000  Uiso   1.00
C54    C     0.17364   0.88616   0.71522   0.00000  Uiso   1.00
C55    C     0.12651   0.92323   0.58951   0.00000  Uiso   1.00
C56    C     0.23031   0.91899   0.96200   0.00000  Uiso   1.00
C57    C     0.35885   0.93608   0.05218   0.00000  Uiso   1.00
C58    C     0.36336   0.00670   0.08816   0.00000  Uiso   1.00
C59    C     0.42602   0.11352   0.17830   0.00000  Uiso   1.00
C60    C     0.98119   0.94017   0.81261   0.00000  Uiso   1.00
C61    C     0.94431   0.85912   0.82374   0.00000  Uiso   1.00
C62    C     0.80884   0.83597   0.78740   0.00000  Uiso   1.00
C63    C     0.79737   0.75929   0.80534   0.00000  Uiso   1.00
C64    C     0.03983   0.92568   0.77058   0.00000  Uiso   1.00
C65    C     0.98469   0.95851   0.68955   0.00000  Uiso   1.00
C66    C     0.05364   0.93787   0.66273   0.00000  Uiso   1.00
C67    C     0.11054   0.97060   0.90960   0.00000  Uiso   1.00
C68    C     0.11486   0.04121   0.94545   0.00000  Uiso   1.00
C69    C     0.24337   0.05841   0.03567   0.00000  Uiso   1.00
H70    H     0.29496   0.80496   0.94987   0.00000  Uiso   1.00
H71    H     0.14553   0.69091   0.93468   0.00000  Uiso   1.00
H72    H     0.32136   0.81343   0.83685   0.00000  Uiso   1.00
H73    H     0.45151   0.89612   0.09271   0.00000  Uiso   1.00
H74    H     0.92702   0.58721   0.89470   0.00000  Uiso   1.00
H75    H     0.29781   0.84558   0.68844   0.00000  Uiso   1.00
H76    H     0.57226   0.01995   0.22797   0.00000  Uiso   1.00
H77    H     0.88794   0.98036   0.77181   0.00000  Uiso   1.00
H78    H     0.71617   0.87593   0.74685   0.00000  Uiso   1.00
H79    H     0.89200   0.99845   0.64902   0.00000  Uiso   1.00
H80    H     0.02215   0.08114   0.90488   0.00000  Uiso   1.00
H81    H     0.57853   0.73738   0.74225   0.00000  Uiso   1.00
H82    H     0.94933   0.99575   0.53598   0.00000  Uiso   1.00
H83    H     0.22377   0.17012   0.07552   0.00000  Uiso   1.00
O84    O     0.64712   0.59042   0.80525   0.00000  Uiso   1.00
O85    O     0.13360   0.92941   0.53464   0.00000  Uiso   1.00
O86    O     0.49366   0.15818   0.24250   0.00000  Uiso   1.00
N87    N     0.86859   0.63689   0.86227   0.00000  Uiso   1.00
N88    N     0.21524   0.87844   0.66941   0.00000  Uiso   1.00
N89    N     0.47184   0.04147   0.17382   0.00000  Uiso   1.00
N90    N     0.68107   0.71769   0.78023   0.00000  Uiso   1.00
N91    N     0.02772   0.95925   0.58738   0.00000  Uiso   1.00
N92    N     0.28432   0.12228   0.09179   0.00000  Uiso   1.00
C93    C     0.20171   0.65486   0.40908   0.00000  Uiso   1.00
C94    C     0.06408   0.69250   0.37614   0.00000  Uiso   1.00
C95    C     0.05281   0.76916   0.39413   0.00000  Uiso   1.00
C96    C     0.91736   0.79242   0.35783   0.00000  Uiso   1.00
C97    C     0.72186   0.85874   0.31462   0.00000  Uiso   1.00
C98    C     0.15960   0.62594   0.32298   0.00000  Uiso   1.00
C99    C     0.22867   0.64663   0.29628   0.00000  Uiso   1.00
C100   C     0.17364   0.61384   0.21522   0.00000  Uiso   1.00
C101   C     0.12651   0.57677   0.08951   0.00000  Uiso   1.00
C102   C     0.23031   0.58101   0.46200   0.00000  Uiso   1.00
C103   C     0.35885   0.56392   0.55218   0.00000  Uiso   1.00
C104   C     0.36336   0.49330   0.58816   0.00000  Uiso   1.00
C105   C     0.42602   0.38648   0.67830   0.00000  Uiso   1.00
C106   C     0.98119   0.55983   0.31261   0.00000  Uiso   1.00
C107   C     0.94431   0.64088   0.32374   0.00000  Uiso   1.00
C108   C     0.80884   0.66403   0.28740   0.00000  Uiso   1.00
C109   C     0.79737   0.74071   0.30534   0.00000  Uiso   1.00
C110   C     0.03983   0.57432   0.27058   0.00000  Uiso   1.00
C111   C     0.98469   0.54149   0.18955   0.00000  Uiso   1.00
C112   C     0.05364   0.56213   0.16273   0.00000  Uiso   1.00
C113   C     0.11054   0.52940   0.40960   0.00000  Uiso   1.00
C114   C     0.11486   0.45879   0.44545   0.00000  Uiso   1.00
C115   C     0.24337   0.44159   0.53567   0.00000  Uiso   1.00
H116   H     0.29496   0.69504   0.44987   0.00000  Uiso   1.00
H117   H     0.14553   0.80909   0.43468   0.00000  Uiso   1.00
H118   H     0.32136   0.68657   0.33685   0.00000  Uiso   1.00
H119   H     0.45151   0.60388   0.59271   0.00000  Uiso   1.00
H120   H     0.92702   0.91279   0.39470   0.00000  Uiso   1.00
H121   H     0.29781   0.65442   0.18844   0.00000  Uiso   1.00
H122   H     0.57226   0.48005   0.72797   0.00000  Uiso   1.00
H123   H     0.88794   0.51964   0.27181   0.00000  Uiso   1.00
H124   H     0.71617   0.62407   0.24685   0.00000  Uiso   1.00
H125   H     0.89200   0.50155   0.14902   0.00000  Uiso   1.00
H126   H     0.02215   0.41886   0.40488   0.00000  Uiso   1.00
H127   H     0.57853   0.76262   0.24225   0.00000  Uiso   1.00
H128   H     0.94933   0.50425   0.03598   0.00000  Uiso   1.00
H129   H     0.22377   0.32988   0.57552   0.00000  Uiso   1.00
O130   O     0.64712   0.90958   0.30525   0.00000  Uiso   1.00
O131   O     0.13360   0.57059   0.03464   0.00000  Uiso   1.00
O132   O     0.49366   0.34182   0.74250   0.00000  Uiso   1.00
N133   N     0.86859   0.86311   0.36227   0.00000  Uiso   1.00
N134   N     0.21524   0.62156   0.16941   0.00000  Uiso   1.00
N135   N     0.47184   0.45853   0.67382   0.00000  Uiso   1.00
N136   N     0.68107   0.78231   0.28023   0.00000  Uiso   1.00
N137   N     0.02772   0.54075   0.08738   0.00000  Uiso   1.00
N138   N     0.28432   0.37772   0.59179   0.00000  Uiso   1.00
C139   C     0.79829   0.15486   0.09092   0.00000  Uiso   1.00
C140   C     0.93592   0.19250   0.12386   0.00000  Uiso   1.00
C141   C     0.94719   0.26916   0.10587   0.00000  Uiso   1.00
C142   C     0.08264   0.29242   0.14217   0.00000  Uiso   1.00
C143   C     0.27814   0.35874   0.18538   0.00000  Uiso   1.00
C144   C     0.84040   0.12594   0.17702   0.00000  Uiso   1.00
C145   C     0.77133   0.14663   0.20372   0.00000  Uiso   1.00
C146   C     0.82636   0.11384   0.28478   0.00000  Uiso   1.00
C147   C     0.87349   0.07677   0.41049   0.00000  Uiso   1.00
C148   C     0.76969   0.08101   0.03800   0.00000  Uiso   1.00
C149   C     0.64115   0.06392   0.94782   0.00000  Uiso   1.00
C150   C     0.63664   0.99330   0.91184   0.00000  Uiso   1.00
C151   C     0.57398   0.88648   0.82170   0.00000  Uiso   1.00
C152   C     0.01881   0.05983   0.18739   0.00000  Uiso   1.00
C153   C     0.05569   0.14088   0.17626   0.00000  Uiso   1.00
C154   C     0.19116   0.16403   0.21260   0.00000  Uiso   1.00
C155   C     0.20263   0.24071   0.19466   0.00000  Uiso   1.00
C156   C     0.96017   0.07432   0.22942   0.00000  Uiso   1.00
C157   C     0.01531   0.04149   0.31045   0.00000  Uiso   1.00
C158   C     0.94636   0.06213   0.33727   0.00000  Uiso   1.00
C159   C     0.88946   0.02940   0.09040   0.00000  Uiso   1.00
C160   C     0.88514   0.95879   0.05455   0.00000  Uiso   1.00
C161   C     0.75663   0.94159   0.96433   0.00000  Uiso   1.00
H162   H     0.70504   0.19504   0.05013   0.00000  Uiso   1.00
H163   H     0.85447   0.30909   0.06532   0.00000  Uiso   1.00
H164   H     0.67864   0.18657   0.16315   0.00000  Uiso   1.00
H165   H     0.54849   0.10388   0.90729   0.00000  Uiso   1.00
H166   H     0.07298   0.41279   0.10530   0.00000  Uiso   1.00
H167   H     0.70219   0.15442   0.31156   0.00000  Uiso   1.00
H168   H     0.42774   0.98005   0.77203   0.00000  Uiso   1.00
H169   H     0.11206   0.01964   0.22819   0.00000  Uiso   1.00
H170   H     0.28383   0.12407   0.25315   0.00000  Uiso   1.00
H171   H     0.10800   0.00155   0.35098   0.00000  Uiso   1.00
H172   H     0.97785   0.91886   0.09512   0.00000  Uiso   1.00
H173   H     0.42147   0.26262   0.25775   0.00000  Uiso   1.00
H174   H     0.05067   0.00425   0.46402   0.00000  Uiso   1.00
H175   H     0.77623   0.82988   0.92448   0.00000  Uiso   1.00
O176   O     0.35288   0.40958   0.19475   0.00000  Uiso   1.00
O177   O     0.86640   0.07059   0.46536   0.00000  Uiso   1.00
O178   O     0.50634   0.84182   0.75750   0.00000  Uiso   1.00
N179   N     0.13141   0.36311   0.13773   0.00000  Uiso   1.00
N180   N     0.78476   0.12156   0.33059   0.00000  Uiso   1.00
N181   N     0.52816   0.95853   0.82618   0.00000  Uiso   1.00
N182   N     0.31893   0.28231   0.21977   0.00000  Uiso   1.00
N183   N     0.97228   0.04075   0.41262   0.00000  Uiso   1.00
N184   N     0.71568   0.87772   0.90821   0.00000  Uiso   1.00
