data_job_00628
_audit_creation_date              2018-12-19
_audit_creation_method            'Materials Studio'
_symmetry_space_group_name_H-M    'P1'
_symmetry_Int_Tables_number       1
_symmetry_cell_setting            triclinic
loop_
_symmetry_equiv_pos_as_xyz
  x,y,z
_cell_length_a                    30.4264
_cell_length_b                    12.3196
_cell_length_c                    13.2892
_cell_angle_alpha                 90.0000
_cell_angle_beta                  90.0000
_cell_angle_gamma                 90.0000
loop_
_atom_site_label
_atom_site_type_symbol
_atom_site_fract_x
_atom_site_fract_y
_atom_site_fract_z
_atom_site_U_iso_or_equiv
_atom_site_adp_type
_atom_site_occupancy
C1     C     0.63803   0.31632   0.48326   0.00000  Uiso   1.00
C2     C     0.65638   0.24025   0.56345   0.00000  Uiso   1.00
C3     C     0.68140   0.14807   0.54556   0.00000  Uiso   1.00
C4     C     0.69504   0.08930   0.62906   0.00000  Uiso   1.00
C5     C     0.72518   0.96623   0.73868   0.00000  Uiso   1.00
C6     C     0.58852   0.32041   0.50062   0.00000  Uiso   1.00
C7     C     0.55649   0.29565   0.42990   0.00000  Uiso   1.00
C8     C     0.51300   0.30438   0.46051   0.00000  Uiso   1.00
C9     C     0.43779   0.30584   0.47258   0.00000  Uiso   1.00
C10    C     0.65530   0.42912   0.50914   0.00000  Uiso   1.00
C11    C     0.67941   0.49577   0.44557   0.00000  Uiso   1.00
C12    C     0.69215   0.59603   0.48335   0.00000  Uiso   1.00
C13    C     0.72063   0.76627   0.50863   0.00000  Uiso   1.00
C14    C     0.61776   0.37588   0.66337   0.00000  Uiso   1.00
C15    C     0.64536   0.27260   0.66127   0.00000  Uiso   1.00
C16    C     0.65897   0.21396   0.74482   0.00000  Uiso   1.00
C17    C     0.68401   0.12171   0.72706   0.00000  Uiso   1.00
C18    C     0.57750   0.35276   0.59844   0.00000  Uiso   1.00
C19    C     0.53405   0.36154   0.62917   0.00000  Uiso   1.00
C20    C     0.50197   0.33679   0.55851   0.00000  Uiso   1.00
C21    C     0.64429   0.46147   0.60697   0.00000  Uiso   1.00
C22    C     0.65698   0.56166   0.64484   0.00000  Uiso   1.00
C23    C     0.68111   0.62844   0.58135   0.00000  Uiso   1.00
H24    H     0.64660   0.29114   0.40710   0.00000  Uiso   1.00
H25    H     0.68991   0.12306   0.46984   0.00000  Uiso   1.00
H26    H     0.56502   0.27063   0.35420   0.00000  Uiso   1.00
H27    H     0.68793   0.47070   0.36987   0.00000  Uiso   1.00
H28    H     0.73306   0.95095   0.58254   0.00000  Uiso   1.00
H29    H     0.46972   0.26214   0.33870   0.00000  Uiso   1.00
H30    H     0.72889   0.68405   0.37174   0.00000  Uiso   1.00
H31    H     0.60918   0.40107   0.73953   0.00000  Uiso   1.00
H32    H     0.65044   0.23902   0.82052   0.00000  Uiso   1.00
H33    H     0.52554   0.38658   0.70487   0.00000  Uiso   1.00
H34    H     0.64845   0.58666   0.72055   0.00000  Uiso   1.00
H35    H     0.70102   0.04506   0.86716   0.00000  Uiso   1.00
H36    H     0.43767   0.35626   0.62331   0.00000  Uiso   1.00
H37    H     0.69685   0.77817   0.65636   0.00000  Uiso   1.00
O38    O     0.74484   0.88940   0.77212   0.00000  Uiso   1.00
O39    O     0.39935   0.29769   0.45221   0.00000  Uiso   1.00
O40    O     0.73938   0.85122   0.49556   0.00000  Uiso   1.00
N41    N     0.71987   0.99535   0.63841   0.00000  Uiso   1.00
N42    N     0.47365   0.28628   0.41044   0.00000  Uiso   1.00
N43    N     0.71595   0.68074   0.44132   0.00000  Uiso   1.00
N44    N     0.70262   0.04599   0.79156   0.00000  Uiso   1.00
N45    N     0.45641   0.33692   0.56359   0.00000  Uiso   1.00
N46    N     0.69871   0.73139   0.59448   0.00000  Uiso   1.00
C47    C     0.13803   0.81632   0.98326   0.00000  Uiso   1.00
C48    C     0.15638   0.74025   0.06345   0.00000  Uiso   1.00
C49    C     0.18140   0.64807   0.04556   0.00000  Uiso   1.00
C50    C     0.19504   0.58930   0.12906   0.00000  Uiso   1.00
C51    C     0.22518   0.46623   0.23868   0.00000  Uiso   1.00
C52    C     0.08852   0.82041   0.00062   0.00000  Uiso   1.00
C53    C     0.05649   0.79565   0.92990   0.00000  Uiso   1.00
C54    C     0.01300   0.80438   0.96051   0.00000  Uiso   1.00
C55    C     0.93779   0.80584   0.97258   0.00000  Uiso   1.00
C56    C     0.15530   0.92912   0.00914   0.00000  Uiso   1.00
C57    C     0.17941   0.99577   0.94557   0.00000  Uiso   1.00
C58    C     0.19215   0.09603   0.98335   0.00000  Uiso   1.00
C59    C     0.22063   0.26627   0.00863   0.00000  Uiso   1.00
C60    C     0.11776   0.87588   0.16337   0.00000  Uiso   1.00
C61    C     0.14536   0.77260   0.16127   0.00000  Uiso   1.00
C62    C     0.15897   0.71396   0.24482   0.00000  Uiso   1.00
C63    C     0.18401   0.62171   0.22706   0.00000  Uiso   1.00
C64    C     0.07750   0.85276   0.09844   0.00000  Uiso   1.00
C65    C     0.03405   0.86154   0.12917   0.00000  Uiso   1.00
C66    C     0.00197   0.83679   0.05851   0.00000  Uiso   1.00
C67    C     0.14429   0.96147   0.10697   0.00000  Uiso   1.00
C68    C     0.15698   0.06166   0.14484   0.00000  Uiso   1.00
C69    C     0.18111   0.12844   0.08135   0.00000  Uiso   1.00
H70    H     0.14660   0.79114   0.90710   0.00000  Uiso   1.00
H71    H     0.18991   0.62306   0.96984   0.00000  Uiso   1.00
H72    H     0.06502   0.77063   0.85420   0.00000  Uiso   1.00
H73    H     0.18793   0.97070   0.86987   0.00000  Uiso   1.00
H74    H     0.23306   0.45095   0.08254   0.00000  Uiso   1.00
H75    H     0.96972   0.76214   0.83870   0.00000  Uiso   1.00
H76    H     0.22889   0.18405   0.87174   0.00000  Uiso   1.00
H77    H     0.10918   0.90107   0.23953   0.00000  Uiso   1.00
H78    H     0.15044   0.73902   0.32052   0.00000  Uiso   1.00
H79    H     0.02554   0.88658   0.20487   0.00000  Uiso   1.00
H80    H     0.14845   0.08666   0.22055   0.00000  Uiso   1.00
H81    H     0.20102   0.54506   0.36716   0.00000  Uiso   1.00
H82    H     0.93767   0.85626   0.12331   0.00000  Uiso   1.00
H83    H     0.19685   0.27817   0.15636   0.00000  Uiso   1.00
O84    O     0.24484   0.38940   0.27212   0.00000  Uiso   1.00
O85    O     0.89935   0.79769   0.95221   0.00000  Uiso   1.00
O86    O     0.23938   0.35122   0.99556   0.00000  Uiso   1.00
N87    N     0.21987   0.49535   0.13841   0.00000  Uiso   1.00
N88    N     0.97365   0.78628   0.91044   0.00000  Uiso   1.00
N89    N     0.21595   0.18074   0.94132   0.00000  Uiso   1.00
N90    N     0.20262   0.54599   0.29156   0.00000  Uiso   1.00
N91    N     0.95641   0.83692   0.06359   0.00000  Uiso   1.00
N92    N     0.19871   0.23139   0.09448   0.00000  Uiso   1.00
C93    C     0.36197   0.68368   0.48326   0.00000  Uiso   1.00
C94    C     0.34362   0.75975   0.56345   0.00000  Uiso   1.00
C95    C     0.31860   0.85193   0.54556   0.00000  Uiso   1.00
C96    C     0.30496   0.91070   0.62906   0.00000  Uiso   1.00
C97    C     0.27482   0.03377   0.73868   0.00000  Uiso   1.00
C98    C     0.41148   0.67959   0.50062   0.00000  Uiso   1.00
C99    C     0.44351   0.70435   0.42990   0.00000  Uiso   1.00
C100   C     0.48700   0.69562   0.46051   0.00000  Uiso   1.00
C101   C     0.56221   0.69416   0.47258   0.00000  Uiso   1.00
C102   C     0.34470   0.57088   0.50914   0.00000  Uiso   1.00
C103   C     0.32059   0.50423   0.44557   0.00000  Uiso   1.00
C104   C     0.30785   0.40397   0.48335   0.00000  Uiso   1.00
C105   C     0.27937   0.23373   0.50863   0.00000  Uiso   1.00
C106   C     0.38224   0.62412   0.66337   0.00000  Uiso   1.00
C107   C     0.35464   0.72740   0.66127   0.00000  Uiso   1.00
C108   C     0.34103   0.78604   0.74482   0.00000  Uiso   1.00
C109   C     0.31599   0.87829   0.72706   0.00000  Uiso   1.00
C110   C     0.42250   0.64724   0.59844   0.00000  Uiso   1.00
C111   C     0.46595   0.63846   0.62917   0.00000  Uiso   1.00
C112   C     0.49803   0.66321   0.55851   0.00000  Uiso   1.00
C113   C     0.35571   0.53853   0.60697   0.00000  Uiso   1.00
C114   C     0.34302   0.43834   0.64484   0.00000  Uiso   1.00
C115   C     0.31889   0.37156   0.58135   0.00000  Uiso   1.00
H116   H     0.35340   0.70886   0.40710   0.00000  Uiso   1.00
H117   H     0.31009   0.87694   0.46984   0.00000  Uiso   1.00
H118   H     0.43498   0.72937   0.35420   0.00000  Uiso   1.00
H119   H     0.31207   0.52930   0.36987   0.00000  Uiso   1.00
H120   H     0.26694   0.04905   0.58254   0.00000  Uiso   1.00
H121   H     0.53028   0.73786   0.33870   0.00000  Uiso   1.00
H122   H     0.27111   0.31595   0.37174   0.00000  Uiso   1.00
H123   H     0.39082   0.59893   0.73953   0.00000  Uiso   1.00
H124   H     0.34956   0.76098   0.82052   0.00000  Uiso   1.00
H125   H     0.47446   0.61342   0.70487   0.00000  Uiso   1.00
H126   H     0.35155   0.41334   0.72055   0.00000  Uiso   1.00
H127   H     0.29898   0.95494   0.86716   0.00000  Uiso   1.00
H128   H     0.56233   0.64374   0.62331   0.00000  Uiso   1.00
H129   H     0.30315   0.22183   0.65636   0.00000  Uiso   1.00
O130   O     0.25516   0.11060   0.77212   0.00000  Uiso   1.00
O131   O     0.60065   0.70231   0.45221   0.00000  Uiso   1.00
O132   O     0.26062   0.14878   0.49556   0.00000  Uiso   1.00
N133   N     0.28013   0.00465   0.63841   0.00000  Uiso   1.00
N134   N     0.52635   0.71372   0.41044   0.00000  Uiso   1.00
N135   N     0.28405   0.31926   0.44132   0.00000  Uiso   1.00
N136   N     0.29738   0.95401   0.79156   0.00000  Uiso   1.00
N137   N     0.54359   0.66308   0.56359   0.00000  Uiso   1.00
N138   N     0.30129   0.26861   0.59448   0.00000  Uiso   1.00
C139   C     0.86197   0.18368   0.98326   0.00000  Uiso   1.00
C140   C     0.84362   0.25975   0.06345   0.00000  Uiso   1.00
C141   C     0.81860   0.35193   0.04556   0.00000  Uiso   1.00
C142   C     0.80496   0.41070   0.12906   0.00000  Uiso   1.00
C143   C     0.77482   0.53377   0.23868   0.00000  Uiso   1.00
C144   C     0.91148   0.17959   0.00062   0.00000  Uiso   1.00
C145   C     0.94351   0.20435   0.92990   0.00000  Uiso   1.00
C146   C     0.98700   0.19562   0.96051   0.00000  Uiso   1.00
C147   C     0.06221   0.19416   0.97258   0.00000  Uiso   1.00
C148   C     0.84470   0.07088   0.00914   0.00000  Uiso   1.00
C149   C     0.82059   0.00423   0.94557   0.00000  Uiso   1.00
C150   C     0.80785   0.90397   0.98335   0.00000  Uiso   1.00
C151   C     0.77937   0.73373   0.00863   0.00000  Uiso   1.00
C152   C     0.88224   0.12412   0.16337   0.00000  Uiso   1.00
C153   C     0.85464   0.22740   0.16127   0.00000  Uiso   1.00
C154   C     0.84103   0.28604   0.24482   0.00000  Uiso   1.00
C155   C     0.81599   0.37829   0.22706   0.00000  Uiso   1.00
C156   C     0.92250   0.14724   0.09844   0.00000  Uiso   1.00
C157   C     0.96595   0.13846   0.12917   0.00000  Uiso   1.00
C158   C     0.99803   0.16321   0.05851   0.00000  Uiso   1.00
C159   C     0.85571   0.03853   0.10697   0.00000  Uiso   1.00
C160   C     0.84302   0.93834   0.14484   0.00000  Uiso   1.00
C161   C     0.81889   0.87156   0.08135   0.00000  Uiso   1.00
H162   H     0.85340   0.20886   0.90710   0.00000  Uiso   1.00
H163   H     0.81009   0.37694   0.96984   0.00000  Uiso   1.00
H164   H     0.93498   0.22937   0.85420   0.00000  Uiso   1.00
H165   H     0.81207   0.02930   0.86987   0.00000  Uiso   1.00
H166   H     0.76694   0.54905   0.08254   0.00000  Uiso   1.00
H167   H     0.03028   0.23786   0.83870   0.00000  Uiso   1.00
H168   H     0.77111   0.81595   0.87174   0.00000  Uiso   1.00
H169   H     0.89082   0.09893   0.23953   0.00000  Uiso   1.00
H170   H     0.84956   0.26098   0.32052   0.00000  Uiso   1.00
H171   H     0.97446   0.11342   0.20487   0.00000  Uiso   1.00
H172   H     0.85155   0.91334   0.22055   0.00000  Uiso   1.00
H173   H     0.79898   0.45494   0.36716   0.00000  Uiso   1.00
H174   H     0.06233   0.14374   0.12331   0.00000  Uiso   1.00
H175   H     0.80315   0.72183   0.15636   0.00000  Uiso   1.00
O176   O     0.75516   0.61060   0.27212   0.00000  Uiso   1.00
O177   O     0.10065   0.20231   0.95221   0.00000  Uiso   1.00
O178   O     0.76062   0.64878   0.99556   0.00000  Uiso   1.00
N179   N     0.78013   0.50465   0.13841   0.00000  Uiso   1.00
N180   N     0.02635   0.21372   0.91044   0.00000  Uiso   1.00
N181   N     0.78405   0.81926   0.94132   0.00000  Uiso   1.00
N182   N     0.79738   0.45401   0.29156   0.00000  Uiso   1.00
N183   N     0.04359   0.16308   0.06359   0.00000  Uiso   1.00
N184   N     0.80129   0.76861   0.09448   0.00000  Uiso   1.00
C185   C     0.13803   0.18368   0.48326   0.00000  Uiso   1.00
C186   C     0.15638   0.25975   0.56345   0.00000  Uiso   1.00
C187   C     0.18140   0.35193   0.54556   0.00000  Uiso   1.00
C188   C     0.19504   0.41070   0.62906   0.00000  Uiso   1.00
C189   C     0.22518   0.53377   0.73868   0.00000  Uiso   1.00
C190   C     0.08852   0.17959   0.50062   0.00000  Uiso   1.00
C191   C     0.05649   0.20435   0.42990   0.00000  Uiso   1.00
C192   C     0.01300   0.19562   0.46051   0.00000  Uiso   1.00
C193   C     0.93779   0.19416   0.47258   0.00000  Uiso   1.00
C194   C     0.15530   0.07088   0.50914   0.00000  Uiso   1.00
C195   C     0.17941   0.00423   0.44557   0.00000  Uiso   1.00
C196   C     0.19215   0.90397   0.48335   0.00000  Uiso   1.00
C197   C     0.22063   0.73373   0.50863   0.00000  Uiso   1.00
C198   C     0.11776   0.12412   0.66337   0.00000  Uiso   1.00
C199   C     0.14536   0.22740   0.66127   0.00000  Uiso   1.00
C200   C     0.15897   0.28604   0.74482   0.00000  Uiso   1.00
C201   C     0.18401   0.37829   0.72706   0.00000  Uiso   1.00
C202   C     0.07750   0.14724   0.59844   0.00000  Uiso   1.00
C203   C     0.03405   0.13846   0.62917   0.00000  Uiso   1.00
C204   C     0.00197   0.16321   0.55851   0.00000  Uiso   1.00
C205   C     0.14429   0.03853   0.60697   0.00000  Uiso   1.00
C206   C     0.15698   0.93834   0.64484   0.00000  Uiso   1.00
C207   C     0.18111   0.87156   0.58135   0.00000  Uiso   1.00
H208   H     0.14660   0.20886   0.40710   0.00000  Uiso   1.00
H209   H     0.18991   0.37694   0.46984   0.00000  Uiso   1.00
H210   H     0.06502   0.22937   0.35420   0.00000  Uiso   1.00
H211   H     0.18793   0.02930   0.36987   0.00000  Uiso   1.00
H212   H     0.23306   0.54905   0.58254   0.00000  Uiso   1.00
H213   H     0.96972   0.23786   0.33870   0.00000  Uiso   1.00
H214   H     0.22889   0.81595   0.37174   0.00000  Uiso   1.00
H215   H     0.10918   0.09893   0.73953   0.00000  Uiso   1.00
H216   H     0.15044   0.26098   0.82052   0.00000  Uiso   1.00
H217   H     0.02554   0.11342   0.70487   0.00000  Uiso   1.00
H218   H     0.14845   0.91334   0.72055   0.00000  Uiso   1.00
H219   H     0.20102   0.45494   0.86716   0.00000  Uiso   1.00
H220   H     0.93767   0.14374   0.62331   0.00000  Uiso   1.00
H221   H     0.19685   0.72183   0.65636   0.00000  Uiso   1.00
O222   O     0.24484   0.61060   0.77212   0.00000  Uiso   1.00
O223   O     0.89935   0.20231   0.45221   0.00000  Uiso   1.00
O224   O     0.23938   0.64878   0.49556   0.00000  Uiso   1.00
N225   N     0.21987   0.50465   0.63841   0.00000  Uiso   1.00
N226   N     0.97365   0.21372   0.41044   0.00000  Uiso   1.00
N227   N     0.21595   0.81926   0.44132   0.00000  Uiso   1.00
N228   N     0.20262   0.45401   0.79156   0.00000  Uiso   1.00
N229   N     0.95641   0.16308   0.56359   0.00000  Uiso   1.00
N230   N     0.19871   0.76861   0.59448   0.00000  Uiso   1.00
C231   C     0.63803   0.68368   0.98326   0.00000  Uiso   1.00
C232   C     0.65638   0.75975   0.06345   0.00000  Uiso   1.00
C233   C     0.68140   0.85193   0.04556   0.00000  Uiso   1.00
C234   C     0.69504   0.91070   0.12906   0.00000  Uiso   1.00
C235   C     0.72518   0.03377   0.23868   0.00000  Uiso   1.00
C236   C     0.58852   0.67959   0.00062   0.00000  Uiso   1.00
C237   C     0.55649   0.70435   0.92990   0.00000  Uiso   1.00
C238   C     0.51300   0.69562   0.96051   0.00000  Uiso   1.00
C239   C     0.43779   0.69416   0.97258   0.00000  Uiso   1.00
C240   C     0.65530   0.57088   0.00914   0.00000  Uiso   1.00
C241   C     0.67941   0.50423   0.94557   0.00000  Uiso   1.00
C242   C     0.69215   0.40397   0.98335   0.00000  Uiso   1.00
C243   C     0.72063   0.23373   0.00863   0.00000  Uiso   1.00
C244   C     0.61776   0.62412   0.16337   0.00000  Uiso   1.00
C245   C     0.64536   0.72740   0.16127   0.00000  Uiso   1.00
C246   C     0.65897   0.78604   0.24482   0.00000  Uiso   1.00
C247   C     0.68401   0.87829   0.22706   0.00000  Uiso   1.00
C248   C     0.57750   0.64724   0.09844   0.00000  Uiso   1.00
C249   C     0.53405   0.63846   0.12917   0.00000  Uiso   1.00
C250   C     0.50197   0.66321   0.05851   0.00000  Uiso   1.00
C251   C     0.64429   0.53853   0.10697   0.00000  Uiso   1.00
C252   C     0.65698   0.43834   0.14484   0.00000  Uiso   1.00
C253   C     0.68111   0.37156   0.08135   0.00000  Uiso   1.00
H254   H     0.64660   0.70886   0.90710   0.00000  Uiso   1.00
H255   H     0.68991   0.87694   0.96984   0.00000  Uiso   1.00
H256   H     0.56502   0.72937   0.85420   0.00000  Uiso   1.00
H257   H     0.68793   0.52930   0.86987   0.00000  Uiso   1.00
H258   H     0.73306   0.04905   0.08254   0.00000  Uiso   1.00
H259   H     0.46972   0.73786   0.83870   0.00000  Uiso   1.00
H260   H     0.72889   0.31595   0.87174   0.00000  Uiso   1.00
H261   H     0.60918   0.59893   0.23953   0.00000  Uiso   1.00
H262   H     0.65044   0.76098   0.32052   0.00000  Uiso   1.00
H263   H     0.52554   0.61342   0.20487   0.00000  Uiso   1.00
H264   H     0.64845   0.41334   0.22055   0.00000  Uiso   1.00
H265   H     0.70102   0.95494   0.36716   0.00000  Uiso   1.00
H266   H     0.43767   0.64374   0.12331   0.00000  Uiso   1.00
H267   H     0.69685   0.22183   0.15636   0.00000  Uiso   1.00
O268   O     0.74484   0.11060   0.27212   0.00000  Uiso   1.00
O269   O     0.39935   0.70231   0.95221   0.00000  Uiso   1.00
O270   O     0.73938   0.14878   0.99556   0.00000  Uiso   1.00
N271   N     0.71987   0.00465   0.13841   0.00000  Uiso   1.00
N272   N     0.47365   0.71372   0.91044   0.00000  Uiso   1.00
N273   N     0.71595   0.31926   0.94132   0.00000  Uiso   1.00
N274   N     0.70262   0.95401   0.29156   0.00000  Uiso   1.00
N275   N     0.45641   0.66308   0.06359   0.00000  Uiso   1.00
N276   N     0.69871   0.26861   0.09448   0.00000  Uiso   1.00
C277   C     0.86197   0.81632   0.48326   0.00000  Uiso   1.00
C278   C     0.84362   0.74025   0.56345   0.00000  Uiso   1.00
C279   C     0.81860   0.64807   0.54556   0.00000  Uiso   1.00
C280   C     0.80496   0.58930   0.62906   0.00000  Uiso   1.00
C281   C     0.77482   0.46623   0.73868   0.00000  Uiso   1.00
C282   C     0.91148   0.82041   0.50062   0.00000  Uiso   1.00
C283   C     0.94351   0.79565   0.42990   0.00000  Uiso   1.00
C284   C     0.98700   0.80438   0.46051   0.00000  Uiso   1.00
C285   C     0.06221   0.80584   0.47258   0.00000  Uiso   1.00
C286   C     0.84470   0.92912   0.50914   0.00000  Uiso   1.00
C287   C     0.82059   0.99577   0.44557   0.00000  Uiso   1.00
C288   C     0.80785   0.09603   0.48335   0.00000  Uiso   1.00
C289   C     0.77937   0.26627   0.50863   0.00000  Uiso   1.00
C290   C     0.88224   0.87588   0.66337   0.00000  Uiso   1.00
C291   C     0.85464   0.77260   0.66127   0.00000  Uiso   1.00
C292   C     0.84103   0.71396   0.74482   0.00000  Uiso   1.00
C293   C     0.81599   0.62171   0.72706   0.00000  Uiso   1.00
C294   C     0.92250   0.85276   0.59844   0.00000  Uiso   1.00
C295   C     0.96595   0.86154   0.62917   0.00000  Uiso   1.00
C296   C     0.99803   0.83679   0.55851   0.00000  Uiso   1.00
C297   C     0.85571   0.96147   0.60697   0.00000  Uiso   1.00
C298   C     0.84302   0.06166   0.64484   0.00000  Uiso   1.00
C299   C     0.81889   0.12844   0.58135   0.00000  Uiso   1.00
H300   H     0.85340   0.79114   0.40710   0.00000  Uiso   1.00
H301   H     0.81009   0.62306   0.46984   0.00000  Uiso   1.00
H302   H     0.93498   0.77063   0.35420   0.00000  Uiso   1.00
H303   H     0.81207   0.97070   0.36987   0.00000  Uiso   1.00
H304   H     0.76694   0.45095   0.58254   0.00000  Uiso   1.00
H305   H     0.03028   0.76214   0.33870   0.00000  Uiso   1.00
H306   H     0.77111   0.18405   0.37174   0.00000  Uiso   1.00
H307   H     0.89082   0.90107   0.73953   0.00000  Uiso   1.00
H308   H     0.84956   0.73902   0.82052   0.00000  Uiso   1.00
H309   H     0.97446   0.88658   0.70487   0.00000  Uiso   1.00
H310   H     0.85155   0.08666   0.72055   0.00000  Uiso   1.00
H311   H     0.79898   0.54506   0.86716   0.00000  Uiso   1.00
H312   H     0.06233   0.85626   0.62331   0.00000  Uiso   1.00
H313   H     0.80315   0.27817   0.65636   0.00000  Uiso   1.00
O314   O     0.75516   0.38940   0.77212   0.00000  Uiso   1.00
O315   O     0.10065   0.79769   0.45221   0.00000  Uiso   1.00
O316   O     0.76062   0.35122   0.49556   0.00000  Uiso   1.00
N317   N     0.78013   0.49535   0.63841   0.00000  Uiso   1.00
N318   N     0.02635   0.78628   0.41044   0.00000  Uiso   1.00
N319   N     0.78405   0.18074   0.44132   0.00000  Uiso   1.00
N320   N     0.79738   0.54599   0.79156   0.00000  Uiso   1.00
N321   N     0.04359   0.83692   0.56359   0.00000  Uiso   1.00
N322   N     0.80129   0.23139   0.59448   0.00000  Uiso   1.00
C323   C     0.36197   0.31632   0.98326   0.00000  Uiso   1.00
C324   C     0.34362   0.24025   0.06345   0.00000  Uiso   1.00
C325   C     0.31860   0.14807   0.04556   0.00000  Uiso   1.00
C326   C     0.30496   0.08930   0.12906   0.00000  Uiso   1.00
C327   C     0.27482   0.96623   0.23868   0.00000  Uiso   1.00
C328   C     0.41148   0.32041   0.00062   0.00000  Uiso   1.00
C329   C     0.44351   0.29565   0.92990   0.00000  Uiso   1.00
C330   C     0.48700   0.30438   0.96051   0.00000  Uiso   1.00
C331   C     0.56221   0.30584   0.97258   0.00000  Uiso   1.00
C332   C     0.34470   0.42912   0.00914   0.00000  Uiso   1.00
C333   C     0.32059   0.49577   0.94557   0.00000  Uiso   1.00
C334   C     0.30785   0.59603   0.98335   0.00000  Uiso   1.00
C335   C     0.27937   0.76627   0.00863   0.00000  Uiso   1.00
C336   C     0.38224   0.37588   0.16337   0.00000  Uiso   1.00
C337   C     0.35464   0.27260   0.16127   0.00000  Uiso   1.00
C338   C     0.34103   0.21396   0.24482   0.00000  Uiso   1.00
C339   C     0.31599   0.12171   0.22706   0.00000  Uiso   1.00
C340   C     0.42250   0.35276   0.09844   0.00000  Uiso   1.00
C341   C     0.46595   0.36154   0.12917   0.00000  Uiso   1.00
C342   C     0.49803   0.33679   0.05851   0.00000  Uiso   1.00
C343   C     0.35571   0.46147   0.10697   0.00000  Uiso   1.00
C344   C     0.34302   0.56166   0.14484   0.00000  Uiso   1.00
C345   C     0.31889   0.62844   0.08135   0.00000  Uiso   1.00
H346   H     0.35340   0.29114   0.90710   0.00000  Uiso   1.00
H347   H     0.31009   0.12306   0.96984   0.00000  Uiso   1.00
H348   H     0.43498   0.27063   0.85420   0.00000  Uiso   1.00
H349   H     0.31207   0.47070   0.86987   0.00000  Uiso   1.00
H350   H     0.26694   0.95095   0.08254   0.00000  Uiso   1.00
H351   H     0.53028   0.26214   0.83870   0.00000  Uiso   1.00
H352   H     0.27111   0.68405   0.87174   0.00000  Uiso   1.00
H353   H     0.39082   0.40107   0.23953   0.00000  Uiso   1.00
H354   H     0.34956   0.23902   0.32052   0.00000  Uiso   1.00
H355   H     0.47446   0.38658   0.20487   0.00000  Uiso   1.00
H356   H     0.35155   0.58666   0.22055   0.00000  Uiso   1.00
H357   H     0.29898   0.04506   0.36716   0.00000  Uiso   1.00
H358   H     0.56233   0.35626   0.12331   0.00000  Uiso   1.00
H359   H     0.30315   0.77817   0.15636   0.00000  Uiso   1.00
O360   O     0.25516   0.88940   0.27212   0.00000  Uiso   1.00
O361   O     0.60065   0.29769   0.95221   0.00000  Uiso   1.00
O362   O     0.26062   0.85122   0.99556   0.00000  Uiso   1.00
N363   N     0.28013   0.99535   0.13841   0.00000  Uiso   1.00
N364   N     0.52635   0.28628   0.91044   0.00000  Uiso   1.00
N365   N     0.28405   0.68074   0.94132   0.00000  Uiso   1.00
N366   N     0.29738   0.04599   0.29156   0.00000  Uiso   1.00
N367   N     0.54359   0.33692   0.06359   0.00000  Uiso   1.00
N368   N     0.30129   0.73139   0.09448   0.00000  Uiso   1.00
