data_job_04140
_audit_creation_date              2018-12-19
_audit_creation_method            'Materials Studio'
_symmetry_space_group_name_H-M    'P1'
_symmetry_Int_Tables_number       1
_symmetry_cell_setting            triclinic
loop_
_symmetry_equiv_pos_as_xyz
  x,y,z
_cell_length_a                    13.3891
_cell_length_b                    23.0843
_cell_length_c                    25.3854
_cell_angle_alpha                 90.0000
_cell_angle_beta                  90.0000
_cell_angle_gamma                 90.0000
loop_
_atom_site_label
_atom_site_type_symbol
_atom_site_fract_x
_atom_site_fract_y
_atom_site_fract_z
_atom_site_U_iso_or_equiv
_atom_site_adp_type
_atom_site_occupancy
C1     C     0.20969   0.77966   0.01568   0.00000  Uiso   1.00
C2     C     0.26862   0.72336   0.01099   0.00000  Uiso   1.00
C3     C     0.23289   0.67165   0.99045   0.00000  Uiso   1.00
C4     C     0.29848   0.62507   0.98962   0.00000  Uiso   1.00
C5     C     0.37510   0.53689   0.97947   0.00000  Uiso   1.00
C6     C     0.21354   0.79658   0.07371   0.00000  Uiso   1.00
C7     C     0.13150   0.80643   0.10590   0.00000  Uiso   1.00
C8     C     0.15073   0.82150   0.15787   0.00000  Uiso   1.00
C9     C     0.14184   0.84703   0.24508   0.00000  Uiso   1.00
C10    C     0.27027   0.82537   0.98636   0.00000  Uiso   1.00
C11    C     0.23593   0.85944   0.94512   0.00000  Uiso   1.00
C12    C     0.30292   0.89875   0.92356   0.00000  Uiso   1.00
C13    C     0.38211   0.96898   0.87515   0.00000  Uiso   1.00
C14    C     0.38972   0.78891   0.05073   0.00000  Uiso   1.00
C15    C     0.36641   0.72839   0.03003   0.00000  Uiso   1.00
C16    C     0.43207   0.68188   0.02923   0.00000  Uiso   1.00
C17    C     0.39645   0.63011   0.00869   0.00000  Uiso   1.00
C18    C     0.31132   0.80161   0.09275   0.00000  Uiso   1.00
C19    C     0.33068   0.81667   0.14468   0.00000  Uiso   1.00
C20    C     0.24869   0.82653   0.17694   0.00000  Uiso   1.00
C21    C     0.36806   0.83039   0.00540   0.00000  Uiso   1.00
C22    C     0.43511   0.86967   0.98390   0.00000  Uiso   1.00
C23    C     0.40088   0.90379   0.94263   0.00000  Uiso   1.00
H24    H     0.13356   0.77575   0.00086   0.00000  Uiso   1.00
H25    H     0.15721   0.66777   0.97572   0.00000  Uiso   1.00
H26    H     0.05584   0.80254   0.09115   0.00000  Uiso   1.00
H27    H     0.16025   0.85553   0.93040   0.00000  Uiso   1.00
H28    H     0.22654   0.55028   0.95627   0.00000  Uiso   1.00
H29    H     0.01279   0.83446   0.19966   0.00000  Uiso   1.00
H30    H     0.23297   0.94621   0.86067   0.00000  Uiso   1.00
H31    H     0.46585   0.79282   0.06555   0.00000  Uiso   1.00
H32    H     0.50774   0.68579   0.04397   0.00000  Uiso   1.00
H33    H     0.40636   0.82056   0.15940   0.00000  Uiso   1.00
H34    H     0.51078   0.87355   0.99864   0.00000  Uiso   1.00
H35    H     0.51104   0.56490   0.01167   0.00000  Uiso   1.00
H36    H     0.29729   0.84909   0.25505   0.00000  Uiso   1.00
H37    H     0.51748   0.96083   0.91606   0.00000  Uiso   1.00
O38    O     0.39034   0.48686   0.96862   0.00000  Uiso   1.00
O39    O     0.10991   0.85972   0.28793   0.00000  Uiso   1.00
O40    O     0.39878   0.00632   0.84318   0.00000  Uiso   1.00
N41    N     0.28776   0.56841   0.97226   0.00000  Uiso   1.00
N42    N     0.08791   0.83410   0.19981   0.00000  Uiso   1.00
N43    N     0.29375   0.93858   0.88290   0.00000  Uiso   1.00
N44    N     0.44085   0.57628   0.00207   0.00000  Uiso   1.00
N45    N     0.24100   0.84197   0.22962   0.00000  Uiso   1.00
N46    N     0.44684   0.94645   0.91270   0.00000  Uiso   1.00
C47    C     0.29031   0.22034   0.01568   0.00000  Uiso   1.00
C48    C     0.23138   0.27664   0.01099   0.00000  Uiso   1.00
C49    C     0.26711   0.32835   0.99045   0.00000  Uiso   1.00
C50    C     0.20152   0.37493   0.98962   0.00000  Uiso   1.00
C51    C     0.12490   0.46311   0.97947   0.00000  Uiso   1.00
C52    C     0.28646   0.20342   0.07371   0.00000  Uiso   1.00
C53    C     0.36850   0.19357   0.10590   0.00000  Uiso   1.00
C54    C     0.34927   0.17850   0.15787   0.00000  Uiso   1.00
C55    C     0.35816   0.15297   0.24508   0.00000  Uiso   1.00
C56    C     0.22973   0.17463   0.98636   0.00000  Uiso   1.00
C57    C     0.26407   0.14056   0.94512   0.00000  Uiso   1.00
C58    C     0.19708   0.10125   0.92356   0.00000  Uiso   1.00
C59    C     0.11789   0.03102   0.87515   0.00000  Uiso   1.00
C60    C     0.11028   0.21109   0.05073   0.00000  Uiso   1.00
C61    C     0.13359   0.27161   0.03003   0.00000  Uiso   1.00
C62    C     0.06793   0.31812   0.02923   0.00000  Uiso   1.00
C63    C     0.10355   0.36989   0.00869   0.00000  Uiso   1.00
C64    C     0.18868   0.19839   0.09275   0.00000  Uiso   1.00
C65    C     0.16932   0.18333   0.14468   0.00000  Uiso   1.00
C66    C     0.25131   0.17347   0.17694   0.00000  Uiso   1.00
C67    C     0.13194   0.16961   0.00540   0.00000  Uiso   1.00
C68    C     0.06489   0.13033   0.98390   0.00000  Uiso   1.00
C69    C     0.09912   0.09621   0.94263   0.00000  Uiso   1.00
H70    H     0.36644   0.22425   0.00086   0.00000  Uiso   1.00
H71    H     0.34279   0.33223   0.97572   0.00000  Uiso   1.00
H72    H     0.44416   0.19746   0.09115   0.00000  Uiso   1.00
H73    H     0.33975   0.14447   0.93040   0.00000  Uiso   1.00
H74    H     0.27346   0.44972   0.95627   0.00000  Uiso   1.00
H75    H     0.48721   0.16554   0.19966   0.00000  Uiso   1.00
H76    H     0.26703   0.05379   0.86067   0.00000  Uiso   1.00
H77    H     0.03415   0.20718   0.06555   0.00000  Uiso   1.00
H78    H     0.99226   0.31421   0.04397   0.00000  Uiso   1.00
H79    H     0.09364   0.17944   0.15940   0.00000  Uiso   1.00
H80    H     0.98922   0.12645   0.99864   0.00000  Uiso   1.00
H81    H     0.98896   0.43510   0.01167   0.00000  Uiso   1.00
H82    H     0.20271   0.15091   0.25505   0.00000  Uiso   1.00
H83    H     0.98252   0.03917   0.91606   0.00000  Uiso   1.00
O84    O     0.10966   0.51314   0.96862   0.00000  Uiso   1.00
O85    O     0.39009   0.14028   0.28793   0.00000  Uiso   1.00
O86    O     0.10122   0.99368   0.84318   0.00000  Uiso   1.00
N87    N     0.21224   0.43159   0.97226   0.00000  Uiso   1.00
N88    N     0.41209   0.16590   0.19981   0.00000  Uiso   1.00
N89    N     0.20625   0.06142   0.88290   0.00000  Uiso   1.00
N90    N     0.05915   0.42372   0.00207   0.00000  Uiso   1.00
N91    N     0.25900   0.15803   0.22962   0.00000  Uiso   1.00
N92    N     0.05316   0.05355   0.91270   0.00000  Uiso   1.00
C93    C     0.79031   0.77966   0.48432   0.00000  Uiso   1.00
C94    C     0.73138   0.72336   0.48901   0.00000  Uiso   1.00
C95    C     0.76711   0.67165   0.50955   0.00000  Uiso   1.00
C96    C     0.70152   0.62507   0.51038   0.00000  Uiso   1.00
C97    C     0.62490   0.53689   0.52053   0.00000  Uiso   1.00
C98    C     0.78646   0.79658   0.42629   0.00000  Uiso   1.00
C99    C     0.86850   0.80643   0.39410   0.00000  Uiso   1.00
C100   C     0.84927   0.82150   0.34213   0.00000  Uiso   1.00
C101   C     0.85816   0.84703   0.25492   0.00000  Uiso   1.00
C102   C     0.72973   0.82537   0.51364   0.00000  Uiso   1.00
C103   C     0.76407   0.85944   0.55488   0.00000  Uiso   1.00
C104   C     0.69708   0.89875   0.57644   0.00000  Uiso   1.00
C105   C     0.61789   0.96898   0.62485   0.00000  Uiso   1.00
C106   C     0.61028   0.78891   0.44927   0.00000  Uiso   1.00
C107   C     0.63359   0.72839   0.46997   0.00000  Uiso   1.00
C108   C     0.56793   0.68188   0.47077   0.00000  Uiso   1.00
C109   C     0.60355   0.63011   0.49131   0.00000  Uiso   1.00
C110   C     0.68868   0.80161   0.40725   0.00000  Uiso   1.00
C111   C     0.66932   0.81667   0.35532   0.00000  Uiso   1.00
C112   C     0.75131   0.82653   0.32306   0.00000  Uiso   1.00
C113   C     0.63194   0.83039   0.49460   0.00000  Uiso   1.00
C114   C     0.56489   0.86967   0.51610   0.00000  Uiso   1.00
C115   C     0.59912   0.90379   0.55737   0.00000  Uiso   1.00
H116   H     0.86644   0.77575   0.49914   0.00000  Uiso   1.00
H117   H     0.84279   0.66777   0.52428   0.00000  Uiso   1.00
H118   H     0.94416   0.80254   0.40885   0.00000  Uiso   1.00
H119   H     0.83975   0.85553   0.56960   0.00000  Uiso   1.00
H120   H     0.77346   0.55028   0.54373   0.00000  Uiso   1.00
H121   H     0.98721   0.83446   0.30034   0.00000  Uiso   1.00
H122   H     0.76703   0.94621   0.63933   0.00000  Uiso   1.00
H123   H     0.53415   0.79282   0.43445   0.00000  Uiso   1.00
H124   H     0.49226   0.68579   0.45603   0.00000  Uiso   1.00
H125   H     0.59364   0.82056   0.34060   0.00000  Uiso   1.00
H126   H     0.48922   0.87355   0.50136   0.00000  Uiso   1.00
H127   H     0.48896   0.56490   0.48833   0.00000  Uiso   1.00
H128   H     0.70271   0.84909   0.24495   0.00000  Uiso   1.00
H129   H     0.48252   0.96083   0.58394   0.00000  Uiso   1.00
O130   O     0.60966   0.48686   0.53138   0.00000  Uiso   1.00
O131   O     0.89009   0.85972   0.21207   0.00000  Uiso   1.00
O132   O     0.60122   0.00632   0.65682   0.00000  Uiso   1.00
N133   N     0.71224   0.56841   0.52774   0.00000  Uiso   1.00
N134   N     0.91209   0.83410   0.30019   0.00000  Uiso   1.00
N135   N     0.70625   0.93858   0.61710   0.00000  Uiso   1.00
N136   N     0.55915   0.57628   0.49793   0.00000  Uiso   1.00
N137   N     0.75900   0.84197   0.27038   0.00000  Uiso   1.00
N138   N     0.55316   0.94645   0.58730   0.00000  Uiso   1.00
C139   C     0.70969   0.22034   0.48432   0.00000  Uiso   1.00
C140   C     0.76862   0.27664   0.48901   0.00000  Uiso   1.00
C141   C     0.73289   0.32835   0.50955   0.00000  Uiso   1.00
C142   C     0.79848   0.37493   0.51038   0.00000  Uiso   1.00
C143   C     0.87510   0.46311   0.52053   0.00000  Uiso   1.00
C144   C     0.71354   0.20342   0.42629   0.00000  Uiso   1.00
C145   C     0.63150   0.19357   0.39410   0.00000  Uiso   1.00
C146   C     0.65073   0.17850   0.34213   0.00000  Uiso   1.00
C147   C     0.64184   0.15297   0.25492   0.00000  Uiso   1.00
C148   C     0.77027   0.17463   0.51364   0.00000  Uiso   1.00
C149   C     0.73593   0.14056   0.55488   0.00000  Uiso   1.00
C150   C     0.80292   0.10125   0.57644   0.00000  Uiso   1.00
C151   C     0.88211   0.03102   0.62485   0.00000  Uiso   1.00
C152   C     0.88972   0.21109   0.44927   0.00000  Uiso   1.00
C153   C     0.86641   0.27161   0.46997   0.00000  Uiso   1.00
C154   C     0.93207   0.31812   0.47077   0.00000  Uiso   1.00
C155   C     0.89645   0.36989   0.49131   0.00000  Uiso   1.00
C156   C     0.81132   0.19839   0.40725   0.00000  Uiso   1.00
C157   C     0.83068   0.18333   0.35532   0.00000  Uiso   1.00
C158   C     0.74869   0.17347   0.32306   0.00000  Uiso   1.00
C159   C     0.86806   0.16961   0.49460   0.00000  Uiso   1.00
C160   C     0.93511   0.13033   0.51610   0.00000  Uiso   1.00
C161   C     0.90088   0.09621   0.55737   0.00000  Uiso   1.00
H162   H     0.63356   0.22425   0.49914   0.00000  Uiso   1.00
H163   H     0.65721   0.33223   0.52428   0.00000  Uiso   1.00
H164   H     0.55584   0.19746   0.40885   0.00000  Uiso   1.00
H165   H     0.66025   0.14447   0.56960   0.00000  Uiso   1.00
H166   H     0.72654   0.44972   0.54373   0.00000  Uiso   1.00
H167   H     0.51279   0.16554   0.30034   0.00000  Uiso   1.00
H168   H     0.73297   0.05379   0.63933   0.00000  Uiso   1.00
H169   H     0.96585   0.20718   0.43445   0.00000  Uiso   1.00
H170   H     0.00774   0.31421   0.45603   0.00000  Uiso   1.00
H171   H     0.90636   0.17944   0.34060   0.00000  Uiso   1.00
H172   H     0.01078   0.12645   0.50136   0.00000  Uiso   1.00
H173   H     0.01104   0.43510   0.48833   0.00000  Uiso   1.00
H174   H     0.79729   0.15091   0.24495   0.00000  Uiso   1.00
H175   H     0.01748   0.03917   0.58394   0.00000  Uiso   1.00
O176   O     0.89034   0.51314   0.53138   0.00000  Uiso   1.00
O177   O     0.60991   0.14028   0.21207   0.00000  Uiso   1.00
O178   O     0.89878   0.99368   0.65682   0.00000  Uiso   1.00
N179   N     0.78776   0.43159   0.52774   0.00000  Uiso   1.00
N180   N     0.58791   0.16590   0.30019   0.00000  Uiso   1.00
N181   N     0.79375   0.06142   0.61710   0.00000  Uiso   1.00
N182   N     0.94085   0.42372   0.49793   0.00000  Uiso   1.00
N183   N     0.74100   0.15803   0.27038   0.00000  Uiso   1.00
N184   N     0.94684   0.05355   0.58730   0.00000  Uiso   1.00
C185   C     0.79031   0.22034   0.98432   0.00000  Uiso   1.00
C186   C     0.73138   0.27664   0.98901   0.00000  Uiso   1.00
C187   C     0.76711   0.32835   0.00955   0.00000  Uiso   1.00
C188   C     0.70152   0.37493   0.01038   0.00000  Uiso   1.00
C189   C     0.62490   0.46311   0.02053   0.00000  Uiso   1.00
C190   C     0.78646   0.20342   0.92629   0.00000  Uiso   1.00
C191   C     0.86850   0.19357   0.89410   0.00000  Uiso   1.00
C192   C     0.84927   0.17850   0.84213   0.00000  Uiso   1.00
C193   C     0.85816   0.15297   0.75492   0.00000  Uiso   1.00
C194   C     0.72973   0.17463   0.01364   0.00000  Uiso   1.00
C195   C     0.76407   0.14056   0.05488   0.00000  Uiso   1.00
C196   C     0.69708   0.10125   0.07644   0.00000  Uiso   1.00
C197   C     0.61789   0.03102   0.12485   0.00000  Uiso   1.00
C198   C     0.61028   0.21109   0.94927   0.00000  Uiso   1.00
C199   C     0.63359   0.27161   0.96997   0.00000  Uiso   1.00
C200   C     0.56793   0.31812   0.97077   0.00000  Uiso   1.00
C201   C     0.60355   0.36989   0.99131   0.00000  Uiso   1.00
C202   C     0.68868   0.19839   0.90725   0.00000  Uiso   1.00
C203   C     0.66932   0.18333   0.85532   0.00000  Uiso   1.00
C204   C     0.75131   0.17347   0.82306   0.00000  Uiso   1.00
C205   C     0.63194   0.16961   0.99460   0.00000  Uiso   1.00
C206   C     0.56489   0.13033   0.01610   0.00000  Uiso   1.00
C207   C     0.59912   0.09621   0.05737   0.00000  Uiso   1.00
H208   H     0.86644   0.22425   0.99914   0.00000  Uiso   1.00
H209   H     0.84279   0.33223   0.02428   0.00000  Uiso   1.00
H210   H     0.94416   0.19746   0.90885   0.00000  Uiso   1.00
H211   H     0.83975   0.14447   0.06960   0.00000  Uiso   1.00
H212   H     0.77346   0.44972   0.04373   0.00000  Uiso   1.00
H213   H     0.98721   0.16554   0.80034   0.00000  Uiso   1.00
H214   H     0.76703   0.05379   0.13933   0.00000  Uiso   1.00
H215   H     0.53415   0.20718   0.93445   0.00000  Uiso   1.00
H216   H     0.49226   0.31421   0.95603   0.00000  Uiso   1.00
H217   H     0.59364   0.17944   0.84060   0.00000  Uiso   1.00
H218   H     0.48922   0.12645   0.00136   0.00000  Uiso   1.00
H219   H     0.48896   0.43510   0.98833   0.00000  Uiso   1.00
H220   H     0.70271   0.15091   0.74495   0.00000  Uiso   1.00
H221   H     0.48252   0.03917   0.08394   0.00000  Uiso   1.00
O222   O     0.60966   0.51314   0.03138   0.00000  Uiso   1.00
O223   O     0.89009   0.14028   0.71207   0.00000  Uiso   1.00
O224   O     0.60122   0.99368   0.15682   0.00000  Uiso   1.00
N225   N     0.71224   0.43159   0.02774   0.00000  Uiso   1.00
N226   N     0.91209   0.16590   0.80019   0.00000  Uiso   1.00
N227   N     0.70625   0.06142   0.11710   0.00000  Uiso   1.00
N228   N     0.55915   0.42372   0.99793   0.00000  Uiso   1.00
N229   N     0.75900   0.15803   0.77038   0.00000  Uiso   1.00
N230   N     0.55316   0.05355   0.08730   0.00000  Uiso   1.00
C231   C     0.70969   0.77966   0.98432   0.00000  Uiso   1.00
C232   C     0.76862   0.72336   0.98901   0.00000  Uiso   1.00
C233   C     0.73289   0.67165   0.00955   0.00000  Uiso   1.00
C234   C     0.79848   0.62507   0.01038   0.00000  Uiso   1.00
C235   C     0.87510   0.53689   0.02053   0.00000  Uiso   1.00
C236   C     0.71354   0.79658   0.92629   0.00000  Uiso   1.00
C237   C     0.63150   0.80643   0.89410   0.00000  Uiso   1.00
C238   C     0.65073   0.82150   0.84213   0.00000  Uiso   1.00
C239   C     0.64184   0.84703   0.75492   0.00000  Uiso   1.00
C240   C     0.77027   0.82537   0.01364   0.00000  Uiso   1.00
C241   C     0.73593   0.85944   0.05488   0.00000  Uiso   1.00
C242   C     0.80292   0.89875   0.07644   0.00000  Uiso   1.00
C243   C     0.88211   0.96898   0.12485   0.00000  Uiso   1.00
C244   C     0.88972   0.78891   0.94927   0.00000  Uiso   1.00
C245   C     0.86641   0.72839   0.96997   0.00000  Uiso   1.00
C246   C     0.93207   0.68188   0.97077   0.00000  Uiso   1.00
C247   C     0.89645   0.63011   0.99131   0.00000  Uiso   1.00
C248   C     0.81132   0.80161   0.90725   0.00000  Uiso   1.00
C249   C     0.83068   0.81667   0.85532   0.00000  Uiso   1.00
C250   C     0.74869   0.82653   0.82306   0.00000  Uiso   1.00
C251   C     0.86806   0.83039   0.99460   0.00000  Uiso   1.00
C252   C     0.93511   0.86967   0.01610   0.00000  Uiso   1.00
C253   C     0.90088   0.90379   0.05737   0.00000  Uiso   1.00
H254   H     0.63356   0.77575   0.99914   0.00000  Uiso   1.00
H255   H     0.65721   0.66777   0.02428   0.00000  Uiso   1.00
H256   H     0.55584   0.80254   0.90885   0.00000  Uiso   1.00
H257   H     0.66025   0.85553   0.06960   0.00000  Uiso   1.00
H258   H     0.72654   0.55028   0.04373   0.00000  Uiso   1.00
H259   H     0.51279   0.83446   0.80034   0.00000  Uiso   1.00
H260   H     0.73297   0.94621   0.13933   0.00000  Uiso   1.00
H261   H     0.96585   0.79282   0.93445   0.00000  Uiso   1.00
H262   H     0.00774   0.68579   0.95603   0.00000  Uiso   1.00
H263   H     0.90636   0.82056   0.84060   0.00000  Uiso   1.00
H264   H     0.01078   0.87355   0.00136   0.00000  Uiso   1.00
H265   H     0.01104   0.56490   0.98833   0.00000  Uiso   1.00
H266   H     0.79729   0.84909   0.74495   0.00000  Uiso   1.00
H267   H     0.01748   0.96083   0.08394   0.00000  Uiso   1.00
O268   O     0.89034   0.48686   0.03138   0.00000  Uiso   1.00
O269   O     0.60991   0.85972   0.71207   0.00000  Uiso   1.00
O270   O     0.89878   0.00632   0.15682   0.00000  Uiso   1.00
N271   N     0.78776   0.56841   0.02774   0.00000  Uiso   1.00
N272   N     0.58791   0.83410   0.80019   0.00000  Uiso   1.00
N273   N     0.79375   0.93858   0.11710   0.00000  Uiso   1.00
N274   N     0.94085   0.57628   0.99793   0.00000  Uiso   1.00
N275   N     0.74100   0.84197   0.77038   0.00000  Uiso   1.00
N276   N     0.94684   0.94645   0.08730   0.00000  Uiso   1.00
C277   C     0.20969   0.22034   0.51568   0.00000  Uiso   1.00
C278   C     0.26862   0.27664   0.51099   0.00000  Uiso   1.00
C279   C     0.23289   0.32835   0.49045   0.00000  Uiso   1.00
C280   C     0.29848   0.37493   0.48962   0.00000  Uiso   1.00
C281   C     0.37510   0.46311   0.47947   0.00000  Uiso   1.00
C282   C     0.21354   0.20342   0.57371   0.00000  Uiso   1.00
C283   C     0.13150   0.19357   0.60590   0.00000  Uiso   1.00
C284   C     0.15073   0.17850   0.65787   0.00000  Uiso   1.00
C285   C     0.14184   0.15297   0.74508   0.00000  Uiso   1.00
C286   C     0.27027   0.17463   0.48636   0.00000  Uiso   1.00
C287   C     0.23593   0.14056   0.44512   0.00000  Uiso   1.00
C288   C     0.30292   0.10125   0.42356   0.00000  Uiso   1.00
C289   C     0.38211   0.03102   0.37515   0.00000  Uiso   1.00
C290   C     0.38972   0.21109   0.55073   0.00000  Uiso   1.00
C291   C     0.36641   0.27161   0.53003   0.00000  Uiso   1.00
C292   C     0.43207   0.31812   0.52923   0.00000  Uiso   1.00
C293   C     0.39645   0.36989   0.50869   0.00000  Uiso   1.00
C294   C     0.31132   0.19839   0.59275   0.00000  Uiso   1.00
C295   C     0.33068   0.18333   0.64468   0.00000  Uiso   1.00
C296   C     0.24869   0.17347   0.67694   0.00000  Uiso   1.00
C297   C     0.36806   0.16961   0.50540   0.00000  Uiso   1.00
C298   C     0.43511   0.13033   0.48390   0.00000  Uiso   1.00
C299   C     0.40088   0.09621   0.44263   0.00000  Uiso   1.00
H300   H     0.13356   0.22425   0.50086   0.00000  Uiso   1.00
H301   H     0.15721   0.33223   0.47572   0.00000  Uiso   1.00
H302   H     0.05584   0.19746   0.59115   0.00000  Uiso   1.00
H303   H     0.16025   0.14447   0.43040   0.00000  Uiso   1.00
H304   H     0.22654   0.44972   0.45627   0.00000  Uiso   1.00
H305   H     0.01279   0.16554   0.69966   0.00000  Uiso   1.00
H306   H     0.23297   0.05379   0.36067   0.00000  Uiso   1.00
H307   H     0.46585   0.20718   0.56555   0.00000  Uiso   1.00
H308   H     0.50774   0.31421   0.54397   0.00000  Uiso   1.00
H309   H     0.40636   0.17944   0.65940   0.00000  Uiso   1.00
H310   H     0.51078   0.12645   0.49864   0.00000  Uiso   1.00
H311   H     0.51104   0.43510   0.51167   0.00000  Uiso   1.00
H312   H     0.29729   0.15091   0.75505   0.00000  Uiso   1.00
H313   H     0.51748   0.03917   0.41606   0.00000  Uiso   1.00
O314   O     0.39034   0.51314   0.46862   0.00000  Uiso   1.00
O315   O     0.10991   0.14028   0.78793   0.00000  Uiso   1.00
O316   O     0.39878   0.99368   0.34318   0.00000  Uiso   1.00
N317   N     0.28776   0.43159   0.47226   0.00000  Uiso   1.00
N318   N     0.08791   0.16590   0.69981   0.00000  Uiso   1.00
N319   N     0.29375   0.06142   0.38290   0.00000  Uiso   1.00
N320   N     0.44085   0.42372   0.50207   0.00000  Uiso   1.00
N321   N     0.24100   0.15803   0.72962   0.00000  Uiso   1.00
N322   N     0.44684   0.05355   0.41270   0.00000  Uiso   1.00
C323   C     0.29031   0.77966   0.51568   0.00000  Uiso   1.00
C324   C     0.23138   0.72336   0.51099   0.00000  Uiso   1.00
C325   C     0.26711   0.67165   0.49045   0.00000  Uiso   1.00
C326   C     0.20152   0.62507   0.48962   0.00000  Uiso   1.00
C327   C     0.12490   0.53689   0.47947   0.00000  Uiso   1.00
C328   C     0.28646   0.79658   0.57371   0.00000  Uiso   1.00
C329   C     0.36850   0.80643   0.60590   0.00000  Uiso   1.00
C330   C     0.34927   0.82150   0.65787   0.00000  Uiso   1.00
C331   C     0.35816   0.84703   0.74508   0.00000  Uiso   1.00
C332   C     0.22973   0.82537   0.48636   0.00000  Uiso   1.00
C333   C     0.26407   0.85944   0.44512   0.00000  Uiso   1.00
C334   C     0.19708   0.89875   0.42356   0.00000  Uiso   1.00
C335   C     0.11789   0.96898   0.37515   0.00000  Uiso   1.00
C336   C     0.11028   0.78891   0.55073   0.00000  Uiso   1.00
C337   C     0.13359   0.72839   0.53003   0.00000  Uiso   1.00
C338   C     0.06793   0.68188   0.52923   0.00000  Uiso   1.00
C339   C     0.10355   0.63011   0.50869   0.00000  Uiso   1.00
C340   C     0.18868   0.80161   0.59275   0.00000  Uiso   1.00
C341   C     0.16932   0.81667   0.64468   0.00000  Uiso   1.00
C342   C     0.25131   0.82653   0.67694   0.00000  Uiso   1.00
C343   C     0.13194   0.83039   0.50540   0.00000  Uiso   1.00
C344   C     0.06489   0.86967   0.48390   0.00000  Uiso   1.00
C345   C     0.09912   0.90379   0.44263   0.00000  Uiso   1.00
H346   H     0.36644   0.77575   0.50086   0.00000  Uiso   1.00
H347   H     0.34279   0.66777   0.47572   0.00000  Uiso   1.00
H348   H     0.44416   0.80254   0.59115   0.00000  Uiso   1.00
H349   H     0.33975   0.85553   0.43040   0.00000  Uiso   1.00
H350   H     0.27346   0.55028   0.45627   0.00000  Uiso   1.00
H351   H     0.48721   0.83446   0.69966   0.00000  Uiso   1.00
H352   H     0.26703   0.94621   0.36067   0.00000  Uiso   1.00
H353   H     0.03415   0.79282   0.56555   0.00000  Uiso   1.00
H354   H     0.99226   0.68579   0.54397   0.00000  Uiso   1.00
H355   H     0.09364   0.82056   0.65940   0.00000  Uiso   1.00
H356   H     0.98922   0.87355   0.49864   0.00000  Uiso   1.00
H357   H     0.98896   0.56490   0.51167   0.00000  Uiso   1.00
H358   H     0.20271   0.84909   0.75505   0.00000  Uiso   1.00
H359   H     0.98252   0.96083   0.41606   0.00000  Uiso   1.00
O360   O     0.10966   0.48686   0.46862   0.00000  Uiso   1.00
O361   O     0.39009   0.85972   0.78793   0.00000  Uiso   1.00
O362   O     0.10122   0.00632   0.34318   0.00000  Uiso   1.00
N363   N     0.21224   0.56841   0.47226   0.00000  Uiso   1.00
N364   N     0.41209   0.83410   0.69981   0.00000  Uiso   1.00
N365   N     0.20625   0.93858   0.38290   0.00000  Uiso   1.00
N366   N     0.05915   0.57628   0.50207   0.00000  Uiso   1.00
N367   N     0.25900   0.84197   0.72962   0.00000  Uiso   1.00
N368   N     0.05316   0.94645   0.41270   0.00000  Uiso   1.00
