data_job_02623
_audit_creation_date              2018-12-19
_audit_creation_method            'Materials Studio'
_symmetry_space_group_name_H-M    'P1'
_symmetry_Int_Tables_number       1
_symmetry_cell_setting            triclinic
loop_
_symmetry_equiv_pos_as_xyz
  x,y,z
_cell_length_a                    15.3448
_cell_length_b                    15.3448
_cell_length_c                    24.5798
_cell_angle_alpha                 90.0000
_cell_angle_beta                  90.0000
_cell_angle_gamma                 90.0000
loop_
_atom_site_label
_atom_site_type_symbol
_atom_site_fract_x
_atom_site_fract_y
_atom_site_fract_z
_atom_site_U_iso_or_equiv
_atom_site_adp_type
_atom_site_occupancy
C1     C     0.48785   0.25208   0.65618   0.00000  Uiso   1.00
C2     C     0.46600   0.15515   0.65732   0.00000  Uiso   1.00
C3     C     0.48459   0.09809   0.69956   0.00000  Uiso   1.00
C4     C     0.45928   0.01190   0.69279   0.00000  Uiso   1.00
C5     C     0.43183   0.86565   0.70176   0.00000  Uiso   1.00
C6     C     0.54227   0.26639   0.60504   0.00000  Uiso   1.00
C7     C     0.62498   0.30288   0.60331   0.00000  Uiso   1.00
C8     C     0.66386   0.31035   0.55252   0.00000  Uiso   1.00
C9     C     0.75479   0.33687   0.48031   0.00000  Uiso   1.00
C10    C     0.40183   0.29933   0.64645   0.00000  Uiso   1.00
C11    C     0.36648   0.36353   0.67953   0.00000  Uiso   1.00
C12    C     0.28713   0.39874   0.66360   0.00000  Uiso   1.00
C13    C     0.16002   0.47640   0.65568   0.00000  Uiso   1.00
C14    C     0.40983   0.20049   0.56904   0.00000  Uiso   1.00
C15    C     0.42362   0.12713   0.60999   0.00000  Uiso   1.00
C16    C     0.39827   0.04101   0.60315   0.00000  Uiso   1.00
C17    C     0.41682   0.98383   0.64537   0.00000  Uiso   1.00
C18    C     0.49989   0.23837   0.55771   0.00000  Uiso   1.00
C19    C     0.53865   0.24580   0.50691   0.00000  Uiso   1.00
C20    C     0.62141   0.28228   0.50510   0.00000  Uiso   1.00
C21    C     0.35945   0.27131   0.59912   0.00000  Uiso   1.00
C22    C     0.28015   0.30644   0.58312   0.00000  Uiso   1.00
C23    C     0.24468   0.37067   0.61618   0.00000  Uiso   1.00
H24    H     0.52085   0.27390   0.69302   0.00000  Uiso   1.00
H25    H     0.51740   0.11980   0.73618   0.00000  Uiso   1.00
H26    H     0.65776   0.32456   0.63995   0.00000  Uiso   1.00
H27    H     0.39929   0.38520   0.71615   0.00000  Uiso   1.00
H28    H     0.49491   0.93659   0.76315   0.00000  Uiso   1.00
H29    H     0.79085   0.36837   0.56023   0.00000  Uiso   1.00
H30    H     0.24583   0.49623   0.72093   0.00000  Uiso   1.00
H31    H     0.37683   0.17867   0.53219   0.00000  Uiso   1.00
H32    H     0.36547   0.01934   0.56652   0.00000  Uiso   1.00
H33    H     0.50584   0.22411   0.47029   0.00000  Uiso   1.00
H34    H     0.24737   0.28474   0.54650   0.00000  Uiso   1.00
H35    H     0.37160   0.85505   0.62545   0.00000  Uiso   1.00
H36    H     0.66755   0.28685   0.42253   0.00000  Uiso   1.00
H37    H     0.12252   0.41470   0.58323   0.00000  Uiso   1.00
O38    O     0.42841   0.79272   0.71978   0.00000  Uiso   1.00
O39    O     0.81667   0.35923   0.45356   0.00000  Uiso   1.00
O40    O     0.10161   0.52697   0.66440   0.00000  Uiso   1.00
N41    N     0.46743   0.93927   0.72604   0.00000  Uiso   1.00
N42    N     0.74413   0.34295   0.53632   0.00000  Uiso   1.00
N43    N     0.23459   0.46250   0.68655   0.00000  Uiso   1.00
N44    N     0.40108   0.89539   0.65194   0.00000  Uiso   1.00
N45    N     0.67778   0.29908   0.46222   0.00000  Uiso   1.00
N46    N     0.16824   0.41863   0.61246   0.00000  Uiso   1.00
C47    C     0.51215   0.74792   0.15618   0.00000  Uiso   1.00
C48    C     0.53400   0.84485   0.15732   0.00000  Uiso   1.00
C49    C     0.51541   0.90191   0.19956   0.00000  Uiso   1.00
C50    C     0.54072   0.98810   0.19279   0.00000  Uiso   1.00
C51    C     0.56817   0.13435   0.20176   0.00000  Uiso   1.00
C52    C     0.45773   0.73361   0.10504   0.00000  Uiso   1.00
C53    C     0.37502   0.69712   0.10331   0.00000  Uiso   1.00
C54    C     0.33614   0.68965   0.05252   0.00000  Uiso   1.00
C55    C     0.24521   0.66313   0.98031   0.00000  Uiso   1.00
C56    C     0.59817   0.70067   0.14645   0.00000  Uiso   1.00
C57    C     0.63352   0.63647   0.17953   0.00000  Uiso   1.00
C58    C     0.71287   0.60126   0.16360   0.00000  Uiso   1.00
C59    C     0.83998   0.52360   0.15568   0.00000  Uiso   1.00
C60    C     0.59017   0.79951   0.06904   0.00000  Uiso   1.00
C61    C     0.57638   0.87287   0.10999   0.00000  Uiso   1.00
C62    C     0.60173   0.95899   0.10315   0.00000  Uiso   1.00
C63    C     0.58318   0.01617   0.14537   0.00000  Uiso   1.00
C64    C     0.50011   0.76163   0.05771   0.00000  Uiso   1.00
C65    C     0.46135   0.75420   0.00691   0.00000  Uiso   1.00
C66    C     0.37859   0.71772   0.00510   0.00000  Uiso   1.00
C67    C     0.64055   0.72869   0.09912   0.00000  Uiso   1.00
C68    C     0.71985   0.69356   0.08312   0.00000  Uiso   1.00
C69    C     0.75532   0.62933   0.11618   0.00000  Uiso   1.00
H70    H     0.47915   0.72610   0.19302   0.00000  Uiso   1.00
H71    H     0.48260   0.88020   0.23618   0.00000  Uiso   1.00
H72    H     0.34224   0.67544   0.13995   0.00000  Uiso   1.00
H73    H     0.60071   0.61480   0.21615   0.00000  Uiso   1.00
H74    H     0.50509   0.06341   0.26315   0.00000  Uiso   1.00
H75    H     0.20915   0.63163   0.06023   0.00000  Uiso   1.00
H76    H     0.75417   0.50377   0.22093   0.00000  Uiso   1.00
H77    H     0.62317   0.82133   0.03219   0.00000  Uiso   1.00
H78    H     0.63453   0.98066   0.06652   0.00000  Uiso   1.00
H79    H     0.49416   0.77589   0.97029   0.00000  Uiso   1.00
H80    H     0.75263   0.71526   0.04650   0.00000  Uiso   1.00
H81    H     0.62840   0.14495   0.12545   0.00000  Uiso   1.00
H82    H     0.33245   0.71315   0.92253   0.00000  Uiso   1.00
H83    H     0.87748   0.58530   0.08323   0.00000  Uiso   1.00
O84    O     0.57159   0.20728   0.21978   0.00000  Uiso   1.00
O85    O     0.18333   0.64077   0.95356   0.00000  Uiso   1.00
O86    O     0.89839   0.47303   0.16440   0.00000  Uiso   1.00
N87    N     0.53257   0.06073   0.22604   0.00000  Uiso   1.00
N88    N     0.25587   0.65705   0.03632   0.00000  Uiso   1.00
N89    N     0.76541   0.53750   0.18655   0.00000  Uiso   1.00
N90    N     0.59892   0.10461   0.15194   0.00000  Uiso   1.00
N91    N     0.32222   0.70092   0.96222   0.00000  Uiso   1.00
N92    N     0.83176   0.58137   0.11246   0.00000  Uiso   1.00
C93    C     0.24792   0.98785   0.40618   0.00000  Uiso   1.00
C94    C     0.34485   0.96600   0.40732   0.00000  Uiso   1.00
C95    C     0.40191   0.98459   0.44956   0.00000  Uiso   1.00
C96    C     0.48810   0.95928   0.44279   0.00000  Uiso   1.00
C97    C     0.63435   0.93183   0.45176   0.00000  Uiso   1.00
C98    C     0.23361   0.04227   0.35504   0.00000  Uiso   1.00
C99    C     0.19712   0.12498   0.35331   0.00000  Uiso   1.00
C100   C     0.18965   0.16386   0.30252   0.00000  Uiso   1.00
C101   C     0.16313   0.25479   0.23031   0.00000  Uiso   1.00
C102   C     0.20067   0.90183   0.39645   0.00000  Uiso   1.00
C103   C     0.13647   0.86648   0.42953   0.00000  Uiso   1.00
C104   C     0.10126   0.78713   0.41360   0.00000  Uiso   1.00
C105   C     0.02360   0.66002   0.40568   0.00000  Uiso   1.00
C106   C     0.29951   0.90983   0.31904   0.00000  Uiso   1.00
C107   C     0.37287   0.92362   0.35999   0.00000  Uiso   1.00
C108   C     0.45899   0.89827   0.35315   0.00000  Uiso   1.00
C109   C     0.51617   0.91682   0.39537   0.00000  Uiso   1.00
C110   C     0.26163   0.99989   0.30771   0.00000  Uiso   1.00
C111   C     0.25420   0.03865   0.25691   0.00000  Uiso   1.00
C112   C     0.21772   0.12141   0.25510   0.00000  Uiso   1.00
C113   C     0.22869   0.85945   0.34912   0.00000  Uiso   1.00
C114   C     0.19356   0.78015   0.33312   0.00000  Uiso   1.00
C115   C     0.12933   0.74468   0.36618   0.00000  Uiso   1.00
H116   H     0.22610   0.02085   0.44302   0.00000  Uiso   1.00
H117   H     0.38020   0.01740   0.48618   0.00000  Uiso   1.00
H118   H     0.17544   0.15776   0.38995   0.00000  Uiso   1.00
H119   H     0.11480   0.89929   0.46615   0.00000  Uiso   1.00
H120   H     0.56341   0.99491   0.51315   0.00000  Uiso   1.00
H121   H     0.13163   0.29085   0.31023   0.00000  Uiso   1.00
H122   H     0.00377   0.74583   0.47093   0.00000  Uiso   1.00
H123   H     0.32133   0.87683   0.28219   0.00000  Uiso   1.00
H124   H     0.48066   0.86547   0.31652   0.00000  Uiso   1.00
H125   H     0.27589   0.00584   0.22029   0.00000  Uiso   1.00
H126   H     0.21526   0.74737   0.29650   0.00000  Uiso   1.00
H127   H     0.64495   0.87160   0.37545   0.00000  Uiso   1.00
H128   H     0.21315   0.16755   0.17253   0.00000  Uiso   1.00
H129   H     0.08530   0.62252   0.33323   0.00000  Uiso   1.00
O130   O     0.70728   0.92841   0.46978   0.00000  Uiso   1.00
O131   O     0.14077   0.31667   0.20356   0.00000  Uiso   1.00
O132   O     0.97303   0.60161   0.41440   0.00000  Uiso   1.00
N133   N     0.56073   0.96743   0.47604   0.00000  Uiso   1.00
N134   N     0.15705   0.24413   0.28632   0.00000  Uiso   1.00
N135   N     0.03750   0.73459   0.43655   0.00000  Uiso   1.00
N136   N     0.60461   0.90108   0.40194   0.00000  Uiso   1.00
N137   N     0.20092   0.17778   0.21222   0.00000  Uiso   1.00
N138   N     0.08137   0.66824   0.36246   0.00000  Uiso   1.00
C139   C     0.75208   0.01215   0.90618   0.00000  Uiso   1.00
C140   C     0.65515   0.03400   0.90732   0.00000  Uiso   1.00
C141   C     0.59809   0.01541   0.94956   0.00000  Uiso   1.00
C142   C     0.51190   0.04072   0.94279   0.00000  Uiso   1.00
C143   C     0.36565   0.06817   0.95176   0.00000  Uiso   1.00
C144   C     0.76639   0.95773   0.85504   0.00000  Uiso   1.00
C145   C     0.80288   0.87502   0.85331   0.00000  Uiso   1.00
C146   C     0.81035   0.83614   0.80252   0.00000  Uiso   1.00
C147   C     0.83687   0.74521   0.73031   0.00000  Uiso   1.00
C148   C     0.79933   0.09817   0.89645   0.00000  Uiso   1.00
C149   C     0.86353   0.13352   0.92953   0.00000  Uiso   1.00
C150   C     0.89874   0.21287   0.91360   0.00000  Uiso   1.00
C151   C     0.97640   0.33998   0.90568   0.00000  Uiso   1.00
C152   C     0.70049   0.09017   0.81904   0.00000  Uiso   1.00
C153   C     0.62713   0.07638   0.85999   0.00000  Uiso   1.00
C154   C     0.54101   0.10173   0.85315   0.00000  Uiso   1.00
C155   C     0.48383   0.08318   0.89537   0.00000  Uiso   1.00
C156   C     0.73837   0.00011   0.80771   0.00000  Uiso   1.00
C157   C     0.74580   0.96135   0.75691   0.00000  Uiso   1.00
C158   C     0.78228   0.87859   0.75510   0.00000  Uiso   1.00
C159   C     0.77131   0.14055   0.84912   0.00000  Uiso   1.00
C160   C     0.80644   0.21985   0.83312   0.00000  Uiso   1.00
C161   C     0.87067   0.25532   0.86618   0.00000  Uiso   1.00
H162   H     0.77390   0.97915   0.94302   0.00000  Uiso   1.00
H163   H     0.61980   0.98260   0.98618   0.00000  Uiso   1.00
H164   H     0.82456   0.84224   0.88995   0.00000  Uiso   1.00
H165   H     0.88520   0.10071   0.96615   0.00000  Uiso   1.00
H166   H     0.43659   0.00509   0.01315   0.00000  Uiso   1.00
H167   H     0.86837   0.70915   0.81023   0.00000  Uiso   1.00
H168   H     0.99623   0.25417   0.97093   0.00000  Uiso   1.00
H169   H     0.67867   0.12317   0.78219   0.00000  Uiso   1.00
H170   H     0.51934   0.13453   0.81652   0.00000  Uiso   1.00
H171   H     0.72411   0.99416   0.72029   0.00000  Uiso   1.00
H172   H     0.78474   0.25263   0.79650   0.00000  Uiso   1.00
H173   H     0.35505   0.12840   0.87545   0.00000  Uiso   1.00
H174   H     0.78685   0.83245   0.67253   0.00000  Uiso   1.00
H175   H     0.91470   0.37748   0.83323   0.00000  Uiso   1.00
O176   O     0.29272   0.07159   0.96978   0.00000  Uiso   1.00
O177   O     0.85923   0.68333   0.70356   0.00000  Uiso   1.00
O178   O     0.02697   0.39839   0.91440   0.00000  Uiso   1.00
N179   N     0.43927   0.03257   0.97604   0.00000  Uiso   1.00
N180   N     0.84295   0.75587   0.78632   0.00000  Uiso   1.00
N181   N     0.96250   0.26541   0.93655   0.00000  Uiso   1.00
N182   N     0.39539   0.09892   0.90194   0.00000  Uiso   1.00
N183   N     0.79908   0.82222   0.71222   0.00000  Uiso   1.00
N184   N     0.91863   0.33176   0.86246   0.00000  Uiso   1.00
C185   C     0.01215   0.75208   0.09382   0.00000  Uiso   1.00
C186   C     0.03400   0.65515   0.09268   0.00000  Uiso   1.00
C187   C     0.01541   0.59809   0.05044   0.00000  Uiso   1.00
C188   C     0.04072   0.51190   0.05721   0.00000  Uiso   1.00
C189   C     0.06817   0.36565   0.04824   0.00000  Uiso   1.00
C190   C     0.95773   0.76639   0.14496   0.00000  Uiso   1.00
C191   C     0.87502   0.80288   0.14669   0.00000  Uiso   1.00
C192   C     0.83614   0.81035   0.19748   0.00000  Uiso   1.00
C193   C     0.74521   0.83687   0.26969   0.00000  Uiso   1.00
C194   C     0.09817   0.79933   0.10355   0.00000  Uiso   1.00
C195   C     0.13352   0.86353   0.07047   0.00000  Uiso   1.00
C196   C     0.21287   0.89874   0.08640   0.00000  Uiso   1.00
C197   C     0.33998   0.97640   0.09432   0.00000  Uiso   1.00
C198   C     0.09017   0.70049   0.18096   0.00000  Uiso   1.00
C199   C     0.07638   0.62713   0.14001   0.00000  Uiso   1.00
C200   C     0.10173   0.54101   0.14685   0.00000  Uiso   1.00
C201   C     0.08318   0.48383   0.10463   0.00000  Uiso   1.00
C202   C     0.00011   0.73837   0.19229   0.00000  Uiso   1.00
C203   C     0.96135   0.74580   0.24309   0.00000  Uiso   1.00
C204   C     0.87859   0.78228   0.24490   0.00000  Uiso   1.00
C205   C     0.14055   0.77131   0.15088   0.00000  Uiso   1.00
C206   C     0.21985   0.80644   0.16688   0.00000  Uiso   1.00
C207   C     0.25532   0.87067   0.13382   0.00000  Uiso   1.00
H208   H     0.97915   0.77390   0.05698   0.00000  Uiso   1.00
H209   H     0.98260   0.61980   0.01382   0.00000  Uiso   1.00
H210   H     0.84224   0.82456   0.11005   0.00000  Uiso   1.00
H211   H     0.10071   0.88520   0.03385   0.00000  Uiso   1.00
H212   H     0.00509   0.43659   0.98685   0.00000  Uiso   1.00
H213   H     0.70915   0.86837   0.18977   0.00000  Uiso   1.00
H214   H     0.25417   0.99623   0.02907   0.00000  Uiso   1.00
H215   H     0.12317   0.67867   0.21781   0.00000  Uiso   1.00
H216   H     0.13453   0.51934   0.18348   0.00000  Uiso   1.00
H217   H     0.99416   0.72411   0.27971   0.00000  Uiso   1.00
H218   H     0.25263   0.78474   0.20350   0.00000  Uiso   1.00
H219   H     0.12840   0.35505   0.12455   0.00000  Uiso   1.00
H220   H     0.83245   0.78685   0.32747   0.00000  Uiso   1.00
H221   H     0.37748   0.91470   0.16677   0.00000  Uiso   1.00
O222   O     0.07159   0.29272   0.03022   0.00000  Uiso   1.00
O223   O     0.68333   0.85923   0.29644   0.00000  Uiso   1.00
O224   O     0.39839   0.02697   0.08560   0.00000  Uiso   1.00
N225   N     0.03257   0.43927   0.02396   0.00000  Uiso   1.00
N226   N     0.75587   0.84295   0.21368   0.00000  Uiso   1.00
N227   N     0.26541   0.96250   0.06345   0.00000  Uiso   1.00
N228   N     0.09892   0.39539   0.09806   0.00000  Uiso   1.00
N229   N     0.82222   0.79908   0.28778   0.00000  Uiso   1.00
N230   N     0.33176   0.91863   0.13754   0.00000  Uiso   1.00
C231   C     0.98785   0.24792   0.59382   0.00000  Uiso   1.00
C232   C     0.96600   0.34485   0.59268   0.00000  Uiso   1.00
C233   C     0.98459   0.40191   0.55044   0.00000  Uiso   1.00
C234   C     0.95928   0.48810   0.55721   0.00000  Uiso   1.00
C235   C     0.93183   0.63435   0.54824   0.00000  Uiso   1.00
C236   C     0.04227   0.23361   0.64496   0.00000  Uiso   1.00
C237   C     0.12498   0.19712   0.64669   0.00000  Uiso   1.00
C238   C     0.16386   0.18965   0.69748   0.00000  Uiso   1.00
C239   C     0.25479   0.16313   0.76969   0.00000  Uiso   1.00
C240   C     0.90183   0.20067   0.60355   0.00000  Uiso   1.00
C241   C     0.86648   0.13647   0.57047   0.00000  Uiso   1.00
C242   C     0.78713   0.10126   0.58640   0.00000  Uiso   1.00
C243   C     0.66002   0.02360   0.59432   0.00000  Uiso   1.00
C244   C     0.90983   0.29951   0.68096   0.00000  Uiso   1.00
C245   C     0.92362   0.37287   0.64001   0.00000  Uiso   1.00
C246   C     0.89827   0.45899   0.64685   0.00000  Uiso   1.00
C247   C     0.91682   0.51617   0.60463   0.00000  Uiso   1.00
C248   C     0.99989   0.26163   0.69229   0.00000  Uiso   1.00
C249   C     0.03865   0.25420   0.74309   0.00000  Uiso   1.00
C250   C     0.12141   0.21772   0.74490   0.00000  Uiso   1.00
C251   C     0.85945   0.22869   0.65088   0.00000  Uiso   1.00
C252   C     0.78015   0.19356   0.66688   0.00000  Uiso   1.00
C253   C     0.74468   0.12933   0.63382   0.00000  Uiso   1.00
H254   H     0.02085   0.22610   0.55698   0.00000  Uiso   1.00
H255   H     0.01740   0.38020   0.51382   0.00000  Uiso   1.00
H256   H     0.15776   0.17544   0.61005   0.00000  Uiso   1.00
H257   H     0.89929   0.11480   0.53385   0.00000  Uiso   1.00
H258   H     0.99491   0.56341   0.48685   0.00000  Uiso   1.00
H259   H     0.29085   0.13163   0.68977   0.00000  Uiso   1.00
H260   H     0.74583   0.00377   0.52907   0.00000  Uiso   1.00
H261   H     0.87683   0.32133   0.71781   0.00000  Uiso   1.00
H262   H     0.86547   0.48066   0.68348   0.00000  Uiso   1.00
H263   H     0.00584   0.27589   0.77971   0.00000  Uiso   1.00
H264   H     0.74737   0.21526   0.70350   0.00000  Uiso   1.00
H265   H     0.87160   0.64495   0.62455   0.00000  Uiso   1.00
H266   H     0.16755   0.21315   0.82747   0.00000  Uiso   1.00
H267   H     0.62252   0.08530   0.66677   0.00000  Uiso   1.00
O268   O     0.92841   0.70728   0.53022   0.00000  Uiso   1.00
O269   O     0.31667   0.14077   0.79644   0.00000  Uiso   1.00
O270   O     0.60161   0.97303   0.58560   0.00000  Uiso   1.00
N271   N     0.96743   0.56073   0.52396   0.00000  Uiso   1.00
N272   N     0.24413   0.15705   0.71368   0.00000  Uiso   1.00
N273   N     0.73459   0.03750   0.56345   0.00000  Uiso   1.00
N274   N     0.90108   0.60461   0.59806   0.00000  Uiso   1.00
N275   N     0.17778   0.20092   0.78778   0.00000  Uiso   1.00
N276   N     0.66824   0.08137   0.63754   0.00000  Uiso   1.00
C277   C     0.25208   0.48785   0.34382   0.00000  Uiso   1.00
C278   C     0.15515   0.46600   0.34268   0.00000  Uiso   1.00
C279   C     0.09809   0.48459   0.30044   0.00000  Uiso   1.00
C280   C     0.01190   0.45928   0.30721   0.00000  Uiso   1.00
C281   C     0.86565   0.43183   0.29824   0.00000  Uiso   1.00
C282   C     0.26639   0.54227   0.39496   0.00000  Uiso   1.00
C283   C     0.30288   0.62498   0.39669   0.00000  Uiso   1.00
C284   C     0.31035   0.66386   0.44748   0.00000  Uiso   1.00
C285   C     0.33687   0.75479   0.51969   0.00000  Uiso   1.00
C286   C     0.29933   0.40183   0.35355   0.00000  Uiso   1.00
C287   C     0.36353   0.36648   0.32047   0.00000  Uiso   1.00
C288   C     0.39874   0.28713   0.33640   0.00000  Uiso   1.00
C289   C     0.47640   0.16002   0.34432   0.00000  Uiso   1.00
C290   C     0.20049   0.40983   0.43096   0.00000  Uiso   1.00
C291   C     0.12713   0.42362   0.39001   0.00000  Uiso   1.00
C292   C     0.04101   0.39827   0.39685   0.00000  Uiso   1.00
C293   C     0.98383   0.41682   0.35463   0.00000  Uiso   1.00
C294   C     0.23837   0.49989   0.44229   0.00000  Uiso   1.00
C295   C     0.24580   0.53865   0.49309   0.00000  Uiso   1.00
C296   C     0.28228   0.62141   0.49490   0.00000  Uiso   1.00
C297   C     0.27131   0.35945   0.40088   0.00000  Uiso   1.00
C298   C     0.30644   0.28015   0.41688   0.00000  Uiso   1.00
C299   C     0.37067   0.24468   0.38382   0.00000  Uiso   1.00
H300   H     0.27390   0.52085   0.30698   0.00000  Uiso   1.00
H301   H     0.11980   0.51740   0.26382   0.00000  Uiso   1.00
H302   H     0.32456   0.65776   0.36005   0.00000  Uiso   1.00
H303   H     0.38520   0.39929   0.28385   0.00000  Uiso   1.00
H304   H     0.93659   0.49491   0.23685   0.00000  Uiso   1.00
H305   H     0.36837   0.79085   0.43977   0.00000  Uiso   1.00
H306   H     0.49623   0.24583   0.27907   0.00000  Uiso   1.00
H307   H     0.17867   0.37683   0.46781   0.00000  Uiso   1.00
H308   H     0.01934   0.36547   0.43348   0.00000  Uiso   1.00
H309   H     0.22411   0.50584   0.52971   0.00000  Uiso   1.00
H310   H     0.28474   0.24737   0.45350   0.00000  Uiso   1.00
H311   H     0.85505   0.37160   0.37455   0.00000  Uiso   1.00
H312   H     0.28685   0.66755   0.57747   0.00000  Uiso   1.00
H313   H     0.41470   0.12252   0.41677   0.00000  Uiso   1.00
O314   O     0.79272   0.42841   0.28022   0.00000  Uiso   1.00
O315   O     0.35923   0.81667   0.54644   0.00000  Uiso   1.00
O316   O     0.52697   0.10161   0.33560   0.00000  Uiso   1.00
N317   N     0.93927   0.46743   0.27396   0.00000  Uiso   1.00
N318   N     0.34295   0.74413   0.46368   0.00000  Uiso   1.00
N319   N     0.46250   0.23459   0.31345   0.00000  Uiso   1.00
N320   N     0.89539   0.40108   0.34806   0.00000  Uiso   1.00
N321   N     0.29908   0.67778   0.53778   0.00000  Uiso   1.00
N322   N     0.41863   0.16824   0.38754   0.00000  Uiso   1.00
C323   C     0.74792   0.51215   0.84382   0.00000  Uiso   1.00
C324   C     0.84485   0.53400   0.84268   0.00000  Uiso   1.00
C325   C     0.90191   0.51541   0.80044   0.00000  Uiso   1.00
C326   C     0.98810   0.54072   0.80721   0.00000  Uiso   1.00
C327   C     0.13435   0.56817   0.79824   0.00000  Uiso   1.00
C328   C     0.73361   0.45773   0.89496   0.00000  Uiso   1.00
C329   C     0.69712   0.37502   0.89669   0.00000  Uiso   1.00
C330   C     0.68965   0.33614   0.94748   0.00000  Uiso   1.00
C331   C     0.66313   0.24521   0.01969   0.00000  Uiso   1.00
C332   C     0.70067   0.59817   0.85355   0.00000  Uiso   1.00
C333   C     0.63647   0.63352   0.82047   0.00000  Uiso   1.00
C334   C     0.60126   0.71287   0.83640   0.00000  Uiso   1.00
C335   C     0.52360   0.83998   0.84432   0.00000  Uiso   1.00
C336   C     0.79951   0.59017   0.93096   0.00000  Uiso   1.00
C337   C     0.87287   0.57638   0.89001   0.00000  Uiso   1.00
C338   C     0.95899   0.60173   0.89685   0.00000  Uiso   1.00
C339   C     0.01617   0.58318   0.85463   0.00000  Uiso   1.00
C340   C     0.76163   0.50011   0.94229   0.00000  Uiso   1.00
C341   C     0.75420   0.46135   0.99309   0.00000  Uiso   1.00
C342   C     0.71772   0.37859   0.99490   0.00000  Uiso   1.00
C343   C     0.72869   0.64055   0.90088   0.00000  Uiso   1.00
C344   C     0.69356   0.71985   0.91688   0.00000  Uiso   1.00
C345   C     0.62933   0.75532   0.88382   0.00000  Uiso   1.00
H346   H     0.72610   0.47915   0.80698   0.00000  Uiso   1.00
H347   H     0.88020   0.48260   0.76382   0.00000  Uiso   1.00
H348   H     0.67544   0.34224   0.86005   0.00000  Uiso   1.00
H349   H     0.61480   0.60071   0.78385   0.00000  Uiso   1.00
H350   H     0.06341   0.50509   0.73685   0.00000  Uiso   1.00
H351   H     0.63163   0.20915   0.93977   0.00000  Uiso   1.00
H352   H     0.50377   0.75417   0.77907   0.00000  Uiso   1.00
H353   H     0.82133   0.62317   0.96781   0.00000  Uiso   1.00
H354   H     0.98066   0.63453   0.93348   0.00000  Uiso   1.00
H355   H     0.77589   0.49416   0.02971   0.00000  Uiso   1.00
H356   H     0.71526   0.75263   0.95350   0.00000  Uiso   1.00
H357   H     0.14495   0.62840   0.87455   0.00000  Uiso   1.00
H358   H     0.71315   0.33245   0.07747   0.00000  Uiso   1.00
H359   H     0.58530   0.87748   0.91677   0.00000  Uiso   1.00
O360   O     0.20728   0.57159   0.78022   0.00000  Uiso   1.00
O361   O     0.64077   0.18333   0.04644   0.00000  Uiso   1.00
O362   O     0.47303   0.89839   0.83560   0.00000  Uiso   1.00
N363   N     0.06073   0.53257   0.77396   0.00000  Uiso   1.00
N364   N     0.65705   0.25587   0.96368   0.00000  Uiso   1.00
N365   N     0.53750   0.76541   0.81345   0.00000  Uiso   1.00
N366   N     0.10461   0.59892   0.84806   0.00000  Uiso   1.00
N367   N     0.70092   0.32222   0.03778   0.00000  Uiso   1.00
N368   N     0.58137   0.83176   0.88754   0.00000  Uiso   1.00
