data_job_06969
_audit_creation_date              2018-12-19
_audit_creation_method            'Materials Studio'
_symmetry_space_group_name_H-M    'P1'
_symmetry_Int_Tables_number       1
_symmetry_cell_setting            triclinic
loop_
_symmetry_equiv_pos_as_xyz
  x,y,z
_cell_length_a                    18.5548
_cell_length_b                    21.2220
_cell_length_c                    23.9679
_cell_angle_alpha                 76.3368
_cell_angle_beta                  86.5211
_cell_angle_gamma                 64.2264
loop_
_atom_site_label
_atom_site_type_symbol
_atom_site_fract_x
_atom_site_fract_y
_atom_site_fract_z
_atom_site_U_iso_or_equiv
_atom_site_adp_type
_atom_site_occupancy
C1     C     0.75622   0.25305   0.03790   0.00000  Uiso   1.00
C2     C     0.68710   0.30465   0.99458   0.00000  Uiso   1.00
C3     C     0.63028   0.28847   0.97416   0.00000  Uiso   1.00
C4     C     0.57185   0.34307   0.93467   0.00000  Uiso   1.00
C5     C     0.46477   0.41280   0.87017   0.00000  Uiso   1.00
C6     C     0.83235   0.25099   0.00878   0.00000  Uiso   1.00
C7     C     0.89765   0.18968   0.00032   0.00000  Uiso   1.00
C8     C     0.96150   0.19912   0.97280   0.00000  Uiso   1.00
C9     C     0.07995   0.18552   0.93039   0.00000  Uiso   1.00
C10    C     0.74735   0.28969   0.08718   0.00000  Uiso   1.00
C11    C     0.74121   0.26091   0.14463   0.00000  Uiso   1.00
C12    C     0.73352   0.30292   0.18311   0.00000  Uiso   1.00
C13    C     0.71999   0.34940   0.26242   0.00000  Uiso   1.00
C14    C     0.75349   0.37881   0.00410   0.00000  Uiso   1.00
C15    C     0.68562   0.37296   0.97622   0.00000  Uiso   1.00
C16    C     0.62726   0.42760   0.93676   0.00000  Uiso   1.00
C17    C     0.57037   0.41150   0.91628   0.00000  Uiso   1.00
C18    C     0.83087   0.31929   0.99042   0.00000  Uiso   1.00
C19    C     0.89464   0.32882   0.96291   0.00000  Uiso   1.00
C20    C     0.96002   0.26754   0.95440   0.00000  Uiso   1.00
C21    C     0.74587   0.35799   0.06882   0.00000  Uiso   1.00
C22    C     0.73819   0.40005   0.10722   0.00000  Uiso   1.00
C23    C     0.73204   0.37135   0.16472   0.00000  Uiso   1.00
H24    H     0.75737   0.19987   0.05220   0.00000  Uiso   1.00
H25    H     0.63145   0.23560   0.98837   0.00000  Uiso   1.00
H26    H     0.89878   0.13683   0.01453   0.00000  Uiso   1.00
H27    H     0.74236   0.20805   0.15882   0.00000  Uiso   1.00
H28    H     0.49120   0.30533   0.90950   0.00000  Uiso   1.00
H29    H     0.05490   0.09707   0.96468   0.00000  Uiso   1.00
H30    H     0.72505   0.24724   0.26893   0.00000  Uiso   1.00
H31    H     0.75234   0.43199   0.98980   0.00000  Uiso   1.00
H32    H     0.62613   0.48046   0.92255   0.00000  Uiso   1.00
H33    H     0.89348   0.38168   0.94871   0.00000  Uiso   1.00
H34    H     0.73705   0.45290   0.09300   0.00000  Uiso   1.00
H35    H     0.48689   0.50406   0.85608   0.00000  Uiso   1.00
H36    H     0.05060   0.29580   0.91126   0.00000  Uiso   1.00
H37    H     0.72074   0.44598   0.21551   0.00000  Uiso   1.00
O38    O     0.40613   0.43238   0.83966   0.00000  Uiso   1.00
O39    O     0.14569   0.15915   0.91206   0.00000  Uiso   1.00
O40    O     0.71293   0.35618   0.31124   0.00000  Uiso   1.00
N41    N     0.50749   0.34545   0.90616   0.00000  Uiso   1.00
N42    N     0.03452   0.15074   0.95774   0.00000  Uiso   1.00
N43    N     0.72616   0.29114   0.24220   0.00000  Uiso   1.00
N44    N     0.50518   0.45239   0.87742   0.00000  Uiso   1.00
N45    N     0.03220   0.25768   0.92900   0.00000  Uiso   1.00
N46    N     0.72384   0.39807   0.21345   0.00000  Uiso   1.00
C47    C     0.24827   0.86555   0.90021   0.00000  Uiso   1.00
C48    C     0.29041   0.91476   0.88738   0.00000  Uiso   1.00
C49    C     0.26331   0.98131   0.90071   0.00000  Uiso   1.00
C50    C     0.31050   0.01802   0.88537   0.00000  Uiso   1.00
C51    C     0.36501   0.09883   0.86962   0.00000  Uiso   1.00
C52    C     0.23596   0.85179   0.84268   0.00000  Uiso   1.00
C53    C     0.16308   0.86540   0.81844   0.00000  Uiso   1.00
C54    C     0.16444   0.84910   0.76547   0.00000  Uiso   1.00
C55    C     0.13441   0.83211   0.68035   0.00000  Uiso   1.00
C56    C     0.30889   0.79369   0.93566   0.00000  Uiso   1.00
C57    C     0.29733   0.75842   0.98959   0.00000  Uiso   1.00
C58    C     0.36009   0.69318   0.01491   0.00000  Uiso   1.00
C59    C     0.44331   0.58597   0.07416   0.00000  Uiso   1.00
C60    C     0.38027   0.81240   0.84926   0.00000  Uiso   1.00
C61    C     0.36210   0.88588   0.85970   0.00000  Uiso   1.00
C62    C     0.40935   0.92250   0.84434   0.00000  Uiso   1.00
C63    C     0.38233   0.98909   0.85765   0.00000  Uiso   1.00
C64    C     0.30765   0.82292   0.81500   0.00000  Uiso   1.00
C65    C     0.30912   0.80659   0.76207   0.00000  Uiso   1.00
C66    C     0.23626   0.82017   0.73775   0.00000  Uiso   1.00
C67    C     0.38059   0.76481   0.90799   0.00000  Uiso   1.00
C68    C     0.44338   0.69961   0.93322   0.00000  Uiso   1.00
C69    C     0.43192   0.66426   0.98718   0.00000  Uiso   1.00
H70    H     0.19245   0.88803   0.92176   0.00000  Uiso   1.00
H71    H     0.20782   0.00364   0.92212   0.00000  Uiso   1.00
H72    H     0.10761   0.88774   0.83987   0.00000  Uiso   1.00
H73    H     0.24184   0.78078   0.01100   0.00000  Uiso   1.00
H74    H     0.25646   0.11909   0.91031   0.00000  Uiso   1.00
H75    H     0.04516   0.87469   0.73687   0.00000  Uiso   1.00
H76    H     0.32822   0.64913   0.09773   0.00000  Uiso   1.00
H77    H     0.43609   0.78992   0.82771   0.00000  Uiso   1.00
H78    H     0.46483   0.90014   0.82292   0.00000  Uiso   1.00
H79    H     0.36461   0.78424   0.74067   0.00000  Uiso   1.00
H80    H     0.49885   0.67728   0.91179   0.00000  Uiso   1.00
H81    H     0.46506   0.03509   0.82979   0.00000  Uiso   1.00
H82    H     0.25376   0.79068   0.65636   0.00000  Uiso   1.00
H83    H     0.53682   0.56514   0.01722   0.00000  Uiso   1.00
O84    O     0.37526   0.15138   0.86857   0.00000  Uiso   1.00
O85    O     0.09804   0.83072   0.64105   0.00000  Uiso   1.00
O86    O     0.46941   0.53481   0.11449   0.00000  Uiso   1.00
N87    N     0.30162   0.08419   0.89202   0.00000  Uiso   1.00
N88    N     0.10406   0.85570   0.72987   0.00000  Uiso   1.00
N89    N     0.36869   0.64482   0.06724   0.00000  Uiso   1.00
N90    N     0.41387   0.03899   0.84870   0.00000  Uiso   1.00
N91    N     0.21631   0.81050   0.68655   0.00000  Uiso   1.00
N92    N     0.48094   0.59962   0.02391   0.00000  Uiso   1.00
C93    C     0.77997   0.87341   0.81641   0.00000  Uiso   1.00
C94    C     0.79770   0.88846   0.75294   0.00000  Uiso   1.00
C95    C     0.87264   0.87531   0.73121   0.00000  Uiso   1.00
C96    C     0.87631   0.89284   0.67185   0.00000  Uiso   1.00
C97    C     0.91430   0.91174   0.57881   0.00000  Uiso   1.00
C98    C     0.71733   0.94480   0.82700   0.00000  Uiso   1.00
C99    C     0.72469   0.97901   0.86755   0.00000  Uiso   1.00
C100   C     0.66070   0.04396   0.87054   0.00000  Uiso   1.00
C101   C     0.57389   0.15030   0.89252   0.00000  Uiso   1.00
C102   C     0.73802   0.82432   0.82351   0.00000  Uiso   1.00
C103   C     0.76278   0.75724   0.86114   0.00000  Uiso   1.00
C104   C     0.71619   0.72075   0.86120   0.00000  Uiso   1.00
C105   C     0.66152   0.64003   0.87777   0.00000  Uiso   1.00
C106   C     0.65322   0.92791   0.74962   0.00000  Uiso   1.00
C107   C     0.72885   0.91806   0.71666   0.00000  Uiso   1.00
C108   C     0.73241   0.93561   0.65732   0.00000  Uiso   1.00
C109   C     0.80734   0.92249   0.63550   0.00000  Uiso   1.00
C110   C     0.64849   0.97440   0.79073   0.00000  Uiso   1.00
C111   C     0.58446   0.03931   0.79366   0.00000  Uiso   1.00
C112   C     0.59173   0.07361   0.83420   0.00000  Uiso   1.00
C113   C     0.66918   0.85392   0.78724   0.00000  Uiso   1.00
C114   C     0.62255   0.81753   0.78724   0.00000  Uiso   1.00
C115   C     0.64722   0.75041   0.82486   0.00000  Uiso   1.00
H116   H     0.83356   0.85037   0.84465   0.00000  Uiso   1.00
H117   H     0.92590   0.85241   0.75930   0.00000  Uiso   1.00
H118   H     0.77797   0.95609   0.89562   0.00000  Uiso   1.00
H119   H     0.81605   0.73435   0.88921   0.00000  Uiso   1.00
H120   H     0.99790   0.86775   0.64867   0.00000  Uiso   1.00
H121   H     0.68598   0.08636   0.93613   0.00000  Uiso   1.00
H122   H     0.76628   0.61877   0.92261   0.00000  Uiso   1.00
H123   H     0.59962   0.95095   0.72138   0.00000  Uiso   1.00
H124   H     0.67912   0.95851   0.62926   0.00000  Uiso   1.00
H125   H     0.53119   0.06220   0.76558   0.00000  Uiso   1.00
H126   H     0.56928   0.84046   0.75917   0.00000  Uiso   1.00
H127   H     0.79761   0.95388   0.54312   0.00000  Uiso   1.00
H128   H     0.48568   0.17248   0.83059   0.00000  Uiso   1.00
H129   H     0.56599   0.70489   0.81706   0.00000  Uiso   1.00
O130   O     0.95427   0.91400   0.53752   0.00000  Uiso   1.00
O131   O     0.54503   0.20078   0.91467   0.00000  Uiso   1.00
O132   O     0.65039   0.58733   0.89692   0.00000  Uiso   1.00
N133   N     0.93986   0.88697   0.63647   0.00000  Uiso   1.00
N134   N     0.64823   0.09136   0.90522   0.00000  Uiso   1.00
N135   N     0.72330   0.65421   0.89259   0.00000  Uiso   1.00
N136   N     0.83208   0.93331   0.57968   0.00000  Uiso   1.00
N137   N     0.54046   0.13770   0.84843   0.00000  Uiso   1.00
N138   N     0.61552   0.70055   0.83580   0.00000  Uiso   1.00
C139   C     0.98724   0.43060   0.24754   0.00000  Uiso   1.00
C140   C     0.97740   0.44166   0.18274   0.00000  Uiso   1.00
C141   C     0.90520   0.47641   0.15072   0.00000  Uiso   1.00
C142   C     0.90890   0.48097   0.09195   0.00000  Uiso   1.00
C143   C     0.88247   0.50262   0.99525   0.00000  Uiso   1.00
C144   C     0.04290   0.46362   0.25621   0.00000  Uiso   1.00
C145   C     0.02577   0.51683   0.28597   0.00000  Uiso   1.00
C146   C     0.08462   0.53987   0.28906   0.00000  Uiso   1.00
C147   C     0.15990   0.59558   0.30646   0.00000  Uiso   1.00
C148   C     0.03391   0.34970   0.27116   0.00000  Uiso   1.00
C149   C     0.00924   0.30713   0.31351   0.00000  Uiso   1.00
C150   C     0.06053   0.23425   0.32919   0.00000  Uiso   1.00
C151   C     0.12186   0.11308   0.36981   0.00000  Uiso   1.00
C152   C     0.12221   0.37687   0.20011   0.00000  Uiso   1.00
C153   C     0.05071   0.41248   0.15698   0.00000  Uiso   1.00
C154   C     0.05453   0.41698   0.09825   0.00000  Uiso   1.00
C155   C     0.98234   0.45173   0.06615   0.00000  Uiso   1.00
C156   C     0.11621   0.43444   0.23045   0.00000  Uiso   1.00
C157   C     0.17510   0.45740   0.23350   0.00000  Uiso   1.00
C158   C     0.15806   0.51064   0.26326   0.00000  Uiso   1.00
C159   C     0.10723   0.32052   0.24540   0.00000  Uiso   1.00
C160   C     0.15857   0.24769   0.26103   0.00000  Uiso   1.00
C161   C     0.13398   0.20502   0.30339   0.00000  Uiso   1.00
H162   H     0.93017   0.45331   0.26759   0.00000  Uiso   1.00
H163   H     0.84847   0.49899   0.17067   0.00000  Uiso   1.00
H164   H     0.96903   0.53940   0.30591   0.00000  Uiso   1.00
H165   H     0.95250   0.32973   0.33343   0.00000  Uiso   1.00
H166   H     0.79023   0.53679   0.05185   0.00000  Uiso   1.00
H167   H     0.04445   0.62198   0.33702   0.00000  Uiso   1.00
H168   H     0.00960   0.17984   0.39507   0.00000  Uiso   1.00
H169   H     0.17929   0.35416   0.18006   0.00000  Uiso   1.00
H170   H     0.11127   0.39439   0.07833   0.00000  Uiso   1.00
H171   H     0.23183   0.43480   0.21356   0.00000  Uiso   1.00
H172   H     0.21530   0.22513   0.24109   0.00000  Uiso   1.00
H173   H     0.00353   0.45190   0.97690   0.00000  Uiso   1.00
H174   H     0.25775   0.53708   0.26207   0.00000  Uiso   1.00
H175   H     0.22289   0.09495   0.32011   0.00000  Uiso   1.00
O176   O     0.84764   0.52263   0.94903   0.00000  Uiso   1.00
O177   O     0.18117   0.63437   0.32317   0.00000  Uiso   1.00
O178   O     0.13544   0.05430   0.39932   0.00000  Uiso   1.00
N179   N     0.84977   0.51128   0.04817   0.00000  Uiso   1.00
N180   N     0.08744   0.59093   0.31478   0.00000  Uiso   1.00
N181   N     0.05486   0.17757   0.36906   0.00000  Uiso   1.00
N182   N     0.96454   0.46560   0.00784   0.00000  Uiso   1.00
N183   N     0.20221   0.54525   0.27445   0.00000  Uiso   1.00
N184   N     0.16964   0.13189   0.32873   0.00000  Uiso   1.00
C185   C     0.90509   0.68332   0.42680   0.00000  Uiso   1.00
C186   C     0.95797   0.71486   0.44380   0.00000  Uiso   1.00
C187   C     0.01868   0.72486   0.41188   0.00000  Uiso   1.00
C188   C     0.06015   0.75453   0.43485   0.00000  Uiso   1.00
C189   C     0.14507   0.80066   0.45317   0.00000  Uiso   1.00
C190   C     0.81894   0.73958   0.42729   0.00000  Uiso   1.00
C191   C     0.76276   0.77036   0.38149   0.00000  Uiso   1.00
C192   C     0.68718   0.82082   0.39056   0.00000  Uiso   1.00
C193   C     0.55624   0.90529   0.38326   0.00000  Uiso   1.00
C194   C     0.91482   0.61944   0.47616   0.00000  Uiso   1.00
C195   C     0.93924   0.54920   0.47145   0.00000  Uiso   1.00
C196   C     0.94437   0.49852   0.52167   0.00000  Uiso   1.00
C197   C     0.96230   0.39645   0.59024   0.00000  Uiso   1.00
C198   C     0.87076   0.71823   0.52434   0.00000  Uiso   1.00
C199   C     0.93932   0.73382   0.49678   0.00000  Uiso   1.00
C200   C     0.98070   0.76348   0.51981   0.00000  Uiso   1.00
C201   C     0.04147   0.77352   0.48793   0.00000  Uiso   1.00
C202   C     0.80029   0.75854   0.48027   0.00000  Uiso   1.00
C203   C     0.72478   0.80897   0.48941   0.00000  Uiso   1.00
C204   C     0.66850   0.83982   0.44364   0.00000  Uiso   1.00
C205   C     0.89618   0.63840   0.52914   0.00000  Uiso   1.00
C206   C     0.90126   0.58782   0.57937   0.00000  Uiso   1.00
C207   C     0.92569   0.51751   0.57475   0.00000  Uiso   1.00
H208   H     0.91960   0.66856   0.38555   0.00000  Uiso   1.00
H209   H     0.03309   0.71019   0.37088   0.00000  Uiso   1.00
H210   H     0.77721   0.75567   0.34049   0.00000  Uiso   1.00
H211   H     0.95366   0.53455   0.43044   0.00000  Uiso   1.00
H212   H     0.15067   0.76472   0.37797   0.00000  Uiso   1.00
H213   H     0.61112   0.86060   0.31391   0.00000  Uiso   1.00
H214   H     0.98321   0.39433   0.50358   0.00000  Uiso   1.00
H215   H     0.85624   0.73299   0.56559   0.00000  Uiso   1.00
H216   H     0.96626   0.77815   0.56081   0.00000  Uiso   1.00
H217   H     0.71037   0.82363   0.53042   0.00000  Uiso   1.00
H218   H     0.88683   0.60251   0.62037   0.00000  Uiso   1.00
H219   H     0.09643   0.81988   0.53212   0.00000  Uiso   1.00
H220   H     0.55687   0.91576   0.46806   0.00000  Uiso   1.00
H221   H     0.92896   0.44949   0.65773   0.00000  Uiso   1.00
O222   O     0.19705   0.82087   0.44864   0.00000  Uiso   1.00
O223   O     0.48917   0.94665   0.36459   0.00000  Uiso   1.00
O224   O     0.97735   0.33491   0.61344   0.00000  Uiso   1.00
N225   N     0.12282   0.77150   0.41491   0.00000  Uiso   1.00
N226   N     0.61837   0.86114   0.35501   0.00000  Uiso   1.00
N227   N     0.96623   0.42522   0.53234   0.00000  Uiso   1.00
N228   N     0.09363   0.80118   0.49786   0.00000  Uiso   1.00
N229   N     0.58918   0.89082   0.43796   0.00000  Uiso   1.00
N230   N     0.93704   0.45490   0.61529   0.00000  Uiso   1.00
C231   C     0.58910   0.67879   0.25827   0.00000  Uiso   1.00
C232   C     0.51242   0.74803   0.25440   0.00000  Uiso   1.00
C233   C     0.49909   0.80032   0.28439   0.00000  Uiso   1.00
C234   C     0.42496   0.85973   0.27490   0.00000  Uiso   1.00
C235   C     0.31484   0.96622   0.27467   0.00000  Uiso   1.00
C236   C     0.61684   0.67941   0.19702   0.00000  Uiso   1.00
C237   C     0.69131   0.67400   0.17876   0.00000  Uiso   1.00
C238   C     0.70509   0.67563   0.12096   0.00000  Uiso   1.00
C239   C     0.75711   0.67554   0.03166   0.00000  Uiso   1.00
C240   C     0.56405   0.61752   0.27527   0.00000  Uiso   1.00
C241   C     0.59415   0.56005   0.32281   0.00000  Uiso   1.00
C242   C     0.56348   0.50956   0.33089   0.00000  Uiso   1.00
C243   C     0.53353   0.41336   0.36309   0.00000  Uiso   1.00
C244   C     0.48115   0.69131   0.18807   0.00000  Uiso   1.00
C245   C     0.45379   0.75483   0.21627   0.00000  Uiso   1.00
C246   C     0.37966   0.81417   0.20673   0.00000  Uiso   1.00
C247   C     0.36622   0.86654   0.23670   0.00000  Uiso   1.00
C248   C     0.55822   0.68621   0.15889   0.00000  Uiso   1.00
C249   C     0.57189   0.68785   0.10110   0.00000  Uiso   1.00
C250   C     0.64635   0.68244   0.08277   0.00000  Uiso   1.00
C251   C     0.50542   0.62432   0.23715   0.00000  Uiso   1.00
C252   C     0.47471   0.57390   0.24515   0.00000  Uiso   1.00
C253   C     0.50475   0.51637   0.29270   0.00000  Uiso   1.00
H254   H     0.63475   0.67350   0.28795   0.00000  Uiso   1.00
H255   H     0.54448   0.79504   0.31389   0.00000  Uiso   1.00
H256   H     0.73668   0.66873   0.20828   0.00000  Uiso   1.00
H257   H     0.63952   0.55480   0.35231   0.00000  Uiso   1.00
H258   H     0.41856   0.93281   0.32582   0.00000  Uiso   1.00
H259   H     0.82382   0.66645   0.10314   0.00000  Uiso   1.00
H260   H     0.61895   0.42621   0.40685   0.00000  Uiso   1.00
H261   H     0.43550   0.69661   0.15839   0.00000  Uiso   1.00
H262   H     0.33430   0.81942   0.17722   0.00000  Uiso   1.00
H263   H     0.52650   0.69311   0.07161   0.00000  Uiso   1.00
H264   H     0.42934   0.57918   0.21564   0.00000  Uiso   1.00
H265   H     0.24797   0.95260   0.21490   0.00000  Uiso   1.00
H266   H     0.65324   0.68623   0.99222   0.00000  Uiso   1.00
H267   H     0.44836   0.44599   0.29593   0.00000  Uiso   1.00
O268   O     0.27030   0.02309   0.28507   0.00000  Uiso   1.00
O269   O     0.80200   0.67362   0.99293   0.00000  Uiso   1.00
O270   O     0.53320   0.35843   0.39139   0.00000  Uiso   1.00
N271   N     0.39230   0.92060   0.29714   0.00000  Uiso   1.00
N272   N     0.77119   0.67158   0.08895   0.00000  Uiso   1.00
N273   N     0.57966   0.44697   0.37288   0.00000  Uiso   1.00
N274   N     0.30050   0.93125   0.23745   0.00000  Uiso   1.00
N275   N     0.67940   0.68223   0.02926   0.00000  Uiso   1.00
N276   N     0.48787   0.45762   0.31319   0.00000  Uiso   1.00
C277   C     0.09609   0.72154   0.91341   0.00000  Uiso   1.00
C278   C     0.13346   0.65291   0.96073   0.00000  Uiso   1.00
C279   C     0.21261   0.61944   0.98161   0.00000  Uiso   1.00
C280   C     0.23512   0.55713   0.02501   0.00000  Uiso   1.00
C281   C     0.30146   0.45482   0.09522   0.00000  Uiso   1.00
C282   C     0.02484   0.77412   0.93937   0.00000  Uiso   1.00
C283   C     0.01266   0.84256   0.94227   0.00000  Uiso   1.00
C284   C     0.94372   0.88229   0.96768   0.00000  Uiso   1.00
C285   C     0.84140   0.96817   0.00468   0.00000  Uiso   1.00
C286   C     0.06090   0.70254   0.86749   0.00000  Uiso   1.00
C287   C     0.07903   0.71082   0.80996   0.00000  Uiso   1.00
C288   C     0.04045   0.69029   0.77485   0.00000  Uiso   1.00
C289   C     0.99413   0.66504   0.70026   0.00000  Uiso   1.00
C290   C     0.99531   0.67039   0.95335   0.00000  Uiso   1.00
C291   C     0.07872   0.62513   0.98243   0.00000  Uiso   1.00
C292   C     0.10112   0.56285   0.02580   0.00000  Uiso   1.00
C293   C     0.18029   0.52930   0.04674   0.00000  Uiso   1.00
C294   C     0.97010   0.74634   0.96106   0.00000  Uiso   1.00
C295   C     0.90116   0.78598   0.98647   0.00000  Uiso   1.00
C296   C     0.88889   0.85446   0.98941   0.00000  Uiso   1.00
C297   C     0.00617   0.67476   0.88919   0.00000  Uiso   1.00
C298   C     0.96754   0.65423   0.85416   0.00000  Uiso   1.00
C299   C     0.98562   0.66246   0.79659   0.00000  Uiso   1.00
H300   H     0.13870   0.74317   0.89652   0.00000  Uiso   1.00
H301   H     0.25495   0.64096   0.96481   0.00000  Uiso   1.00
H302   H     0.05502   0.86405   0.92548   0.00000  Uiso   1.00
H303   H     0.12139   0.73232   0.79319   0.00000  Uiso   1.00
H304   H     0.35969   0.51541   0.05012   0.00000  Uiso   1.00
H305   H     0.93812   0.98581   0.96715   0.00000  Uiso   1.00
H306   H     0.07808   0.70803   0.68820   0.00000  Uiso   1.00
H307   H     0.95270   0.64877   0.97024   0.00000  Uiso   1.00
H308   H     0.05875   0.54137   0.04258   0.00000  Uiso   1.00
H309   H     0.85882   0.76446   0.00325   0.00000  Uiso   1.00
H310   H     0.92519   0.63273   0.87096   0.00000  Uiso   1.00
H311   H     0.20044   0.43458   0.11324   0.00000  Uiso   1.00
H312   H     0.77887   0.90498   0.03027   0.00000  Uiso   1.00
H313   H     0.91883   0.62720   0.75132   0.00000  Uiso   1.00
O314   O     0.35317   0.40606   0.12795   0.00000  Uiso   1.00
O315   O     0.80009   0.02321   0.01909   0.00000  Uiso   1.00
O316   O     0.98371   0.65877   0.65312   0.00000  Uiso   1.00
N317   N     0.30766   0.51111   0.05504   0.00000  Uiso   1.00
N318   N     0.91352   0.95091   0.97748   0.00000  Uiso   1.00
N319   N     0.04436   0.69123   0.71668   0.00000  Uiso   1.00
N320   N     0.22197   0.46762   0.08900   0.00000  Uiso   1.00
N321   N     0.82783   0.90741   0.01144   0.00000  Uiso   1.00
N322   N     0.95867   0.64773   0.75064   0.00000  Uiso   1.00
C323   C     0.47582   0.10064   0.03758   0.00000  Uiso   1.00
C324   C     0.47678   0.03267   0.02595   0.00000  Uiso   1.00
C325   C     0.52349   0.99508   0.98672   0.00000  Uiso   1.00
C326   C     0.51571   0.93418   0.98246   0.00000  Uiso   1.00
C327   C     0.52525   0.83203   0.95929   0.00000  Uiso   1.00
C328   C     0.49537   0.08378   0.10183   0.00000  Uiso   1.00
C329   C     0.55769   0.08916   0.12639   0.00000  Uiso   1.00
C330   C     0.56555   0.07130   0.18600   0.00000  Uiso   1.00
C331   C     0.60390   0.04854   0.28063   0.00000  Uiso   1.00
C332   C     0.38892   0.15718   0.02759   0.00000  Uiso   1.00
C333   C     0.36174   0.22428   0.98974   0.00000  Uiso   1.00
C334   C     0.27998   0.26822   0.98686   0.00000  Uiso   1.00
C335   C     0.15306   0.35943   0.96622   0.00000  Uiso   1.00
C336   C     0.37895   0.05935   0.09978   0.00000  Uiso   1.00
C337   C     0.42417   0.01025   0.05974   0.00000  Uiso   1.00
C338   C     0.41632   0.94939   0.05553   0.00000  Uiso   1.00
C339   C     0.46300   0.91172   0.01630   0.00000  Uiso   1.00
C340   C     0.44276   0.06135   0.13561   0.00000  Uiso   1.00
C341   C     0.45052   0.04348   0.19520   0.00000  Uiso   1.00
C342   C     0.51284   0.04883   0.21985   0.00000  Uiso   1.00
C343   C     0.33631   0.13475   0.06137   0.00000  Uiso   1.00
C344   C     0.25457   0.17860   0.05855   0.00000  Uiso   1.00
C345   C     0.22727   0.24575   0.02071   0.00000  Uiso   1.00
H346   H     0.51678   0.11810   0.01129   0.00000  Uiso   1.00
H347   H     0.56420   0.01245   0.96059   0.00000  Uiso   1.00
H348   H     0.59839   0.10653   0.10024   0.00000  Uiso   1.00
H349   H     0.40247   0.24162   0.96361   0.00000  Uiso   1.00
H350   H     0.59360   0.88540   0.91930   0.00000  Uiso   1.00
H351   H     0.66568   0.08379   0.21375   0.00000  Uiso   1.00
H352   H     0.25254   0.36867   0.92564   0.00000  Uiso   1.00
H353   H     0.33799   0.04189   0.12608   0.00000  Uiso   1.00
H354   H     0.37560   0.93205   0.08168   0.00000  Uiso   1.00
H355   H     0.40980   0.02613   0.22133   0.00000  Uiso   1.00
H356   H     0.21388   0.16122   0.08470   0.00000  Uiso   1.00
H357   H     0.44053   0.82015   0.01759   0.00000  Uiso   1.00
H358   H     0.51260   0.01854   0.31204   0.00000  Uiso   1.00
H359   H     0.09947   0.30342   0.02393   0.00000  Uiso   1.00
O360   O     0.54505   0.78188   0.93718   0.00000  Uiso   1.00
O361   O     0.63960   0.04218   0.32349   0.00000  Uiso   1.00
O362   O     0.09758   0.41593   0.94549   0.00000  Uiso   1.00
N363   N     0.55240   0.88513   0.94852   0.00000  Uiso   1.00
N364   N     0.61980   0.07060   0.22381   0.00000  Uiso   1.00
N365   N     0.23355   0.33695   0.95446   0.00000  Uiso   1.00
N366   N     0.47003   0.85002   0.00140   0.00000  Uiso   1.00
N367   N     0.53743   0.03549   0.27670   0.00000  Uiso   1.00
N368   N     0.15118   0.30183   0.00735   0.00000  Uiso   1.00
C369   C     0.96148   0.97626   0.20759   0.00000  Uiso   1.00
C370   C     0.93624   0.97073   0.26964   0.00000  Uiso   1.00
C371   C     0.86114   0.97843   0.28810   0.00000  Uiso   1.00
C372   C     0.85000   0.97145   0.34666   0.00000  Uiso   1.00
C373   C     0.80143   0.96498   0.43712   0.00000  Uiso   1.00
C374   C     0.03475   0.90570   0.20720   0.00000  Uiso   1.00
C375   C     0.04247   0.85873   0.17315   0.00000  Uiso   1.00
C376   C     0.11426   0.79701   0.17914   0.00000  Uiso   1.00
C377   C     0.21864   0.68961   0.17263   0.00000  Uiso   1.00
C378   C     0.99142   0.03446   0.19471   0.00000  Uiso   1.00
C379   C     0.96272   0.09574   0.15016   0.00000  Uiso   1.00
C380   C     0.99804   0.14242   0.14563   0.00000  Uiso   1.00
C381   C     0.03514   0.23494   0.11974   0.00000  Uiso   1.00
C382   C     0.07526   0.95017   0.27876   0.00000  Uiso   1.00
C383   C     0.99805   0.95656   0.30830   0.00000  Uiso   1.00
C384   C     0.98702   0.94957   0.36684   0.00000  Uiso   1.00
C385   C     0.91191   0.95726   0.38538   0.00000  Uiso   1.00
C386   C     0.09655   0.89153   0.24585   0.00000  Uiso   1.00
C387   C     0.16835   0.82987   0.25189   0.00000  Uiso   1.00
C388   C     0.17617   0.78281   0.21786   0.00000  Uiso   1.00
C389   C     0.05322   0.02029   0.23337   0.00000  Uiso   1.00
C390   C     0.08860   0.06688   0.22890   0.00000  Uiso   1.00
C391   C     0.05995   0.12823   0.18435   0.00000  Uiso   1.00
H392   H     0.91337   0.98729   0.17750   0.00000  Uiso   1.00
H393   H     0.81333   0.98939   0.25817   0.00000  Uiso   1.00
H394   H     0.99463   0.86971   0.14324   0.00000  Uiso   1.00
H395   H     0.91489   0.10669   0.12025   0.00000  Uiso   1.00
H396   H     0.72968   0.98544   0.36467   0.00000  Uiso   1.00
H397   H     0.11198   0.73311   0.12230   0.00000  Uiso   1.00
H398   H     0.94383   0.23283   0.07383   0.00000  Uiso   1.00
H399   H     0.12338   0.93914   0.30886   0.00000  Uiso   1.00
H400   H     0.03486   0.93860   0.39674   0.00000  Uiso   1.00
H401   H     0.21616   0.81892   0.28181   0.00000  Uiso   1.00
H402   H     0.13642   0.05590   0.25882   0.00000  Uiso   1.00
H403   H     0.90948   0.94422   0.47714   0.00000  Uiso   1.00
H404   H     0.29179   0.69189   0.23477   0.00000  Uiso   1.00
H405   H     0.12363   0.19160   0.18630   0.00000  Uiso   1.00
O406   O     0.75757   0.96532   0.47635   0.00000  Uiso   1.00
O407   O     0.25914   0.63428   0.15837   0.00000  Uiso   1.00
O408   O     0.03852   0.28990   0.09478   0.00000  Uiso   1.00
N409   N     0.78414   0.97583   0.37907   0.00000  Uiso   1.00
N410   N     0.14156   0.73991   0.15248   0.00000  Uiso   1.00
N411   N     0.98437   0.20709   0.10716   0.00000  Uiso   1.00
N412   N     0.88089   0.95365   0.43959   0.00000  Uiso   1.00
N413   N     0.23831   0.71773   0.21300   0.00000  Uiso   1.00
N414   N     0.08112   0.18491   0.16768   0.00000  Uiso   1.00
C415   C     0.73387   0.40918   0.65362   0.00000  Uiso   1.00
C416   C     0.77087   0.42163   0.70266   0.00000  Uiso   1.00
C417   C     0.85022   0.38374   0.72310   0.00000  Uiso   1.00
C418   C     0.87232   0.40328   0.76830   0.00000  Uiso   1.00
C419   C     0.93818   0.41415   0.84084   0.00000  Uiso   1.00
C420   C     0.66349   0.39453   0.67836   0.00000  Uiso   1.00
C421   C     0.65255   0.33387   0.67834   0.00000  Uiso   1.00
C422   C     0.58425   0.33060   0.70307   0.00000  Uiso   1.00
C423   C     0.48337   0.29943   0.73784   0.00000  Uiso   1.00
C424   C     0.69746   0.48132   0.60994   0.00000  Uiso   1.00
C425   C     0.71506   0.49362   0.55241   0.00000  Uiso   1.00
C426   C     0.67534   0.56342   0.51953   0.00000  Uiso   1.00
C427   C     0.62720   0.66700   0.44808   0.00000  Uiso   1.00
C428   C     0.63203   0.51125   0.69755   0.00000  Uiso   1.00
C429   C     0.71556   0.47707   0.72652   0.00000  Uiso   1.00
C430   C     0.73755   0.49667   0.77170   0.00000  Uiso   1.00
C431   C     0.81691   0.45882   0.79220   0.00000  Uiso   1.00
C432   C     0.60818   0.44997   0.70222   0.00000  Uiso   1.00
C433   C     0.53988   0.44680   0.72695   0.00000  Uiso   1.00
C434   C     0.52884   0.38614   0.72697   0.00000  Uiso   1.00
C435   C     0.64214   0.53676   0.63380   0.00000  Uiso   1.00
C436   C     0.60239   0.60655   0.60101   0.00000  Uiso   1.00
C437   C     0.61992   0.61896   0.54344   0.00000  Uiso   1.00
H438   H     0.77693   0.36602   0.63504   0.00000  Uiso   1.00
H439   H     0.89301   0.34084   0.70462   0.00000  Uiso   1.00
H440   H     0.69536   0.29098   0.65987   0.00000  Uiso   1.00
H441   H     0.75786   0.45071   0.53396   0.00000  Uiso   1.00
H442   H     0.99730   0.33735   0.79231   0.00000  Uiso   1.00
H443   H     0.58054   0.23223   0.69792   0.00000  Uiso   1.00
H444   H     0.71233   0.56906   0.43240   0.00000  Uiso   1.00
H445   H     0.58897   0.55441   0.71613   0.00000  Uiso   1.00
H446   H     0.69473   0.53957   0.79016   0.00000  Uiso   1.00
H447   H     0.49708   0.48971   0.74540   0.00000  Uiso   1.00
H448   H     0.55959   0.64944   0.61949   0.00000  Uiso   1.00
H449   H     0.83637   0.49865   0.86173   0.00000  Uiso   1.00
H450   H     0.41961   0.39353   0.76734   0.00000  Uiso   1.00
H451   H     0.55140   0.73035   0.50183   0.00000  Uiso   1.00
O452   O     0.98979   0.40482   0.87427   0.00000  Uiso   1.00
O453   O     0.44302   0.26692   0.75043   0.00000  Uiso   1.00
O454   O     0.61593   0.70882   0.40208   0.00000  Uiso   1.00
N455   N     0.94491   0.37736   0.79848   0.00000  Uiso   1.00
N456   N     0.55527   0.27907   0.71024   0.00000  Uiso   1.00
N457   N     0.67847   0.59397   0.46200   0.00000  Uiso   1.00
N458   N     0.85831   0.46415   0.83583   0.00000  Uiso   1.00
N459   N     0.46868   0.36587   0.74760   0.00000  Uiso   1.00
N460   N     0.59188   0.68076   0.49936   0.00000  Uiso   1.00
C461   C     0.89407   0.17073   0.57499   0.00000  Uiso   1.00
C462   C     0.82340   0.15146   0.57983   0.00000  Uiso   1.00
C463   C     0.77739   0.14950   0.62750   0.00000  Uiso   1.00
C464   C     0.71539   0.13060   0.62340   0.00000  Uiso   1.00
C465   C     0.60802   0.10313   0.63852   0.00000  Uiso   1.00
C466   C     0.96506   0.10696   0.55972   0.00000  Uiso   1.00
C467   C     0.03816   0.06760   0.59048   0.00000  Uiso   1.00
C468   C     0.09541   0.01124   0.56945   0.00000  Uiso   1.00
C469   C     0.20798   0.91473   0.55333   0.00000  Uiso   1.00
C470   C     0.87437   0.23314   0.52235   0.00000  Uiso   1.00
C471   C     0.87124   0.29985   0.52169   0.00000  Uiso   1.00
C472   C     0.85215   0.34972   0.46919   0.00000  Uiso   1.00
C473   C     0.82391   0.44911   0.39505   0.00000  Uiso   1.00
C474   C     0.86577   0.14065   0.48294   0.00000  Uiso   1.00
C475   C     0.80803   0.13513   0.52983   0.00000  Uiso   1.00
C476   C     0.74608   0.11623   0.52566   0.00000  Uiso   1.00
C477   C     0.69999   0.11424   0.57331   0.00000  Uiso   1.00
C478   C     0.94969   0.09063   0.50973   0.00000  Uiso   1.00
C479   C     0.00685   0.03432   0.48864   0.00000  Uiso   1.00
C480   C     0.08001   0.99488   0.51936   0.00000  Uiso   1.00
C481   C     0.85899   0.21680   0.47235   0.00000  Uiso   1.00
C482   C     0.83992   0.26658   0.41984   0.00000  Uiso   1.00
C483   C     0.83675   0.33336   0.41910   0.00000  Uiso   1.00
H484   H     0.90604   0.18344   0.61392   0.00000  Uiso   1.00
H485   H     0.78931   0.16214   0.66618   0.00000  Uiso   1.00
H486   H     0.05004   0.08025   0.62917   0.00000  Uiso   1.00
H487   H     0.88313   0.31247   0.56038   0.00000  Uiso   1.00
H488   H     0.65314   0.13129   0.70209   0.00000  Uiso   1.00
H489   H     0.20290   0.95865   0.62403   0.00000  Uiso   1.00
H490   H     0.85095   0.44833   0.47898   0.00000  Uiso   1.00
H491   H     0.85381   0.12794   0.44402   0.00000  Uiso   1.00
H492   H     0.73420   0.10359   0.48696   0.00000  Uiso   1.00
H493   H     0.99493   0.02170   0.44995   0.00000  Uiso   1.00
H494   H     0.82803   0.25392   0.38116   0.00000  Uiso   1.00
H495   H     0.60841   0.08377   0.55663   0.00000  Uiso   1.00
H496   H     0.15817   0.91113   0.47857   0.00000  Uiso   1.00
H497   H     0.80622   0.40080   0.33352   0.00000  Uiso   1.00
O498   O     0.55305   0.09249   0.66068   0.00000  Uiso   1.00
O499   O     0.27432   0.86600   0.55826   0.00000  Uiso   1.00
O500   O     0.81258   0.50845   0.36797   0.00000  Uiso   1.00
N501   N     0.65901   0.12346   0.66196   0.00000  Uiso   1.00
N502   N     0.17300   0.96204   0.58898   0.00000  Uiso   1.00
N503   N     0.84398   0.41985   0.45337   0.00000  Uiso   1.00
N504   N     0.63494   0.09789   0.58368   0.00000  Uiso   1.00
N505   N     0.14893   0.93647   0.51071   0.00000  Uiso   1.00
N506   N     0.81992   0.39428   0.37510   0.00000  Uiso   1.00
C507   C     0.26026   0.16966   0.52048   0.00000  Uiso   1.00
C508   C     0.32623   0.09281   0.53356   0.00000  Uiso   1.00
C509   C     0.32141   0.03373   0.52185   0.00000  Uiso   1.00
C510   C     0.38825   0.96800   0.53713   0.00000  Uiso   1.00
C511   C     0.48016   0.84963   0.55351   0.00000  Uiso   1.00
C512   C     0.24463   0.19224   0.57755   0.00000  Uiso   1.00
C513   C     0.17120   0.21678   0.60281   0.00000  Uiso   1.00
C514   C     0.16935   0.23475   0.65512   0.00000  Uiso   1.00
C515   C     0.13456   0.27081   0.73976   0.00000  Uiso   1.00
C516   C     0.29713   0.21591   0.48321   0.00000  Uiso   1.00
C517   C     0.26783   0.26036   0.42916   0.00000  Uiso   1.00
C518   C     0.31017   0.29828   0.40205   0.00000  Uiso   1.00
C519   C     0.35690   0.37108   0.34022   0.00000  Uiso   1.00
C520   C     0.38755   0.15798   0.56846   0.00000  Uiso   1.00
C521   C     0.39537   0.08647   0.55962   0.00000  Uiso   1.00
C522   C     0.46224   0.02080   0.57493   0.00000  Uiso   1.00
C523   C     0.45751   0.96164   0.56323   0.00000  Uiso   1.00
C524   C     0.31377   0.18590   0.60361   0.00000  Uiso   1.00
C525   C     0.31203   0.20385   0.65589   0.00000  Uiso   1.00
C526   C     0.23861   0.22840   0.68122   0.00000  Uiso   1.00
C527   C     0.36627   0.20957   0.50927   0.00000  Uiso   1.00
C528   C     0.40867   0.24743   0.48224   0.00000  Uiso   1.00
C529   C     0.37943   0.29192   0.42815   0.00000  Uiso   1.00
H530   H     0.20643   0.17460   0.50020   0.00000  Uiso   1.00
H531   H     0.26789   0.03866   0.50168   0.00000  Uiso   1.00
H532   H     0.11770   0.22169   0.58263   0.00000  Uiso   1.00
H533   H     0.21432   0.26526   0.40901   0.00000  Uiso   1.00
H534   H     0.36651   0.88515   0.51485   0.00000  Uiso   1.00
H535   H     0.04983   0.27109   0.68551   0.00000  Uiso   1.00
H536   H     0.25357   0.36297   0.31940   0.00000  Uiso   1.00
H537   H     0.44138   0.15304   0.58875   0.00000  Uiso   1.00
H538   H     0.51574   0.01591   0.59509   0.00000  Uiso   1.00
H539   H     0.36554   0.19893   0.67604   0.00000  Uiso   1.00
H540   H     0.46217   0.24251   0.50242   0.00000  Uiso   1.00
H541   H     0.56767   0.86668   0.59066   0.00000  Uiso   1.00
H542   H     0.25098   0.25262   0.76133   0.00000  Uiso   1.00
H543   H     0.45473   0.34450   0.39521   0.00000  Uiso   1.00
O544   O     0.51175   0.78609   0.55535   0.00000  Uiso   1.00
O545   O     0.09627   0.29244   0.77925   0.00000  Uiso   1.00
O546   O     0.36358   0.41299   0.29892   0.00000  Uiso   1.00
N547   N     0.40365   0.89962   0.53181   0.00000  Uiso   1.00
N548   N     0.10758   0.26044   0.69138   0.00000  Uiso   1.00
N549   N     0.29805   0.34636   0.34910   0.00000  Uiso   1.00
N550   N     0.51190   0.88969   0.57260   0.00000  Uiso   1.00
N551   N     0.21582   0.25050   0.73217   0.00000  Uiso   1.00
N552   N     0.40629   0.33642   0.38989   0.00000  Uiso   1.00
