data_job_06747
_audit_creation_date              2018-12-19
_audit_creation_method            'Materials Studio'
_symmetry_space_group_name_H-M    'P1'
_symmetry_Int_Tables_number       1
_symmetry_cell_setting            triclinic
loop_
_symmetry_equiv_pos_as_xyz
  x,y,z
_cell_length_a                    24.4288
_cell_length_b                    24.9897
_cell_length_c                    18.6836
_cell_angle_alpha                 94.1906
_cell_angle_beta                  83.6755
_cell_angle_gamma                 112.6380
loop_
_atom_site_label
_atom_site_type_symbol
_atom_site_fract_x
_atom_site_fract_y
_atom_site_fract_z
_atom_site_U_iso_or_equiv
_atom_site_adp_type
_atom_site_occupancy
C1     C     0.60652   0.24854   0.42308   0.00000  Uiso   1.00
C2     C     0.67292   0.28244   0.40510   0.00000  Uiso   1.00
C3     C     0.71666   0.29615   0.45251   0.00000  Uiso   1.00
C4     C     0.77483   0.32747   0.42567   0.00000  Uiso   1.00
C5     C     0.87582   0.37755   0.40868   0.00000  Uiso   1.00
C6     C     0.57534   0.28744   0.40439   0.00000  Uiso   1.00
C7     C     0.53702   0.30534   0.45120   0.00000  Uiso   1.00
C8     C     0.51303   0.34086   0.42375   0.00000  Uiso   1.00
C9     C     0.46248   0.39867   0.40563   0.00000  Uiso   1.00
C10    C     0.58880   0.19716   0.36929   0.00000  Uiso   1.00
C11    C     0.56178   0.13916   0.38658   0.00000  Uiso   1.00
C12    C     0.54911   0.09867   0.32957   0.00000  Uiso   1.00
C13    C     0.51947   0.01631   0.25695   0.00000  Uiso   1.00
C14    C     0.63205   0.27979   0.29109   0.00000  Uiso   1.00
C15    C     0.68679   0.29941   0.33341   0.00000  Uiso   1.00
C16    C     0.74491   0.33072   0.30649   0.00000  Uiso   1.00
C17    C     0.78872   0.34447   0.35385   0.00000  Uiso   1.00
C18    C     0.58920   0.30441   0.33270   0.00000  Uiso   1.00
C19    C     0.56526   0.33991   0.30517   0.00000  Uiso   1.00
C20    C     0.52692   0.35787   0.35193   0.00000  Uiso   1.00
C21    C     0.60266   0.21413   0.29760   0.00000  Uiso   1.00
C22    C     0.59003   0.17373   0.24055   0.00000  Uiso   1.00
C23    C     0.56301   0.11568   0.25775   0.00000  Uiso   1.00
H24    H     0.59572   0.23533   0.47889   0.00000  Uiso   1.00
H25    H     0.70591   0.28301   0.50799   0.00000  Uiso   1.00
H26    H     0.52629   0.29219   0.50667   0.00000  Uiso   1.00
H27    H     0.55106   0.12604   0.44206   0.00000  Uiso   1.00
H28    H     0.83418   0.34337   0.50865   0.00000  Uiso   1.00
H29    H     0.45543   0.36273   0.50586   0.00000  Uiso   1.00
H30    H     0.50765   0.01235   0.36962   0.00000  Uiso   1.00
H31    H     0.64285   0.29300   0.23527   0.00000  Uiso   1.00
H32    H     0.75562   0.34385   0.25101   0.00000  Uiso   1.00
H33    H     0.57600   0.35304   0.24969   0.00000  Uiso   1.00
H34    H     0.60077   0.18688   0.18508   0.00000  Uiso   1.00
H35    H     0.87453   0.39276   0.30007   0.00000  Uiso   1.00
H36    H     0.49578   0.41211   0.29728   0.00000  Uiso   1.00
H37    H     0.54800   0.06174   0.16104   0.00000  Uiso   1.00
O38    O     0.92769   0.40049   0.41911   0.00000  Uiso   1.00
O39    O     0.43077   0.42587   0.41545   0.00000  Uiso   1.00
O40    O     0.49929   0.96619   0.23670   0.00000  Uiso   1.00
N41    N     0.82820   0.34801   0.45740   0.00000  Uiso   1.00
N42    N     0.47410   0.36611   0.45479   0.00000  Uiso   1.00
N43    N     0.52291   0.03854   0.32742   0.00000  Uiso   1.00
N44    N     0.84992   0.37458   0.34516   0.00000  Uiso   1.00
N45    N     0.49581   0.39268   0.34256   0.00000  Uiso   1.00
N46    N     0.54462   0.06512   0.21518   0.00000  Uiso   1.00
C47    C     0.39887   0.68787   0.15641   0.00000  Uiso   1.00
C48    C     0.39621   0.72843   0.22059   0.00000  Uiso   1.00
C49    C     0.43228   0.78678   0.22699   0.00000  Uiso   1.00
C50    C     0.42287   0.81638   0.28994   0.00000  Uiso   1.00
C51    C     0.42545   0.88359   0.38132   0.00000  Uiso   1.00
C52    C     0.40849   0.63743   0.18668   0.00000  Uiso   1.00
C53    C     0.45488   0.61927   0.16456   0.00000  Uiso   1.00
C54    C     0.45580   0.57226   0.19896   0.00000  Uiso   1.00
C55    C     0.47742   0.49816   0.23765   0.00000  Uiso   1.00
C56    C     0.33650   0.66265   0.13078   0.00000  Uiso   1.00
C57    C     0.32235   0.66568   0.06165   0.00000  Uiso   1.00
C58    C     0.26266   0.63989   0.04899   0.00000  Uiso   1.00
C59    C     0.17250   0.60495   0.00089   0.00000  Uiso   1.00
C60    C     0.31802   0.63666   0.25683   0.00000  Uiso   1.00
C61    C     0.35230   0.70061   0.27514   0.00000  Uiso   1.00
C62    C     0.34283   0.73013   0.33810   0.00000  Uiso   1.00
C63    C     0.37888   0.78852   0.34459   0.00000  Uiso   1.00
C64    C     0.36458   0.60961   0.24122   0.00000  Uiso   1.00
C65    C     0.36543   0.56261   0.27566   0.00000  Uiso   1.00
C66    C     0.41181   0.54439   0.25360   0.00000  Uiso   1.00
C67    C     0.29258   0.63483   0.18533   0.00000  Uiso   1.00
C68    C     0.23291   0.60903   0.17276   0.00000  Uiso   1.00
C69    C     0.21867   0.61203   0.10363   0.00000  Uiso   1.00
H70    H     0.43306   0.70952   0.11394   0.00000  Uiso   1.00
H71    H     0.46626   0.80829   0.18477   0.00000  Uiso   1.00
H72    H     0.48885   0.64080   0.12234   0.00000  Uiso   1.00
H73    H     0.35635   0.68721   0.01945   0.00000  Uiso   1.00
H74    H     0.48373   0.90553   0.28736   0.00000  Uiso   1.00
H75    H     0.53135   0.55235   0.15571   0.00000  Uiso   1.00
H76    H     0.25194   0.65021   0.93875   0.00000  Uiso   1.00
H77    H     0.28383   0.61500   0.29930   0.00000  Uiso   1.00
H78    H     0.30884   0.70859   0.38030   0.00000  Uiso   1.00
H79    H     0.33144   0.54110   0.31787   0.00000  Uiso   1.00
H80    H     0.19893   0.58751   0.21499   0.00000  Uiso   1.00
H81    H     0.35596   0.82461   0.44606   0.00000  Uiso   1.00
H82    H     0.40359   0.47143   0.31441   0.00000  Uiso   1.00
H83    H     0.12417   0.56929   0.09745   0.00000  Uiso   1.00
O84    O     0.43901   0.92834   0.41666   0.00000  Uiso   1.00
O85    O     0.50148   0.46497   0.24392   0.00000  Uiso   1.00
O86    O     0.13490   0.59337   0.95929   0.00000  Uiso   1.00
N87    N     0.45022   0.87364   0.31359   0.00000  Uiso   1.00
N88    N     0.49475   0.54345   0.19051   0.00000  Uiso   1.00
N89    N     0.23352   0.63493   0.98767   0.00000  Uiso   1.00
N90    N     0.38147   0.83010   0.39898   0.00000  Uiso   1.00
N91    N     0.42600   0.49991   0.27590   0.00000  Uiso   1.00
N92    N     0.16477   0.59139   0.07306   0.00000  Uiso   1.00
C93    C     0.16406   0.48117   0.60217   0.00000  Uiso   1.00
C94    C     0.16425   0.46710   0.68018   0.00000  Uiso   1.00
C95    C     0.15022   0.49657   0.74070   0.00000  Uiso   1.00
C96    C     0.15305   0.47699   0.80732   0.00000  Uiso   1.00
C97    C     0.15089   0.46236   0.92756   0.00000  Uiso   1.00
C98    C     0.22628   0.49104   0.56661   0.00000  Uiso   1.00
C99    C     0.26440   0.54064   0.53165   0.00000  Uiso   1.00
C100   C     0.31945   0.54122   0.50266   0.00000  Uiso   1.00
C101   C     0.41358   0.56375   0.44655   0.00000  Uiso   1.00
C102   C     0.12220   0.42562   0.56704   0.00000  Uiso   1.00
C103   C     0.07281   0.42021   0.53242   0.00000  Uiso   1.00
C104   C     0.04024   0.36570   0.50378   0.00000  Uiso   1.00
C105   C     0.97277   0.28666   0.44834   0.00000  Uiso   1.00
C106   C     0.19404   0.39398   0.61286   0.00000  Uiso   1.00
C107   C     0.18054   0.41974   0.68598   0.00000  Uiso   1.00
C108   C     0.18339   0.40011   0.75253   0.00000  Uiso   1.00
C109   C     0.16936   0.42955   0.81314   0.00000  Uiso   1.00
C110   C     0.24257   0.44369   0.57242   0.00000  Uiso   1.00
C111   C     0.29757   0.44418   0.54347   0.00000  Uiso   1.00
C112   C     0.33576   0.49377   0.50848   0.00000  Uiso   1.00
C113   C     0.13849   0.37826   0.57285   0.00000  Uiso   1.00
C114   C     0.10599   0.32375   0.54425   0.00000  Uiso   1.00
C115   C     0.05656   0.31826   0.50960   0.00000  Uiso   1.00
H116   H     0.15138   0.51804   0.59765   0.00000  Uiso   1.00
H117   H     0.13762   0.53322   0.73618   0.00000  Uiso   1.00
H118   H     0.25178   0.57728   0.52716   0.00000  Uiso   1.00
H119   H     0.06022   0.45687   0.52794   0.00000  Uiso   1.00
H120   H     0.12956   0.52918   0.89234   0.00000  Uiso   1.00
H121   H     0.37027   0.62208   0.45157   0.00000  Uiso   1.00
H122   H     0.96634   0.36817   0.45321   0.00000  Uiso   1.00
H123   H     0.20672   0.35711   0.61738   0.00000  Uiso   1.00
H124   H     0.19599   0.36346   0.75700   0.00000  Uiso   1.00
H125   H     0.31016   0.40753   0.54797   0.00000  Uiso   1.00
H126   H     0.11860   0.28712   0.54876   0.00000  Uiso   1.00
H127   H     0.17694   0.39140   0.90924   0.00000  Uiso   1.00
H128   H     0.41765   0.48430   0.46847   0.00000  Uiso   1.00
H129   H     0.01372   0.23039   0.47011   0.00000  Uiso   1.00
O130   O     0.14522   0.46738   0.99228   0.00000  Uiso   1.00
O131   O     0.46101   0.58927   0.41400   0.00000  Uiso   1.00
O132   O     0.93106   0.25614   0.41616   0.00000  Uiso   1.00
N133   N     0.14217   0.49587   0.87715   0.00000  Uiso   1.00
N134   N     0.36723   0.58274   0.46507   0.00000  Uiso   1.00
N135   N     0.98959   0.34535   0.46659   0.00000  Uiso   1.00
N136   N     0.16767   0.42174   0.88625   0.00000  Uiso   1.00
N137   N     0.39272   0.50860   0.47417   0.00000  Uiso   1.00
N138   N     0.01509   0.27122   0.47569   0.00000  Uiso   1.00
C139   C     0.34159   0.05864   0.78395   0.00000  Uiso   1.00
C140   C     0.37284   0.05352   0.84790   0.00000  Uiso   1.00
C141   C     0.42888   0.09106   0.86538   0.00000  Uiso   1.00
C142   C     0.44961   0.07892   0.92603   0.00000  Uiso   1.00
C143   C     0.50332   0.07829   0.01902   0.00000  Uiso   1.00
C144   C     0.28205   0.06062   0.81537   0.00000  Uiso   1.00
C145   C     0.26175   0.10412   0.80549   0.00000  Uiso   1.00
C146   C     0.20605   0.09794   0.83875   0.00000  Uiso   1.00
C147   C     0.11879   0.10831   0.88119   0.00000  Uiso   1.00
C148   C     0.32680   0.00126   0.74110   0.00000  Uiso   1.00
C149   C     0.34412   0.99484   0.66875   0.00000  Uiso   1.00
C150   C     0.32608   0.93868   0.63947   0.00000  Uiso   1.00
C151   C     0.30830   0.85687   0.56659   0.00000  Uiso   1.00
C152   C     0.27874   0.97032   0.86058   0.00000  Uiso   1.00
C153   C     0.33870   0.00555   0.88953   0.00000  Uiso   1.00
C154   C     0.35935   0.99334   0.95017   0.00000  Uiso   1.00
C155   C     0.41542   0.03086   0.96773   0.00000  Uiso   1.00
C156   C     0.24792   0.01265   0.85699   0.00000  Uiso   1.00
C157   C     0.19223   0.00640   0.89027   0.00000  Uiso   1.00
C158   C     0.17185   0.04988   0.88045   0.00000  Uiso   1.00
C159   C     0.29267   0.95328   0.78272   0.00000  Uiso   1.00
C160   C     0.27459   0.89712   0.75354   0.00000  Uiso   1.00
C161   C     0.29188   0.89062   0.68117   0.00000  Uiso   1.00
H162   H     0.36816   0.09599   0.75155   0.00000  Uiso   1.00
H163   H     0.45528   0.12819   0.83316   0.00000  Uiso   1.00
H164   H     0.28818   0.14124   0.77327   0.00000  Uiso   1.00
H165   H     0.37053   0.03198   0.63656   0.00000  Uiso   1.00
H166   H     0.53681   0.14274   0.94201   0.00000  Uiso   1.00
H167   H     0.18445   0.17025   0.81571   0.00000  Uiso   1.00
H168   H     0.35812   0.93985   0.52743   0.00000  Uiso   1.00
H169   H     0.25217   0.93296   0.89299   0.00000  Uiso   1.00
H170   H     0.33293   0.95621   0.98237   0.00000  Uiso   1.00
H171   H     0.16582   0.96927   0.92248   0.00000  Uiso   1.00
H172   H     0.24818   0.86000   0.78577   0.00000  Uiso   1.00
H173   H     0.43750   0.00316   0.06312   0.00000  Uiso   1.00
H174   H     0.08515   0.03067   0.93681   0.00000  Uiso   1.00
H175   H     0.25881   0.80027   0.64854   0.00000  Uiso   1.00
O176   O     0.54237   0.09120   0.05882   0.00000  Uiso   1.00
O177   O     0.08009   0.12728   0.89311   0.00000  Uiso   1.00
O178   O     0.30793   0.82500   0.51490   0.00000  Uiso   1.00
N179   N     0.50236   0.10669   0.95824   0.00000  Uiso   1.00
N180   N     0.17293   0.13242   0.84017   0.00000  Uiso   1.00
N181   N     0.33528   0.91701   0.57065   0.00000  Uiso   1.00
N182   N     0.44892   0.03158   0.02341   0.00000  Uiso   1.00
N183   N     0.11950   0.05731   0.90533   0.00000  Uiso   1.00
N184   N     0.28184   0.84190   0.63581   0.00000  Uiso   1.00
C185   C     0.16669   0.81349   0.38614   0.00000  Uiso   1.00
C186   C     0.13158   0.85115   0.41254   0.00000  Uiso   1.00
C187   C     0.12900   0.87500   0.48167   0.00000  Uiso   1.00
C188   C     0.09440   0.90819   0.49509   0.00000  Uiso   1.00
C189   C     0.04460   0.96533   0.54427   0.00000  Uiso   1.00
C190   C     0.20781   0.84357   0.32130   0.00000  Uiso   1.00
C191   C     0.26933   0.86103   0.31371   0.00000  Uiso   1.00
C192   C     0.29890   0.88782   0.25032   0.00000  Uiso   1.00
C193   C     0.36745   0.93314   0.15782   0.00000  Uiso   1.00
C194   C     0.12172   0.75707   0.35667   0.00000  Uiso   1.00
C195   C     0.11085   0.70181   0.37881   0.00000  Uiso   1.00
C196   C     0.06795   0.65577   0.34518   0.00000  Uiso   1.00
C197   C     0.00282   0.56680   0.30760   0.00000  Uiso   1.00
C198   C     0.10982   0.83001   0.28705   0.00000  Uiso   1.00
C199   C     0.10069   0.86013   0.35871   0.00000  Uiso   1.00
C200   C     0.06608   0.89328   0.37204   0.00000  Uiso   1.00
C201   C     0.06345   0.91717   0.44118   0.00000  Uiso   1.00
C202   C     0.17693   0.85254   0.26748   0.00000  Uiso   1.00
C203   C     0.20641   0.87931   0.20408   0.00000  Uiso   1.00
C204   C     0.26796   0.89681   0.19640   0.00000  Uiso   1.00
C205   C     0.09083   0.76604   0.30285   0.00000  Uiso   1.00
C206   C     0.04793   0.72009   0.26918   0.00000  Uiso   1.00
C207   C     0.03700   0.66476   0.29127   0.00000  Uiso   1.00
H208   H     0.19074   0.80650   0.42803   0.00000  Uiso   1.00
H209   H     0.15291   0.86805   0.52330   0.00000  Uiso   1.00
H210   H     0.29322   0.85407   0.35537   0.00000  Uiso   1.00
H211   H     0.13476   0.69488   0.42046   0.00000  Uiso   1.00
H212   H     0.09737   0.94026   0.60518   0.00000  Uiso   1.00
H213   H     0.39321   0.91077   0.25107   0.00000  Uiso   1.00
H214   H     0.05908   0.57508   0.38832   0.00000  Uiso   1.00
H215   H     0.08578   0.83699   0.24514   0.00000  Uiso   1.00
H216   H     0.04219   0.90022   0.33038   0.00000  Uiso   1.00
H217   H     0.18250   0.88624   0.16244   0.00000  Uiso   1.00
H218   H     0.02404   0.72705   0.22753   0.00000  Uiso   1.00
H219   H     0.00750   0.96637   0.44860   0.00000  Uiso   1.00
H220   H     0.30335   0.93688   0.09448   0.00000  Uiso   1.00
H221   H     0.96921   0.60119   0.23174   0.00000  Uiso   1.00
O222   O     0.02567   0.99437   0.58625   0.00000  Uiso   1.00
O223   O     0.41380   0.95567   0.12167   0.00000  Uiso   1.00
O224   O     0.97543   0.51525   0.30174   0.00000  Uiso   1.00
N225   N     0.08219   0.93772   0.55664   0.00000  Uiso   1.00
N226   N     0.35879   0.91016   0.22557   0.00000  Uiso   1.00
N227   N     0.04641   0.59631   0.35388   0.00000  Uiso   1.00
N228   N     0.03383   0.95177   0.47238   0.00000  Uiso   1.00
N229   N     0.31043   0.92421   0.14131   0.00000  Uiso   1.00
N230   N     0.99806   0.61036   0.26962   0.00000  Uiso   1.00
C231   C     0.86651   0.24740   0.10706   0.00000  Uiso   1.00
C232   C     0.91100   0.30973   0.09887   0.00000  Uiso   1.00
C233   C     0.92465   0.35246   0.15326   0.00000  Uiso   1.00
C234   C     0.96657   0.40674   0.13488   0.00000  Uiso   1.00
C235   C     0.03152   0.50182   0.13287   0.00000  Uiso   1.00
C236   C     0.90098   0.20889   0.08205   0.00000  Uiso   1.00
C237   C     0.90621   0.16683   0.12229   0.00000  Uiso   1.00
C238   C     0.93969   0.13622   0.08975   0.00000  Uiso   1.00
C239   C     0.98906   0.07471   0.06160   0.00000  Uiso   1.00
C240   C     0.82192   0.23758   0.05162   0.00000  Uiso   1.00
C241   C     0.76067   0.21963   0.06626   0.00000  Uiso   1.00
C242   C     0.72758   0.21316   0.00810   0.00000  Uiso   1.00
C243   C     0.65420   0.19620   0.93269   0.00000  Uiso   1.00
C244   C     0.91666   0.26781   0.97772   0.00000  Uiso   1.00
C245   C     0.93824   0.32081   0.02862   0.00000  Uiso   1.00
C246   C     0.98014   0.37504   0.01016   0.00000  Uiso   1.00
C247   C     0.99385   0.41785   0.06451   0.00000  Uiso   1.00
C248   C     0.92822   0.21997   0.01180   0.00000  Uiso   1.00
C249   C     0.96169   0.18941   0.97919   0.00000  Uiso   1.00
C250   C     0.96697   0.14732   0.01937   0.00000  Uiso   1.00
C251   C     0.84916   0.24867   0.98136   0.00000  Uiso   1.00
C252   C     0.81616   0.24222   0.92316   0.00000  Uiso   1.00
C253   C     0.75487   0.22426   0.93772   0.00000  Uiso   1.00
H254   H     0.84530   0.23877   0.16175   0.00000  Uiso   1.00
H255   H     0.90357   0.34386   0.20762   0.00000  Uiso   1.00
H256   H     0.88512   0.15826   0.17665   0.00000  Uiso   1.00
H257   H     0.73960   0.21105   0.12063   0.00000  Uiso   1.00
H258   H     0.98019   0.46526   0.22750   0.00000  Uiso   1.00
H259   H     0.94128   0.07389   0.16219   0.00000  Uiso   1.00
H260   H     0.63443   0.18522   0.04407   0.00000  Uiso   1.00
H261   H     0.93787   0.27644   0.92302   0.00000  Uiso   1.00
H262   H     0.00121   0.38361   0.95579   0.00000  Uiso   1.00
H263   H     0.98277   0.19800   0.92482   0.00000  Uiso   1.00
H264   H     0.83725   0.25080   0.86881   0.00000  Uiso   1.00
H265   H     0.05945   0.49752   0.02310   0.00000  Uiso   1.00
H266   H     0.02053   0.10614   0.95780   0.00000  Uiso   1.00
H267   H     0.71369   0.21748   0.83967   0.00000  Uiso   1.00
O268   O     0.05983   0.55120   0.15117   0.00000  Uiso   1.00
O269   O     0.00877   0.03773   0.06549   0.00000  Uiso   1.00
O270   O     0.60620   0.18379   0.91051   0.00000  Uiso   1.00
N271   N     0.99014   0.45815   0.17489   0.00000  Uiso   1.00
N272   N     0.95377   0.09224   0.11384   0.00000  Uiso   1.00
N273   N     0.66689   0.19631   0.00340   0.00000  Uiso   1.00
N274   N     0.03279   0.47551   0.06491   0.00000  Uiso   1.00
N275   N     0.99641   0.10960   0.00386   0.00000  Uiso   1.00
N276   N     0.70954   0.21367   0.89342   0.00000  Uiso   1.00
C277   C     0.39348   0.75146   0.57692   0.00000  Uiso   1.00
C278   C     0.32708   0.71756   0.59490   0.00000  Uiso   1.00
C279   C     0.28334   0.70385   0.54749   0.00000  Uiso   1.00
C280   C     0.22517   0.67253   0.57433   0.00000  Uiso   1.00
C281   C     0.12418   0.62245   0.59132   0.00000  Uiso   1.00
C282   C     0.42466   0.71256   0.59561   0.00000  Uiso   1.00
C283   C     0.46298   0.69466   0.54880   0.00000  Uiso   1.00
C284   C     0.48697   0.65914   0.57625   0.00000  Uiso   1.00
C285   C     0.53752   0.60133   0.59437   0.00000  Uiso   1.00
C286   C     0.41120   0.80284   0.63071   0.00000  Uiso   1.00
C287   C     0.43822   0.86084   0.61342   0.00000  Uiso   1.00
C288   C     0.45089   0.90133   0.67043   0.00000  Uiso   1.00
C289   C     0.48053   0.98369   0.74305   0.00000  Uiso   1.00
C290   C     0.36795   0.72021   0.70891   0.00000  Uiso   1.00
C291   C     0.31321   0.70059   0.66659   0.00000  Uiso   1.00
C292   C     0.25509   0.66928   0.69351   0.00000  Uiso   1.00
C293   C     0.21128   0.65553   0.64615   0.00000  Uiso   1.00
C294   C     0.41080   0.69559   0.66730   0.00000  Uiso   1.00
C295   C     0.43474   0.66009   0.69483   0.00000  Uiso   1.00
C296   C     0.47308   0.64213   0.64807   0.00000  Uiso   1.00
C297   C     0.39734   0.78587   0.70240   0.00000  Uiso   1.00
C298   C     0.40997   0.82627   0.75945   0.00000  Uiso   1.00
C299   C     0.43699   0.88432   0.74225   0.00000  Uiso   1.00
H300   H     0.40428   0.76467   0.52111   0.00000  Uiso   1.00
H301   H     0.29409   0.71699   0.49201   0.00000  Uiso   1.00
H302   H     0.47371   0.70781   0.49333   0.00000  Uiso   1.00
H303   H     0.44894   0.87396   0.55794   0.00000  Uiso   1.00
H304   H     0.16582   0.65663   0.49135   0.00000  Uiso   1.00
H305   H     0.54457   0.63727   0.49414   0.00000  Uiso   1.00
H306   H     0.49235   0.98765   0.63038   0.00000  Uiso   1.00
H307   H     0.35715   0.70700   0.76473   0.00000  Uiso   1.00
H308   H     0.24438   0.65615   0.74899   0.00000  Uiso   1.00
H309   H     0.42400   0.64696   0.75031   0.00000  Uiso   1.00
H310   H     0.39923   0.81312   0.81492   0.00000  Uiso   1.00
H311   H     0.12547   0.60724   0.69993   0.00000  Uiso   1.00
H312   H     0.50422   0.58789   0.70272   0.00000  Uiso   1.00
H313   H     0.45200   0.93826   0.83896   0.00000  Uiso   1.00
O314   O     0.07231   0.59951   0.58089   0.00000  Uiso   1.00
O315   O     0.56923   0.57413   0.58455   0.00000  Uiso   1.00
O316   O     0.50071   0.03381   0.76330   0.00000  Uiso   1.00
N317   N     0.17180   0.65199   0.54260   0.00000  Uiso   1.00
N318   N     0.52590   0.63389   0.54521   0.00000  Uiso   1.00
N319   N     0.47709   0.96146   0.67258   0.00000  Uiso   1.00
N320   N     0.15008   0.62542   0.65484   0.00000  Uiso   1.00
N321   N     0.50419   0.60732   0.65744   0.00000  Uiso   1.00
N322   N     0.45538   0.93488   0.78482   0.00000  Uiso   1.00
C323   C     0.60113   0.31213   0.84359   0.00000  Uiso   1.00
C324   C     0.60379   0.27157   0.77941   0.00000  Uiso   1.00
C325   C     0.56772   0.21322   0.77301   0.00000  Uiso   1.00
C326   C     0.57713   0.18362   0.71006   0.00000  Uiso   1.00
C327   C     0.57455   0.11641   0.61868   0.00000  Uiso   1.00
C328   C     0.59151   0.36257   0.81332   0.00000  Uiso   1.00
C329   C     0.54512   0.38073   0.83544   0.00000  Uiso   1.00
C330   C     0.54420   0.42774   0.80104   0.00000  Uiso   1.00
C331   C     0.52258   0.50184   0.76235   0.00000  Uiso   1.00
C332   C     0.66350   0.33735   0.86922   0.00000  Uiso   1.00
C333   C     0.67765   0.33432   0.93835   0.00000  Uiso   1.00
C334   C     0.73734   0.36011   0.95101   0.00000  Uiso   1.00
C335   C     0.82750   0.39505   0.99911   0.00000  Uiso   1.00
C336   C     0.68198   0.36334   0.74317   0.00000  Uiso   1.00
C337   C     0.64770   0.29939   0.72486   0.00000  Uiso   1.00
C338   C     0.65717   0.26987   0.66190   0.00000  Uiso   1.00
C339   C     0.62112   0.21148   0.65541   0.00000  Uiso   1.00
C340   C     0.63542   0.39039   0.75878   0.00000  Uiso   1.00
C341   C     0.63457   0.43739   0.72434   0.00000  Uiso   1.00
C342   C     0.58819   0.45561   0.74640   0.00000  Uiso   1.00
C343   C     0.70742   0.36517   0.81467   0.00000  Uiso   1.00
C344   C     0.76709   0.39097   0.82724   0.00000  Uiso   1.00
C345   C     0.78133   0.38797   0.89637   0.00000  Uiso   1.00
H346   H     0.56694   0.29048   0.88606   0.00000  Uiso   1.00
H347   H     0.53374   0.19171   0.81523   0.00000  Uiso   1.00
H348   H     0.51115   0.35920   0.87766   0.00000  Uiso   1.00
H349   H     0.64365   0.31279   0.98055   0.00000  Uiso   1.00
H350   H     0.51627   0.09447   0.71264   0.00000  Uiso   1.00
H351   H     0.46865   0.44765   0.84429   0.00000  Uiso   1.00
H352   H     0.74806   0.34979   0.06125   0.00000  Uiso   1.00
H353   H     0.71617   0.38500   0.70070   0.00000  Uiso   1.00
H354   H     0.69116   0.29141   0.61970   0.00000  Uiso   1.00
H355   H     0.66856   0.45890   0.68213   0.00000  Uiso   1.00
H356   H     0.80107   0.41249   0.78501   0.00000  Uiso   1.00
H357   H     0.64404   0.17539   0.55394   0.00000  Uiso   1.00
H358   H     0.59641   0.52857   0.68559   0.00000  Uiso   1.00
H359   H     0.87583   0.43071   0.90255   0.00000  Uiso   1.00
O360   O     0.56099   0.07166   0.58334   0.00000  Uiso   1.00
O361   O     0.49852   0.53503   0.75608   0.00000  Uiso   1.00
O362   O     0.86510   0.40663   0.04071   0.00000  Uiso   1.00
N363   N     0.54978   0.12636   0.68641   0.00000  Uiso   1.00
N364   N     0.50525   0.45655   0.80949   0.00000  Uiso   1.00
N365   N     0.76648   0.36507   0.01233   0.00000  Uiso   1.00
N366   N     0.61853   0.16990   0.60102   0.00000  Uiso   1.00
N367   N     0.57400   0.50009   0.72410   0.00000  Uiso   1.00
N368   N     0.83523   0.40861   0.92694   0.00000  Uiso   1.00
C369   C     0.83594   0.51883   0.39783   0.00000  Uiso   1.00
C370   C     0.83575   0.53290   0.31982   0.00000  Uiso   1.00
C371   C     0.84978   0.50343   0.25930   0.00000  Uiso   1.00
C372   C     0.84695   0.52301   0.19268   0.00000  Uiso   1.00
C373   C     0.84911   0.53764   0.07244   0.00000  Uiso   1.00
C374   C     0.77372   0.50896   0.43339   0.00000  Uiso   1.00
C375   C     0.73560   0.45936   0.46835   0.00000  Uiso   1.00
C376   C     0.68055   0.45878   0.49734   0.00000  Uiso   1.00
C377   C     0.58642   0.43625   0.55345   0.00000  Uiso   1.00
C378   C     0.87780   0.57438   0.43296   0.00000  Uiso   1.00
C379   C     0.92719   0.57979   0.46758   0.00000  Uiso   1.00
C380   C     0.95976   0.63430   0.49622   0.00000  Uiso   1.00
C381   C     0.02723   0.71334   0.55166   0.00000  Uiso   1.00
C382   C     0.80596   0.60602   0.38714   0.00000  Uiso   1.00
C383   C     0.81946   0.58026   0.31402   0.00000  Uiso   1.00
C384   C     0.81661   0.59989   0.24747   0.00000  Uiso   1.00
C385   C     0.83064   0.57045   0.18686   0.00000  Uiso   1.00
C386   C     0.75743   0.55631   0.42758   0.00000  Uiso   1.00
C387   C     0.70243   0.55582   0.45653   0.00000  Uiso   1.00
C388   C     0.66424   0.50623   0.49152   0.00000  Uiso   1.00
C389   C     0.86151   0.62174   0.42715   0.00000  Uiso   1.00
C390   C     0.89401   0.67625   0.45575   0.00000  Uiso   1.00
C391   C     0.94344   0.68174   0.49040   0.00000  Uiso   1.00
H392   H     0.84862   0.48196   0.40235   0.00000  Uiso   1.00
H393   H     0.86238   0.46678   0.26382   0.00000  Uiso   1.00
H394   H     0.74822   0.42272   0.47284   0.00000  Uiso   1.00
H395   H     0.93978   0.54313   0.47206   0.00000  Uiso   1.00
H396   H     0.87044   0.47082   0.10766   0.00000  Uiso   1.00
H397   H     0.62973   0.37792   0.54843   0.00000  Uiso   1.00
H398   H     0.03366   0.63183   0.54679   0.00000  Uiso   1.00
H399   H     0.79328   0.64289   0.38262   0.00000  Uiso   1.00
H400   H     0.80401   0.63654   0.24300   0.00000  Uiso   1.00
H401   H     0.68984   0.59247   0.45203   0.00000  Uiso   1.00
H402   H     0.88140   0.71288   0.45124   0.00000  Uiso   1.00
H403   H     0.82306   0.60860   0.09076   0.00000  Uiso   1.00
H404   H     0.58235   0.51570   0.53153   0.00000  Uiso   1.00
H405   H     0.98628   0.76961   0.52989   0.00000  Uiso   1.00
O406   O     0.85478   0.53262   0.00772   0.00000  Uiso   1.00
O407   O     0.53899   0.41073   0.58600   0.00000  Uiso   1.00
O408   O     0.06894   0.74386   0.58384   0.00000  Uiso   1.00
N409   N     0.85783   0.50413   0.12285   0.00000  Uiso   1.00
N410   N     0.63277   0.41726   0.53493   0.00000  Uiso   1.00
N411   N     0.01041   0.65465   0.53341   0.00000  Uiso   1.00
N412   N     0.83233   0.57826   0.11375   0.00000  Uiso   1.00
N413   N     0.60728   0.49140   0.52583   0.00000  Uiso   1.00
N414   N     0.98491   0.72878   0.52431   0.00000  Uiso   1.00
C415   C     0.65841   0.94136   0.21605   0.00000  Uiso   1.00
C416   C     0.62716   0.94648   0.15210   0.00000  Uiso   1.00
C417   C     0.57112   0.90894   0.13462   0.00000  Uiso   1.00
C418   C     0.55039   0.92108   0.07397   0.00000  Uiso   1.00
C419   C     0.49668   0.92171   0.98098   0.00000  Uiso   1.00
C420   C     0.71795   0.93938   0.18463   0.00000  Uiso   1.00
C421   C     0.73825   0.89588   0.19451   0.00000  Uiso   1.00
C422   C     0.79395   0.90206   0.16125   0.00000  Uiso   1.00
C423   C     0.88121   0.89169   0.11881   0.00000  Uiso   1.00
C424   C     0.67320   0.99874   0.25890   0.00000  Uiso   1.00
C425   C     0.65588   0.00516   0.33125   0.00000  Uiso   1.00
C426   C     0.67392   0.06132   0.36053   0.00000  Uiso   1.00
C427   C     0.69170   0.14313   0.43341   0.00000  Uiso   1.00
C428   C     0.72126   0.02968   0.13942   0.00000  Uiso   1.00
C429   C     0.66130   0.99445   0.11047   0.00000  Uiso   1.00
C430   C     0.64065   0.00666   0.04983   0.00000  Uiso   1.00
C431   C     0.58458   0.96914   0.03227   0.00000  Uiso   1.00
C432   C     0.75208   0.98735   0.14301   0.00000  Uiso   1.00
C433   C     0.80777   0.99360   0.10973   0.00000  Uiso   1.00
C434   C     0.82815   0.95012   0.11955   0.00000  Uiso   1.00
C435   C     0.70733   0.04672   0.21728   0.00000  Uiso   1.00
C436   C     0.72541   0.10288   0.24646   0.00000  Uiso   1.00
C437   C     0.70812   0.10938   0.31883   0.00000  Uiso   1.00
H438   H     0.63184   0.90401   0.24845   0.00000  Uiso   1.00
H439   H     0.54472   0.87181   0.16684   0.00000  Uiso   1.00
H440   H     0.71182   0.85876   0.22673   0.00000  Uiso   1.00
H441   H     0.62947   0.96802   0.36344   0.00000  Uiso   1.00
H442   H     0.46319   0.85726   0.05799   0.00000  Uiso   1.00
H443   H     0.81555   0.82975   0.18429   0.00000  Uiso   1.00
H444   H     0.64188   0.06015   0.47257   0.00000  Uiso   1.00
H445   H     0.74783   0.06704   0.10701   0.00000  Uiso   1.00
H446   H     0.66707   0.04379   0.01763   0.00000  Uiso   1.00
H447   H     0.83418   0.03073   0.07752   0.00000  Uiso   1.00
H448   H     0.75182   0.14000   0.21423   0.00000  Uiso   1.00
H449   H     0.56250   0.99684   0.93688   0.00000  Uiso   1.00
H450   H     0.91485   0.96933   0.06319   0.00000  Uiso   1.00
H451   H     0.74119   0.19973   0.35146   0.00000  Uiso   1.00
O452   O     0.45763   0.90880   0.94118   0.00000  Uiso   1.00
O453   O     0.91991   0.87272   0.10689   0.00000  Uiso   1.00
O454   O     0.69207   0.17500   0.48510   0.00000  Uiso   1.00
N455   N     0.49764   0.89331   0.04176   0.00000  Uiso   1.00
N456   N     0.82707   0.86758   0.15983   0.00000  Uiso   1.00
N457   N     0.66472   0.08299   0.42935   0.00000  Uiso   1.00
N458   N     0.55108   0.96842   0.97659   0.00000  Uiso   1.00
N459   N     0.88050   0.94269   0.09467   0.00000  Uiso   1.00
N460   N     0.71816   0.15810   0.36419   0.00000  Uiso   1.00
C461   C     0.83331   0.18651   0.61386   0.00000  Uiso   1.00
C462   C     0.86842   0.14885   0.58746   0.00000  Uiso   1.00
C463   C     0.87100   0.12500   0.51833   0.00000  Uiso   1.00
C464   C     0.90560   0.09181   0.50491   0.00000  Uiso   1.00
C465   C     0.95540   0.03467   0.45573   0.00000  Uiso   1.00
C466   C     0.79219   0.15643   0.67870   0.00000  Uiso   1.00
C467   C     0.73067   0.13897   0.68629   0.00000  Uiso   1.00
C468   C     0.70110   0.11218   0.74968   0.00000  Uiso   1.00
C469   C     0.63255   0.06686   0.84218   0.00000  Uiso   1.00
C470   C     0.87828   0.24293   0.64333   0.00000  Uiso   1.00
C471   C     0.88915   0.29819   0.62119   0.00000  Uiso   1.00
C472   C     0.93205   0.34423   0.65482   0.00000  Uiso   1.00
C473   C     0.99718   0.43320   0.69240   0.00000  Uiso   1.00
C474   C     0.89018   0.16999   0.71295   0.00000  Uiso   1.00
C475   C     0.89931   0.13987   0.64129   0.00000  Uiso   1.00
C476   C     0.93392   0.10672   0.62796   0.00000  Uiso   1.00
C477   C     0.93655   0.08283   0.55882   0.00000  Uiso   1.00
C478   C     0.82307   0.14746   0.73252   0.00000  Uiso   1.00
C479   C     0.79359   0.12069   0.79592   0.00000  Uiso   1.00
C480   C     0.73204   0.10319   0.80360   0.00000  Uiso   1.00
C481   C     0.90917   0.23396   0.69715   0.00000  Uiso   1.00
C482   C     0.95207   0.27991   0.73082   0.00000  Uiso   1.00
C483   C     0.96300   0.33524   0.70873   0.00000  Uiso   1.00
H484   H     0.80926   0.19350   0.57197   0.00000  Uiso   1.00
H485   H     0.84709   0.13195   0.47670   0.00000  Uiso   1.00
H486   H     0.70678   0.14593   0.64463   0.00000  Uiso   1.00
H487   H     0.86524   0.30512   0.57954   0.00000  Uiso   1.00
H488   H     0.90263   0.05974   0.39482   0.00000  Uiso   1.00
H489   H     0.60679   0.08923   0.74893   0.00000  Uiso   1.00
H490   H     0.94092   0.42492   0.61168   0.00000  Uiso   1.00
H491   H     0.91422   0.16301   0.75486   0.00000  Uiso   1.00
H492   H     0.95781   0.09978   0.66962   0.00000  Uiso   1.00
H493   H     0.81750   0.11376   0.83756   0.00000  Uiso   1.00
H494   H     0.97596   0.27295   0.77247   0.00000  Uiso   1.00
H495   H     0.99250   0.03363   0.55140   0.00000  Uiso   1.00
H496   H     0.69665   0.06312   0.90552   0.00000  Uiso   1.00
H497   H     0.03079   0.39881   0.76826   0.00000  Uiso   1.00
O498   O     0.97433   0.00563   0.41375   0.00000  Uiso   1.00
O499   O     0.58620   0.04433   0.87833   0.00000  Uiso   1.00
O500   O     0.02457   0.48475   0.69826   0.00000  Uiso   1.00
N501   N     0.91781   0.06228   0.44336   0.00000  Uiso   1.00
N502   N     0.64121   0.08984   0.77443   0.00000  Uiso   1.00
N503   N     0.95359   0.40369   0.64612   0.00000  Uiso   1.00
N504   N     0.96617   0.04823   0.52762   0.00000  Uiso   1.00
N505   N     0.68957   0.07579   0.85869   0.00000  Uiso   1.00
N506   N     0.00194   0.38964   0.73038   0.00000  Uiso   1.00
C507   C     0.13349   0.75260   0.89294   0.00000  Uiso   1.00
C508   C     0.08900   0.69027   0.90113   0.00000  Uiso   1.00
C509   C     0.07535   0.64754   0.84674   0.00000  Uiso   1.00
C510   C     0.03343   0.59326   0.86512   0.00000  Uiso   1.00
C511   C     0.96848   0.49818   0.86713   0.00000  Uiso   1.00
C512   C     0.09902   0.79111   0.91795   0.00000  Uiso   1.00
C513   C     0.09379   0.83317   0.87771   0.00000  Uiso   1.00
C514   C     0.06031   0.86378   0.91025   0.00000  Uiso   1.00
C515   C     0.01094   0.92529   0.93840   0.00000  Uiso   1.00
C516   C     0.17808   0.76242   0.94838   0.00000  Uiso   1.00
C517   C     0.23933   0.78037   0.93374   0.00000  Uiso   1.00
C518   C     0.27242   0.78684   0.99190   0.00000  Uiso   1.00
C519   C     0.34580   0.80380   0.06731   0.00000  Uiso   1.00
C520   C     0.08334   0.73219   0.02228   0.00000  Uiso   1.00
C521   C     0.06176   0.67919   0.97138   0.00000  Uiso   1.00
C522   C     0.01986   0.62496   0.98984   0.00000  Uiso   1.00
C523   C     0.00615   0.58215   0.93549   0.00000  Uiso   1.00
C524   C     0.07178   0.78003   0.98820   0.00000  Uiso   1.00
C525   C     0.03831   0.81059   0.02081   0.00000  Uiso   1.00
C526   C     0.03303   0.85268   0.98063   0.00000  Uiso   1.00
C527   C     0.15084   0.75133   0.01864   0.00000  Uiso   1.00
C528   C     0.18384   0.75778   0.07684   0.00000  Uiso   1.00
C529   C     0.24513   0.77574   0.06228   0.00000  Uiso   1.00
H530   H     0.15470   0.76123   0.83825   0.00000  Uiso   1.00
H531   H     0.09643   0.65614   0.79238   0.00000  Uiso   1.00
H532   H     0.11488   0.84174   0.82335   0.00000  Uiso   1.00
H533   H     0.26040   0.78895   0.87937   0.00000  Uiso   1.00
H534   H     0.01981   0.53474   0.77250   0.00000  Uiso   1.00
H535   H     0.05872   0.92611   0.83781   0.00000  Uiso   1.00
H536   H     0.36557   0.81478   0.95593   0.00000  Uiso   1.00
H537   H     0.06213   0.72356   0.07698   0.00000  Uiso   1.00
H538   H     0.99879   0.61639   0.04421   0.00000  Uiso   1.00
H539   H     0.01723   0.80200   0.07518   0.00000  Uiso   1.00
H540   H     0.16275   0.74920   0.13119   0.00000  Uiso   1.00
H541   H     0.94055   0.50248   0.97690   0.00000  Uiso   1.00
H542   H     0.97947   0.89386   0.04220   0.00000  Uiso   1.00
H543   H     0.28631   0.78252   0.16033   0.00000  Uiso   1.00
O544   O     0.94017   0.44880   0.84883   0.00000  Uiso   1.00
O545   O     0.99123   0.96227   0.93451   0.00000  Uiso   1.00
O546   O     0.39380   0.81621   0.08949   0.00000  Uiso   1.00
N547   N     0.00986   0.54185   0.82511   0.00000  Uiso   1.00
N548   N     0.04623   0.90776   0.88616   0.00000  Uiso   1.00
N549   N     0.33311   0.80369   0.99660   0.00000  Uiso   1.00
N550   N     0.96721   0.52449   0.93509   0.00000  Uiso   1.00
N551   N     0.00359   0.89040   0.99614   0.00000  Uiso   1.00
N552   N     0.29046   0.78633   0.10658   0.00000  Uiso   1.00
