data_job_06139
_audit_creation_date              2018-12-19
_audit_creation_method            'Materials Studio'
_symmetry_space_group_name_H-M    'P1'
_symmetry_Int_Tables_number       1
_symmetry_cell_setting            triclinic
loop_
_symmetry_equiv_pos_as_xyz
  x,y,z
_cell_length_a                    15.2087
_cell_length_b                    15.2415
_cell_length_c                    15.2673
_cell_angle_alpha                 97.8940
_cell_angle_beta                  97.9425
_cell_angle_gamma                 97.9694
loop_
_atom_site_label
_atom_site_type_symbol
_atom_site_fract_x
_atom_site_fract_y
_atom_site_fract_z
_atom_site_U_iso_or_equiv
_atom_site_adp_type
_atom_site_occupancy
C1     C     0.89578   0.50686   0.29025   0.00000  Uiso   1.00
C2     C     0.80957   0.44123   0.28684   0.00000  Uiso   1.00
C3     C     0.77682   0.41237   0.36023   0.00000  Uiso   1.00
C4     C     0.69681   0.35217   0.34307   0.00000  Uiso   1.00
C5     C     0.56990   0.25483   0.35107   0.00000  Uiso   1.00
C6     C     0.95224   0.45823   0.23051   0.00000  Uiso   1.00
C7     C     0.03944   0.44368   0.25654   0.00000  Uiso   1.00
C8     C     0.07952   0.39781   0.19195   0.00000  Uiso   1.00
C9     C     0.17413   0.32692   0.11249   0.00000  Uiso   1.00
C10    C     0.86807   0.58301   0.24307   0.00000  Uiso   1.00
C11    C     0.88452   0.67338   0.27964   0.00000  Uiso   1.00
C12    C     0.85375   0.73257   0.22561   0.00000  Uiso   1.00
C13    C     0.81767   0.85542   0.16564   0.00000  Uiso   1.00
C14    C     0.81192   0.45128   0.12926   0.00000  Uiso   1.00
C15    C     0.76403   0.41104   0.19940   0.00000  Uiso   1.00
C16    C     0.68404   0.35088   0.18212   0.00000  Uiso   1.00
C17    C     0.65117   0.32193   0.25547   0.00000  Uiso   1.00
C18    C     0.90669   0.42804   0.14307   0.00000  Uiso   1.00
C19    C     0.94665   0.38219   0.07843   0.00000  Uiso   1.00
C20    C     0.03389   0.36756   0.10435   0.00000  Uiso   1.00
C21    C     0.82251   0.55283   0.15562   0.00000  Uiso   1.00
C22    C     0.79173   0.61188   0.10152   0.00000  Uiso   1.00
C23    C     0.80812   0.70232   0.13801   0.00000  Uiso   1.00
H24    H     0.93125   0.53036   0.35832   0.00000  Uiso   1.00
H25    H     0.81210   0.43574   0.42789   0.00000  Uiso   1.00
H26    H     0.07468   0.46706   0.32421   0.00000  Uiso   1.00
H27    H     0.91977   0.69672   0.34731   0.00000  Uiso   1.00
H28    H     0.65993   0.31750   0.46645   0.00000  Uiso   1.00
H29    H     0.21360   0.38356   0.24784   0.00000  Uiso   1.00
H30    H     0.88695   0.86785   0.29653   0.00000  Uiso   1.00
H31    H     0.77645   0.42777   0.06118   0.00000  Uiso   1.00
H32    H     0.64880   0.32753   0.11444   0.00000  Uiso   1.00
H33    H     0.91138   0.35884   0.01077   0.00000  Uiso   1.00
H34    H     0.75648   0.58850   0.03386   0.00000  Uiso   1.00
H35    H     0.52739   0.22967   0.21205   0.00000  Uiso   1.00
H36    H     0.08107   0.29573   0.99343   0.00000  Uiso   1.00
H37    H     0.75442   0.78001   0.04213   0.00000  Uiso   1.00
O38    O     0.51249   0.20947   0.37965   0.00000  Uiso   1.00
O39    O     0.23889   0.29615   0.09283   0.00000  Uiso   1.00
O40    O     0.81034   0.93152   0.15672   0.00000  Uiso   1.00
N41    N     0.64624   0.31060   0.39927   0.00000  Uiso   1.00
N42    N     0.16389   0.37235   0.19488   0.00000  Uiso   1.00
N43    N     0.85852   0.82512   0.24040   0.00000  Uiso   1.00
N44    N     0.57493   0.26334   0.26238   0.00000  Uiso   1.00
N45    N     0.09257   0.32509   0.05799   0.00000  Uiso   1.00
N46    N     0.78721   0.77785   0.10351   0.00000  Uiso   1.00
C47    C     0.29064   0.89561   0.50671   0.00000  Uiso   1.00
C48    C     0.28723   0.80964   0.44126   0.00000  Uiso   1.00
C49    C     0.36092   0.77703   0.41253   0.00000  Uiso   1.00
C50    C     0.34370   0.69723   0.35248   0.00000  Uiso   1.00
C51    C     0.35175   0.57067   0.25541   0.00000  Uiso   1.00
C52    C     0.23065   0.95193   0.45809   0.00000  Uiso   1.00
C53    C     0.25677   0.03897   0.44352   0.00000  Uiso   1.00
C54    C     0.19191   0.07894   0.39765   0.00000  Uiso   1.00
C55    C     0.11211   0.17333   0.32675   0.00000  Uiso   1.00
C56    C     0.24328   0.86788   0.58271   0.00000  Uiso   1.00
C57    C     0.28000   0.88426   0.67294   0.00000  Uiso   1.00
C58    C     0.22576   0.85350   0.73200   0.00000  Uiso   1.00
C59    C     0.16556   0.81738   0.85461   0.00000  Uiso   1.00
C60    C     0.12901   0.81187   0.45116   0.00000  Uiso   1.00
C61    C     0.19944   0.76416   0.41109   0.00000  Uiso   1.00
C62    C     0.18210   0.68438   0.35107   0.00000  Uiso   1.00
C63    C     0.25575   0.65165   0.32226   0.00000  Uiso   1.00
C64    C     0.14286   0.90645   0.42791   0.00000  Uiso   1.00
C65    C     0.07795   0.94631   0.38206   0.00000  Uiso   1.00
C66    C     0.10396   0.03338   0.36742   0.00000  Uiso   1.00
C67    C     0.15549   0.82240   0.55254   0.00000  Uiso   1.00
C68    C     0.10118   0.79161   0.61147   0.00000  Uiso   1.00
C69    C     0.13781   0.80793   0.70177   0.00000  Uiso   1.00
H70    H     0.35899   0.93103   0.53020   0.00000  Uiso   1.00
H71    H     0.42885   0.81226   0.43589   0.00000  Uiso   1.00
H72    H     0.32471   0.07415   0.46688   0.00000  Uiso   1.00
H73    H     0.34794   0.91947   0.69626   0.00000  Uiso   1.00
H74    H     0.46759   0.66053   0.31800   0.00000  Uiso   1.00
H75    H     0.24800   0.21276   0.38337   0.00000  Uiso   1.00
H76    H     0.29698   0.88658   0.86707   0.00000  Uiso   1.00
H77    H     0.06066   0.77646   0.42767   0.00000  Uiso   1.00
H78    H     0.11415   0.64919   0.32773   0.00000  Uiso   1.00
H79    H     0.01002   0.91109   0.35872   0.00000  Uiso   1.00
H80    H     0.03324   0.75641   0.58810   0.00000  Uiso   1.00
H81    H     0.21217   0.52818   0.23021   0.00000  Uiso   1.00
H82    H     0.99258   0.08042   0.29559   0.00000  Uiso   1.00
H83    H     0.04156   0.75424   0.77928   0.00000  Uiso   1.00
O84    O     0.38045   0.51344   0.21019   0.00000  Uiso   1.00
O85    O     0.09235   0.23795   0.29598   0.00000  Uiso   1.00
O86    O     0.15661   0.81001   0.93057   0.00000  Uiso   1.00
N87    N     0.40013   0.64684   0.31107   0.00000  Uiso   1.00
N88    N     0.19484   0.16314   0.37218   0.00000  Uiso   1.00
N89    N     0.24062   0.85821   0.82439   0.00000  Uiso   1.00
N90    N     0.26269   0.57562   0.26383   0.00000  Uiso   1.00
N91    N     0.05740   0.09192   0.32494   0.00000  Uiso   1.00
N92    N     0.10318   0.78699   0.77716   0.00000  Uiso   1.00
C93    C     0.50704   0.29037   0.89541   0.00000  Uiso   1.00
C94    C     0.44132   0.28698   0.80954   0.00000  Uiso   1.00
C95    C     0.41246   0.36050   0.77691   0.00000  Uiso   1.00
C96    C     0.35217   0.34333   0.69721   0.00000  Uiso   1.00
C97    C     0.25469   0.35138   0.57080   0.00000  Uiso   1.00
C98    C     0.45823   0.23045   0.95163   0.00000  Uiso   1.00
C99    C     0.44361   0.25644   0.03848   0.00000  Uiso   1.00
C100   C     0.39756   0.19168   0.07840   0.00000  Uiso   1.00
C101   C     0.32640   0.11195   0.17261   0.00000  Uiso   1.00
C102   C     0.58336   0.24318   0.86782   0.00000  Uiso   1.00
C103   C     0.67395   0.27987   0.88422   0.00000  Uiso   1.00
C104   C     0.73325   0.22581   0.85359   0.00000  Uiso   1.00
C105   C     0.85636   0.16585   0.81768   0.00000  Uiso   1.00
C106   C     0.45129   0.12912   0.81188   0.00000  Uiso   1.00
C107   C     0.41103   0.19939   0.76418   0.00000  Uiso   1.00
C108   C     0.35077   0.18210   0.68450   0.00000  Uiso   1.00
C109   C     0.32183   0.25559   0.65176   0.00000  Uiso   1.00
C110   C     0.42795   0.14287   0.90627   0.00000  Uiso   1.00
C111   C     0.38192   0.07804   0.94607   0.00000  Uiso   1.00
C112   C     0.36722   0.10393   0.03295   0.00000  Uiso   1.00
C113   C     0.55307   0.15559   0.82245   0.00000  Uiso   1.00
C114   C     0.61225   0.10146   0.79180   0.00000  Uiso   1.00
C115   C     0.70291   0.13806   0.80814   0.00000  Uiso   1.00
H116   H     0.53062   0.35855   0.93073   0.00000  Uiso   1.00
H117   H     0.43591   0.42827   0.81205   0.00000  Uiso   1.00
H118   H     0.46706   0.32422   0.07357   0.00000  Uiso   1.00
H119   H     0.69735   0.34764   0.91933   0.00000  Uiso   1.00
H120   H     0.31752   0.46694   0.66047   0.00000  Uiso   1.00
H121   H     0.38323   0.24754   0.21192   0.00000  Uiso   1.00
H122   H     0.86886   0.29693   0.88667   0.00000  Uiso   1.00
H123   H     0.42771   0.06093   0.77657   0.00000  Uiso   1.00
H124   H     0.32735   0.11432   0.64941   0.00000  Uiso   1.00
H125   H     0.35850   0.01027   0.91094   0.00000  Uiso   1.00
H126   H     0.58879   0.03369   0.75670   0.00000  Uiso   1.00
H127   H     0.22941   0.21212   0.52847   0.00000  Uiso   1.00
H128   H     0.29512   0.99272   0.07993   0.00000  Uiso   1.00
H129   H     0.78075   0.04211   0.75467   0.00000  Uiso   1.00
O130   O     0.20928   0.38002   0.51362   0.00000  Uiso   1.00
O131   O     0.29551   0.09217   0.23711   0.00000  Uiso   1.00
O132   O     0.93263   0.15697   0.81039   0.00000  Uiso   1.00
N133   N     0.31057   0.39964   0.64684   0.00000  Uiso   1.00
N134   N     0.37199   0.19452   0.16242   0.00000  Uiso   1.00
N135   N     0.82602   0.24069   0.85836   0.00000  Uiso   1.00
N136   N     0.26316   0.26253   0.57581   0.00000  Uiso   1.00
N137   N     0.32458   0.05741   0.09139   0.00000  Uiso   1.00
N138   N     0.77861   0.10357   0.78733   0.00000  Uiso   1.00
C139   C     0.10422   0.49314   0.70975   0.00000  Uiso   1.00
C140   C     0.19043   0.55877   0.71316   0.00000  Uiso   1.00
C141   C     0.22318   0.58763   0.63977   0.00000  Uiso   1.00
C142   C     0.30319   0.64783   0.65693   0.00000  Uiso   1.00
C143   C     0.43010   0.74517   0.64892   0.00000  Uiso   1.00
C144   C     0.04776   0.54177   0.76949   0.00000  Uiso   1.00
C145   C     0.96056   0.55632   0.74346   0.00000  Uiso   1.00
C146   C     0.92048   0.60219   0.80805   0.00000  Uiso   1.00
C147   C     0.82587   0.67308   0.88750   0.00000  Uiso   1.00
C148   C     0.13193   0.41699   0.75693   0.00000  Uiso   1.00
C149   C     0.11548   0.32662   0.72036   0.00000  Uiso   1.00
C150   C     0.14625   0.26743   0.77439   0.00000  Uiso   1.00
C151   C     0.18233   0.14458   0.83436   0.00000  Uiso   1.00
C152   C     0.18808   0.54872   0.87074   0.00000  Uiso   1.00
C153   C     0.23597   0.58896   0.80060   0.00000  Uiso   1.00
C154   C     0.31596   0.64912   0.81788   0.00000  Uiso   1.00
C155   C     0.34883   0.67807   0.74453   0.00000  Uiso   1.00
C156   C     0.09331   0.57195   0.85693   0.00000  Uiso   1.00
C157   C     0.05335   0.61781   0.92157   0.00000  Uiso   1.00
C158   C     0.96611   0.63244   0.89565   0.00000  Uiso   1.00
C159   C     0.17749   0.44717   0.84438   0.00000  Uiso   1.00
C160   C     0.20827   0.38812   0.89847   0.00000  Uiso   1.00
C161   C     0.19188   0.29768   0.86199   0.00000  Uiso   1.00
H162   H     0.06875   0.46964   0.64168   0.00000  Uiso   1.00
H163   H     0.18790   0.56426   0.57211   0.00000  Uiso   1.00
H164   H     0.92532   0.53294   0.67579   0.00000  Uiso   1.00
H165   H     0.08023   0.30328   0.65269   0.00000  Uiso   1.00
H166   H     0.34007   0.68250   0.53355   0.00000  Uiso   1.00
H167   H     0.78640   0.61644   0.75216   0.00000  Uiso   1.00
H168   H     0.11305   0.13215   0.70346   0.00000  Uiso   1.00
H169   H     0.22355   0.57223   0.93882   0.00000  Uiso   1.00
H170   H     0.35120   0.67247   0.88556   0.00000  Uiso   1.00
H171   H     0.08862   0.64116   0.98923   0.00000  Uiso   1.00
H172   H     0.24352   0.41150   0.96614   0.00000  Uiso   1.00
H173   H     0.47261   0.77033   0.78795   0.00000  Uiso   1.00
H174   H     0.91893   0.70427   0.00657   0.00000  Uiso   1.00
H175   H     0.24558   0.21999   0.95787   0.00000  Uiso   1.00
O176   O     0.48750   0.79053   0.62035   0.00000  Uiso   1.00
O177   O     0.76111   0.70385   0.90717   0.00000  Uiso   1.00
O178   O     0.18966   0.06848   0.84328   0.00000  Uiso   1.00
N179   N     0.35376   0.68940   0.60073   0.00000  Uiso   1.00
N180   N     0.83611   0.62765   0.80512   0.00000  Uiso   1.00
N181   N     0.14148   0.17488   0.75960   0.00000  Uiso   1.00
N182   N     0.42507   0.73666   0.73762   0.00000  Uiso   1.00
N183   N     0.90743   0.67491   0.94201   0.00000  Uiso   1.00
N184   N     0.21279   0.22215   0.89649   0.00000  Uiso   1.00
C185   C     0.70936   0.10439   0.49329   0.00000  Uiso   1.00
C186   C     0.71277   0.19036   0.55874   0.00000  Uiso   1.00
C187   C     0.63908   0.22297   0.58747   0.00000  Uiso   1.00
C188   C     0.65630   0.30277   0.64752   0.00000  Uiso   1.00
C189   C     0.64825   0.42933   0.74459   0.00000  Uiso   1.00
C190   C     0.76935   0.04807   0.54191   0.00000  Uiso   1.00
C191   C     0.74323   0.96103   0.55648   0.00000  Uiso   1.00
C192   C     0.80809   0.92106   0.60235   0.00000  Uiso   1.00
C193   C     0.88789   0.82667   0.67325   0.00000  Uiso   1.00
C194   C     0.75672   0.13212   0.41729   0.00000  Uiso   1.00
C195   C     0.72000   0.11574   0.32706   0.00000  Uiso   1.00
C196   C     0.77424   0.14650   0.26800   0.00000  Uiso   1.00
C197   C     0.83444   0.18262   0.14539   0.00000  Uiso   1.00
C198   C     0.87099   0.18813   0.54884   0.00000  Uiso   1.00
C199   C     0.80056   0.23584   0.58891   0.00000  Uiso   1.00
C200   C     0.81790   0.31562   0.64893   0.00000  Uiso   1.00
C201   C     0.74425   0.34835   0.67774   0.00000  Uiso   1.00
C202   C     0.85714   0.09355   0.57209   0.00000  Uiso   1.00
C203   C     0.92205   0.05369   0.61794   0.00000  Uiso   1.00
C204   C     0.89604   0.96662   0.63258   0.00000  Uiso   1.00
C205   C     0.84451   0.17760   0.44746   0.00000  Uiso   1.00
C206   C     0.89882   0.20839   0.38853   0.00000  Uiso   1.00
C207   C     0.86219   0.19207   0.29823   0.00000  Uiso   1.00
H208   H     0.64101   0.06897   0.46980   0.00000  Uiso   1.00
H209   H     0.57115   0.18774   0.56411   0.00000  Uiso   1.00
H210   H     0.67529   0.92585   0.53312   0.00000  Uiso   1.00
H211   H     0.65206   0.08053   0.30374   0.00000  Uiso   1.00
H212   H     0.53241   0.33947   0.68200   0.00000  Uiso   1.00
H213   H     0.75200   0.78724   0.61663   0.00000  Uiso   1.00
H214   H     0.70302   0.11342   0.13293   0.00000  Uiso   1.00
H215   H     0.93934   0.22354   0.57233   0.00000  Uiso   1.00
H216   H     0.88585   0.35081   0.67227   0.00000  Uiso   1.00
H217   H     0.98998   0.08891   0.64128   0.00000  Uiso   1.00
H218   H     0.96676   0.24359   0.41190   0.00000  Uiso   1.00
H219   H     0.78783   0.47182   0.76979   0.00000  Uiso   1.00
H220   H     0.00742   0.91958   0.70441   0.00000  Uiso   1.00
H221   H     0.95844   0.24576   0.22072   0.00000  Uiso   1.00
O222   O     0.61955   0.48656   0.78981   0.00000  Uiso   1.00
O223   O     0.90765   0.76204   0.70402   0.00000  Uiso   1.00
O224   O     0.84339   0.18999   0.06943   0.00000  Uiso   1.00
N225   N     0.59987   0.35316   0.68893   0.00000  Uiso   1.00
N226   N     0.80516   0.83686   0.62782   0.00000  Uiso   1.00
N227   N     0.75938   0.14179   0.17561   0.00000  Uiso   1.00
N228   N     0.73731   0.42438   0.73617   0.00000  Uiso   1.00
N229   N     0.94260   0.90808   0.67506   0.00000  Uiso   1.00
N230   N     0.89682   0.21301   0.22284   0.00000  Uiso   1.00
C231   C     0.49296   0.70963   0.10459   0.00000  Uiso   1.00
C232   C     0.55868   0.71302   0.19046   0.00000  Uiso   1.00
C233   C     0.58754   0.63950   0.22309   0.00000  Uiso   1.00
C234   C     0.64783   0.65667   0.30279   0.00000  Uiso   1.00
C235   C     0.74531   0.64862   0.42920   0.00000  Uiso   1.00
C236   C     0.54177   0.76955   0.04837   0.00000  Uiso   1.00
C237   C     0.55639   0.74356   0.96152   0.00000  Uiso   1.00
C238   C     0.60244   0.80832   0.92160   0.00000  Uiso   1.00
C239   C     0.67360   0.88805   0.82739   0.00000  Uiso   1.00
C240   C     0.41664   0.75682   0.13218   0.00000  Uiso   1.00
C241   C     0.32605   0.72013   0.11578   0.00000  Uiso   1.00
C242   C     0.26675   0.77419   0.14641   0.00000  Uiso   1.00
C243   C     0.14364   0.83415   0.18232   0.00000  Uiso   1.00
C244   C     0.54871   0.87088   0.18812   0.00000  Uiso   1.00
C245   C     0.58897   0.80061   0.23582   0.00000  Uiso   1.00
C246   C     0.64923   0.81790   0.31550   0.00000  Uiso   1.00
C247   C     0.67817   0.74441   0.34824   0.00000  Uiso   1.00
C248   C     0.57205   0.85713   0.09373   0.00000  Uiso   1.00
C249   C     0.61808   0.92196   0.05393   0.00000  Uiso   1.00
C250   C     0.63278   0.89607   0.96705   0.00000  Uiso   1.00
C251   C     0.44692   0.84441   0.17755   0.00000  Uiso   1.00
C252   C     0.38775   0.89853   0.20820   0.00000  Uiso   1.00
C253   C     0.29709   0.86193   0.19186   0.00000  Uiso   1.00
H254   H     0.46938   0.64145   0.06927   0.00000  Uiso   1.00
H255   H     0.56409   0.57173   0.18795   0.00000  Uiso   1.00
H256   H     0.53294   0.67578   0.92643   0.00000  Uiso   1.00
H257   H     0.30265   0.65236   0.08067   0.00000  Uiso   1.00
H258   H     0.68248   0.53306   0.33953   0.00000  Uiso   1.00
H259   H     0.61677   0.75246   0.78808   0.00000  Uiso   1.00
H260   H     0.13114   0.70307   0.11333   0.00000  Uiso   1.00
H261   H     0.57229   0.93907   0.22343   0.00000  Uiso   1.00
H262   H     0.67265   0.88568   0.35059   0.00000  Uiso   1.00
H263   H     0.64150   0.98973   0.08906   0.00000  Uiso   1.00
H264   H     0.41120   0.96631   0.24330   0.00000  Uiso   1.00
H265   H     0.77059   0.78788   0.47153   0.00000  Uiso   1.00
H266   H     0.70488   0.00728   0.92007   0.00000  Uiso   1.00
H267   H     0.21925   0.95789   0.24533   0.00000  Uiso   1.00
O268   O     0.79072   0.61998   0.48638   0.00000  Uiso   1.00
O269   O     0.70449   0.90782   0.76289   0.00000  Uiso   1.00
O270   O     0.06737   0.84303   0.18961   0.00000  Uiso   1.00
N271   N     0.68943   0.60036   0.35316   0.00000  Uiso   1.00
N272   N     0.62801   0.80548   0.83758   0.00000  Uiso   1.00
N273   N     0.17398   0.75931   0.14164   0.00000  Uiso   1.00
N274   N     0.73684   0.73747   0.42419   0.00000  Uiso   1.00
N275   N     0.67542   0.94259   0.90861   0.00000  Uiso   1.00
N276   N     0.22139   0.89643   0.21267   0.00000  Uiso   1.00
