data_job_07099
_audit_creation_date              2018-12-19
_audit_creation_method            'Materials Studio'
_symmetry_space_group_name_H-M    'P1'
_symmetry_Int_Tables_number       1
_symmetry_cell_setting            triclinic
loop_
_symmetry_equiv_pos_as_xyz
  x,y,z
_cell_length_a                    22.1504
_cell_length_b                    22.8186
_cell_length_c                    23.7860
_cell_angle_alpha                 61.7826
_cell_angle_beta                  117.4735
_cell_angle_gamma                 101.4303
loop_
_atom_site_label
_atom_site_type_symbol
_atom_site_fract_x
_atom_site_fract_y
_atom_site_fract_z
_atom_site_U_iso_or_equiv
_atom_site_adp_type
_atom_site_occupancy
C1     C     0.79175   0.54726   0.61737   0.00000  Uiso   1.00
C2     C     0.80726   0.52142   0.69477   0.00000  Uiso   1.00
C3     C     0.77068   0.47402   0.72924   0.00000  Uiso   1.00
C4     C     0.79303   0.45709   0.80014   0.00000  Uiso   1.00
C5     C     0.80844   0.41252   0.91498   0.00000  Uiso   1.00
C6     C     0.78325   0.62259   0.58499   0.00000  Uiso   1.00
C7     C     0.72649   0.66023   0.52715   0.00000  Uiso   1.00
C8     C     0.72864   0.72846   0.50562   0.00000  Uiso   1.00
C9     C     0.70680   0.84095   0.44999   0.00000  Uiso   1.00
C10    C     0.85651   0.53495   0.61663   0.00000  Uiso   1.00
C11    C     0.86135   0.49892   0.58537   0.00000  Uiso   1.00
C12    C     0.92518   0.49338   0.59047   0.00000  Uiso   1.00
C13    C     0.01709   0.46979   0.58396   0.00000  Uiso   1.00
C14    C     0.89650   0.60150   0.68198   0.00000  Uiso   1.00
C15    C     0.86416   0.55089   0.72987   0.00000  Uiso   1.00
C16    C     0.88657   0.53402   0.80073   0.00000  Uiso   1.00
C17    C     0.85003   0.48660   0.83530   0.00000  Uiso   1.00
C18    C     0.84015   0.65204   0.62008   0.00000  Uiso   1.00
C19    C     0.84239   0.72023   0.59864   0.00000  Uiso   1.00
C20    C     0.78564   0.75798   0.54078   0.00000  Uiso   1.00
C21    C     0.91341   0.56440   0.65172   0.00000  Uiso   1.00
C22    C     0.97725   0.55892   0.65687   0.00000  Uiso   1.00
C23    C     0.98218   0.52289   0.62563   0.00000  Uiso   1.00
H24    H     0.74745   0.52433   0.59004   0.00000  Uiso   1.00
H25    H     0.72664   0.45124   0.70206   0.00000  Uiso   1.00
H26    H     0.68247   0.63742   0.49999   0.00000  Uiso   1.00
H27    H     0.81731   0.47614   0.55822   0.00000  Uiso   1.00
H28    H     0.72865   0.38321   0.84172   0.00000  Uiso   1.00
H29    H     0.63551   0.77579   0.41564   0.00000  Uiso   1.00
H30    H     0.91985   0.43569   0.53841   0.00000  Uiso   1.00
H31    H     0.94080   0.62443   0.70931   0.00000  Uiso   1.00
H32    H     0.93061   0.55683   0.82788   0.00000  Uiso   1.00
H33    H     0.88643   0.74301   0.62581   0.00000  Uiso   1.00
H34    H     0.02127   0.58172   0.68403   0.00000  Uiso   1.00
H35    H     0.89419   0.46891   0.94384   0.00000  Uiso   1.00
H36    H     0.80106   0.86150   0.51775   0.00000  Uiso   1.00
H37    H     0.08539   0.52139   0.64053   0.00000  Uiso   1.00
O38    O     0.80121   0.37980   0.96862   0.00000  Uiso   1.00
O39    O     0.67903   0.89485   0.40961   0.00000  Uiso   1.00
O40    O     0.05207   0.44864   0.57069   0.00000  Uiso   1.00
N41    N     0.76902   0.41265   0.84949   0.00000  Uiso   1.00
N42    N     0.68194   0.77969   0.45113   0.00000  Uiso   1.00
N43    N     0.94776   0.46173   0.56590   0.00000  Uiso   1.00
N44    N     0.85810   0.45876   0.90444   0.00000  Uiso   1.00
N45    N     0.77102   0.82580   0.50608   0.00000  Uiso   1.00
N46    N     0.03684   0.50785   0.62085   0.00000  Uiso   1.00
C47    C     0.56815   0.15167   0.01930   0.00000  Uiso   1.00
C48    C     0.62618   0.14204   0.00660   0.00000  Uiso   1.00
C49    C     0.64133   0.08414   0.00965   0.00000  Uiso   1.00
C50    C     0.69651   0.08536   0.99640   0.00000  Uiso   1.00
C51    C     0.78078   0.06171   0.97910   0.00000  Uiso   1.00
C52    C     0.60098   0.17362   0.07826   0.00000  Uiso   1.00
C53    C     0.59493   0.14228   0.14156   0.00000  Uiso   1.00
C54    C     0.62889   0.17010   0.18862   0.00000  Uiso   1.00
C55    C     0.67399   0.19551   0.28256   0.00000  Uiso   1.00
C56    C     0.52597   0.21139   0.95320   0.00000  Uiso   1.00
C57    C     0.45683   0.21182   0.91135   0.00000  Uiso   1.00
C58    C     0.42763   0.27144   0.85314   0.00000  Uiso   1.00
C59    C     0.35625   0.35549   0.75290   0.00000  Uiso   1.00
C60    C     0.63920   0.25680   0.99033   0.00000  Uiso   1.00
C61    C     0.66478   0.19914   0.99087   0.00000  Uiso   1.00
C62    C     0.71994   0.20045   0.97760   0.00000  Uiso   1.00
C63    C     0.73517   0.14257   0.98063   0.00000  Uiso   1.00
C64    C     0.63958   0.23072   0.06253   0.00000  Uiso   1.00
C65    C     0.67354   0.25860   0.10951   0.00000  Uiso   1.00
C66    C     0.66755   0.22731   0.17286   0.00000  Uiso   1.00
C67    C     0.56456   0.26849   0.93746   0.00000  Uiso   1.00
C68    C     0.53545   0.32813   0.87930   0.00000  Uiso   1.00
C69    C     0.46629   0.32865   0.83737   0.00000  Uiso   1.00
H70    H     0.53810   0.10721   0.03155   0.00000  Uiso   1.00
H71    H     0.61146   0.03995   0.02183   0.00000  Uiso   1.00
H72    H     0.56506   0.09810   0.15371   0.00000  Uiso   1.00
H73    H     0.42699   0.16762   0.92355   0.00000  Uiso   1.00
H74    H     0.70982   0.99056   0.00414   0.00000  Uiso   1.00
H75    H     0.61197   0.11317   0.28221   0.00000  Uiso   1.00
H76    H     0.32081   0.25977   0.79686   0.00000  Uiso   1.00
H77    H     0.66924   0.30126   0.97808   0.00000  Uiso   1.00
H78    H     0.74980   0.24465   0.96543   0.00000  Uiso   1.00
H79    H     0.70340   0.30279   0.09731   0.00000  Uiso   1.00
H80    H     0.56533   0.37231   0.86714   0.00000  Uiso   1.00
H81    H     0.82211   0.15670   0.95837   0.00000  Uiso   1.00
H82    H     0.72425   0.27931   0.23644   0.00000  Uiso   1.00
H83    H     0.43310   0.42591   0.75108   0.00000  Uiso   1.00
O84    O     0.81661   0.03289   0.97392   0.00000  Uiso   1.00
O85    O     0.68822   0.19374   0.33873   0.00000  Uiso   1.00
O86    O     0.30623   0.38608   0.70195   0.00000  Uiso   1.00
N87    N     0.72519   0.03744   0.99509   0.00000  Uiso   1.00
N88    N     0.63371   0.15206   0.25508   0.00000  Uiso   1.00
N89    N     0.36150   0.28912   0.80132   0.00000  Uiso   1.00
N90    N     0.78561   0.12683   0.97046   0.00000  Uiso   1.00
N91    N     0.69413   0.24146   0.23044   0.00000  Uiso   1.00
N92    N     0.42192   0.37852   0.77669   0.00000  Uiso   1.00
C93    C     0.37256   0.23963   0.32640   0.00000  Uiso   1.00
C94    C     0.33175   0.27161   0.24652   0.00000  Uiso   1.00
C95    C     0.34818   0.26802   0.19852   0.00000  Uiso   1.00
C96    C     0.30432   0.30066   0.12768   0.00000  Uiso   1.00
C97    C     0.24983   0.34503   0.00698   0.00000  Uiso   1.00
C98    C     0.38919   0.29594   0.34828   0.00000  Uiso   1.00
C99    C     0.45390   0.31280   0.38586   0.00000  Uiso   1.00
C100   C     0.45839   0.36592   0.40069   0.00000  Uiso   1.00
C101   C     0.49307   0.44803   0.43803   0.00000  Uiso   1.00
C102   C     0.32334   0.19545   0.35667   0.00000  Uiso   1.00
C103   C     0.33270   0.12782   0.40132   0.00000  Uiso   1.00
C104   C     0.28176   0.09635   0.42322   0.00000  Uiso   1.00
C105   C     0.21420   0.02243   0.47358   0.00000  Uiso   1.00
C106   C     0.26546   0.30399   0.28594   0.00000  Uiso   1.00
C107   C     0.27358   0.30656   0.22454   0.00000  Uiso   1.00
C108   C     0.22969   0.33922   0.15375   0.00000  Uiso   1.00
C109   C     0.24605   0.33568   0.10566   0.00000  Uiso   1.00
C110   C     0.33102   0.33089   0.32631   0.00000  Uiso   1.00
C111   C     0.33542   0.38400   0.34109   0.00000  Uiso   1.00
C112   C     0.40012   0.40094   0.37867   0.00000  Uiso   1.00
C113   C     0.26517   0.23041   0.33469   0.00000  Uiso   1.00
C114   C     0.21421   0.19903   0.35654   0.00000  Uiso   1.00
C115   C     0.22349   0.13137   0.40120   0.00000  Uiso   1.00
H116   H     0.41785   0.21242   0.34352   0.00000  Uiso   1.00
H117   H     0.39321   0.24097   0.21556   0.00000  Uiso   1.00
H118   H     0.49891   0.28574   0.40287   0.00000  Uiso   1.00
H119   H     0.37772   0.10079   0.41831   0.00000  Uiso   1.00
H120   H     0.34024   0.28805   0.06399   0.00000  Uiso   1.00
H121   H     0.56313   0.38244   0.45897   0.00000  Uiso   1.00
H122   H     0.30758   0.99244   0.49154   0.00000  Uiso   1.00
H123   H     0.22017   0.33120   0.26882   0.00000  Uiso   1.00
H124   H     0.18468   0.36627   0.13676   0.00000  Uiso   1.00
H125   H     0.29039   0.41104   0.32407   0.00000  Uiso   1.00
H126   H     0.16920   0.22609   0.33952   0.00000  Uiso   1.00
H127   H     0.17100   0.38976   0.00003   0.00000  Uiso   1.00
H128   H     0.39389   0.48414   0.39502   0.00000  Uiso   1.00
H129   H     0.13834   0.09415   0.42759   0.00000  Uiso   1.00
O130   O     0.23585   0.35985   0.94648   0.00000  Uiso   1.00
O131   O     0.52827   0.48367   0.46469   0.00000  Uiso   1.00
O132   O     0.19300   0.97201   0.50742   0.00000  Uiso   1.00
N133   N     0.30528   0.30717   0.06706   0.00000  Uiso   1.00
N134   N     0.51366   0.39542   0.43633   0.00000  Uiso   1.00
N135   N     0.27476   0.03081   0.46681   0.00000  Uiso   1.00
N136   N     0.21421   0.36189   0.03265   0.00000  Uiso   1.00
N137   N     0.42259   0.45014   0.40192   0.00000  Uiso   1.00
N138   N     0.18369   0.08553   0.43239   0.00000  Uiso   1.00
C139   C     0.10182   0.08896   0.74002   0.00000  Uiso   1.00
C140   C     0.08561   0.08723   0.79651   0.00000  Uiso   1.00
C141   C     0.12173   0.05116   0.86876   0.00000  Uiso   1.00
C142   C     0.09876   0.05620   0.91168   0.00000  Uiso   1.00
C143   C     0.08228   0.04750   0.00371   0.00000  Uiso   1.00
C144   C     0.11053   0.16204   0.69581   0.00000  Uiso   1.00
C145   C     0.16758   0.18887   0.68339   0.00000  Uiso   1.00
C146   C     0.16558   0.25689   0.64153   0.00000  Uiso   1.00
C147   C     0.18777   0.36433   0.57719   0.00000  Uiso   1.00
C148   C     0.03738   0.06771   0.69192   0.00000  Uiso   1.00
C149   C     0.03293   0.01522   0.67621   0.00000  Uiso   1.00
C150   C     0.96935   0.00383   0.63106   0.00000  Uiso   1.00
C151   C     0.87796   0.96481   0.56067   0.00000  Uiso   1.00
C152   C     0.99681   0.16207   0.68775   0.00000  Uiso   1.00
C153   C     0.02857   0.12694   0.76812   0.00000  Uiso   1.00
C154   C     0.00554   0.13204   0.81093   0.00000  Uiso   1.00
C155   C     0.04162   0.09598   0.88324   0.00000  Uiso   1.00
C156   C     0.05349   0.20175   0.66742   0.00000  Uiso   1.00
C157   C     0.05140   0.26975   0.62556   0.00000  Uiso   1.00
C158   C     0.10844   0.29667   0.61309   0.00000  Uiso   1.00
C159   C     0.98034   0.10742   0.66353   0.00000  Uiso   1.00
C160   C     0.91675   0.09611   0.61839   0.00000  Uiso   1.00
C161   C     0.91221   0.04362   0.60262   0.00000  Uiso   1.00
H162   H     0.14623   0.05805   0.76212   0.00000  Uiso   1.00
H163   H     0.16587   0.02044   0.89071   0.00000  Uiso   1.00
H164   H     0.21171   0.15812   0.70536   0.00000  Uiso   1.00
H165   H     0.07708   0.98451   0.69819   0.00000  Uiso   1.00
H166   H     0.16250   0.99627   0.02076   0.00000  Uiso   1.00
H167   H     0.25916   0.28659   0.62993   0.00000  Uiso   1.00
H168   H     0.97526   0.92048   0.61479   0.00000  Uiso   1.00
H169   H     0.95241   0.19299   0.66564   0.00000  Uiso   1.00
H170   H     0.96140   0.16278   0.78895   0.00000  Uiso   1.00
H171   H     0.00725   0.30047   0.60360   0.00000  Uiso   1.00
H172   H     0.87262   0.12685   0.59643   0.00000  Uiso   1.00
H173   H     0.99655   0.11180   0.93817   0.00000  Uiso   1.00
H174   H     0.09321   0.40212   0.54733   0.00000  Uiso   1.00
H175   H     0.80932   0.03601   0.53220   0.00000  Uiso   1.00
O176   O     0.08896   0.03174   0.06232   0.00000  Uiso   1.00
O177   O     0.21577   0.41263   0.54954   0.00000  Uiso   1.00
O178   O     0.84330   0.93231   0.52970   0.00000  Uiso   1.00
N179   N     0.12220   0.02759   0.98440   0.00000  Uiso   1.00
N180   N     0.21258   0.29903   0.61900   0.00000  Uiso   1.00
N181   N     0.94716   0.95676   0.60484   0.00000  Uiso   1.00
N182   N     0.03291   0.08976   0.93996   0.00000  Uiso   1.00
N183   N     0.12328   0.36119   0.57456   0.00000  Uiso   1.00
N184   N     0.85787   0.01893   0.56040   0.00000  Uiso   1.00
C185   C     0.31517   0.66799   0.51677   0.00000  Uiso   1.00
C186   C     0.24610   0.65262   0.46863   0.00000  Uiso   1.00
C187   C     0.21926   0.58980   0.47991   0.00000  Uiso   1.00
C188   C     0.15525   0.58622   0.42968   0.00000  Uiso   1.00
C189   C     0.05344   0.55367   0.36397   0.00000  Uiso   1.00
C190   C     0.30090   0.71720   0.53592   0.00000  Uiso   1.00
C191   C     0.32015   0.70868   0.60378   0.00000  Uiso   1.00
C192   C     0.30228   0.75947   0.61019   0.00000  Uiso   1.00
C193   C     0.28559   0.82719   0.64896   0.00000  Uiso   1.00
C194   C     0.35332   0.70633   0.47090   0.00000  Uiso   1.00
C195   C     0.41664   0.68869   0.48409   0.00000  Uiso   1.00
C196   C     0.44291   0.73034   0.43577   0.00000  Uiso   1.00
C197   C     0.50761   0.78118   0.37357   0.00000  Uiso   1.00
C198   C     0.24924   0.77333   0.40751   0.00000  Uiso   1.00
C199   C     0.21029   0.70984   0.40928   0.00000  Uiso   1.00
C200   C     0.14631   0.70636   0.35902   0.00000  Uiso   1.00
C201   C     0.11937   0.64355   0.37022   0.00000  Uiso   1.00
C202   C     0.26509   0.77442   0.47657   0.00000  Uiso   1.00
C203   C     0.24720   0.82523   0.48289   0.00000  Uiso   1.00
C204   C     0.26640   0.81679   0.55074   0.00000  Uiso   1.00
C205   C     0.31751   0.76355   0.41154   0.00000  Uiso   1.00
C206   C     0.34369   0.80524   0.36320   0.00000  Uiso   1.00
C207   C     0.40703   0.78766   0.37631   0.00000  Uiso   1.00
H208   H     0.34305   0.62344   0.56298   0.00000  Uiso   1.00
H209   H     0.24699   0.54553   0.52585   0.00000  Uiso   1.00
H210   H     0.34786   0.66440   0.64969   0.00000  Uiso   1.00
H211   H     0.44434   0.64440   0.53002   0.00000  Uiso   1.00
H212   H     0.12467   0.48440   0.45852   0.00000  Uiso   1.00
H213   H     0.33740   0.73503   0.71966   0.00000  Uiso   1.00
H214   H     0.54084   0.69288   0.46731   0.00000  Uiso   1.00
H215   H     0.22136   0.81789   0.36130   0.00000  Uiso   1.00
H216   H     0.11861   0.75065   0.31310   0.00000  Uiso   1.00
H217   H     0.21949   0.86951   0.43695   0.00000  Uiso   1.00
H218   H     0.31596   0.84952   0.31728   0.00000  Uiso   1.00
H219   H     0.02047   0.65088   0.28585   0.00000  Uiso   1.00
H220   H     0.23321   0.90151   0.54699   0.00000  Uiso   1.00
H221   H     0.43664   0.85936   0.29464   0.00000  Uiso   1.00
O222   O     0.00717   0.51990   0.34413   0.00000  Uiso   1.00
O223   O     0.28627   0.84873   0.68673   0.00000  Uiso   1.00
O224   O     0.55318   0.79342   0.35565   0.00000  Uiso   1.00
N225   N     0.11426   0.53281   0.42449   0.00000  Uiso   1.00
N226   N     0.31313   0.76713   0.66864   0.00000  Uiso   1.00
N227   N     0.50334   0.72773   0.43272   0.00000  Uiso   1.00
N228   N     0.05819   0.62239   0.33158   0.00000  Uiso   1.00
N229   N     0.25707   0.85671   0.57573   0.00000  Uiso   1.00
N230   N     0.44728   0.81731   0.33981   0.00000  Uiso   1.00
C231   C     0.49871   0.70087   0.92386   0.00000  Uiso   1.00
C232   C     0.55992   0.70322   0.90981   0.00000  Uiso   1.00
C233   C     0.56403   0.67512   0.87110   0.00000  Uiso   1.00
C234   C     0.62443   0.68275   0.86430   0.00000  Uiso   1.00
C235   C     0.71121   0.68118   0.83775   0.00000  Uiso   1.00
C236   C     0.47981   0.77305   0.89687   0.00000  Uiso   1.00
C237   C     0.41655   0.80365   0.84728   0.00000  Uiso   1.00
C238   C     0.40952   0.87006   0.82960   0.00000  Uiso   1.00
C239   C     0.37190   0.97688   0.78300   0.00000  Uiso   1.00
C240   C     0.52491   0.66988   0.00380   0.00000  Uiso   1.00
C241   C     0.49957   0.61374   0.04413   0.00000  Uiso   1.00
C242   C     0.53050   0.59330   0.11648   0.00000  Uiso   1.00
C243   C     0.56292   0.53993   0.23591   0.00000  Uiso   1.00
C244   C     0.59869   0.76439   0.98062   0.00000  Uiso   1.00
C245   C     0.61423   0.73773   0.94063   0.00000  Uiso   1.00
C246   C     0.67465   0.74540   0.93389   0.00000  Uiso   1.00
C247   C     0.67884   0.71731   0.89518   0.00000  Uiso   1.00
C248   C     0.53411   0.80755   0.92769   0.00000  Uiso   1.00
C249   C     0.52717   0.87393   0.91008   0.00000  Uiso   1.00
C250   C     0.46392   0.90462   0.86048   0.00000  Uiso   1.00
C251   C     0.57922   0.70438   0.03463   0.00000  Uiso   1.00
C252   C     0.61019   0.68402   0.10693   0.00000  Uiso   1.00
C253   C     0.58491   0.62786   0.14736   0.00000  Uiso   1.00
H254   H     0.45643   0.67401   0.89986   0.00000  Uiso   1.00
H255   H     0.52199   0.64843   0.84724   0.00000  Uiso   1.00
H256   H     0.37453   0.77694   0.82344   0.00000  Uiso   1.00
H257   H     0.45755   0.58706   0.02026   0.00000  Uiso   1.00
H258   H     0.61861   0.63530   0.80248   0.00000  Uiso   1.00
H259   H     0.30769   0.90626   0.75231   0.00000  Uiso   1.00
H260   H     0.48273   0.50586   0.16734   0.00000  Uiso   1.00
H261   H     0.64097   0.79126   0.00462   0.00000  Uiso   1.00
H262   H     0.71666   0.77210   0.95776   0.00000  Uiso   1.00
H263   H     0.56921   0.90061   0.93395   0.00000  Uiso   1.00
H264   H     0.65222   0.71073   0.13076   0.00000  Uiso   1.00
H265   H     0.77661   0.73568   0.89217   0.00000  Uiso   1.00
H266   H     0.46569   0.00664   0.84200   0.00000  Uiso   1.00
H267   H     0.64074   0.60624   0.25703   0.00000  Uiso   1.00
O268   O     0.74406   0.67079   0.81459   0.00000  Uiso   1.00
O269   O     0.33614   0.02628   0.74877   0.00000  Uiso   1.00
O270   O     0.56580   0.50096   0.29328   0.00000  Uiso   1.00
N271   N     0.64541   0.66154   0.83004   0.00000  Uiso   1.00
N272   N     0.35472   0.91487   0.78312   0.00000  Uiso   1.00
N273   N     0.51836   0.54055   0.17113   0.00000  Uiso   1.00
N274   N     0.73044   0.71555   0.87830   0.00000  Uiso   1.00
N275   N     0.43975   0.96889   0.83138   0.00000  Uiso   1.00
N276   N     0.60339   0.59456   0.21939   0.00000  Uiso   1.00
C277   C     0.05372   0.24510   0.44489   0.00000  Uiso   1.00
C278   C     0.04744   0.26361   0.37181   0.00000  Uiso   1.00
C279   C     0.08129   0.31451   0.33663   0.00000  Uiso   1.00
C280   C     0.06868   0.32347   0.27019   0.00000  Uiso   1.00
C281   C     0.06578   0.35835   0.16130   0.00000  Uiso   1.00
C282   C     0.07551   0.17179   0.48892   0.00000  Uiso   1.00
C283   C     0.13294   0.14548   0.55221   0.00000  Uiso   1.00
C284   C     0.14395   0.07713   0.58435   0.00000  Uiso   1.00
C285   C     0.18459   0.96944   0.65730   0.00000  Uiso   1.00
C286   C     0.98163   0.24877   0.43596   0.00000  Uiso   1.00
C287   C     0.96013   0.28718   0.45473   0.00000  Uiso   1.00
C288   C     0.89210   0.28363   0.44230   0.00000  Uiso   1.00
C289   C     0.78698   0.29548   0.43302   0.00000  Uiso   1.00
C290   C     0.97114   0.17049   0.38945   0.00000  Uiso   1.00
C291   C     0.00259   0.22308   0.34170   0.00000  Uiso   1.00
C292   C     0.98992   0.23196   0.27528   0.00000  Uiso   1.00
C293   C     0.02374   0.28287   0.24001   0.00000  Uiso   1.00
C294   C     0.03065   0.13126   0.45881   0.00000  Uiso   1.00
C295   C     0.04157   0.06293   0.49086   0.00000  Uiso   1.00
C296   C     0.09901   0.03652   0.55418   0.00000  Uiso   1.00
C297   C     0.93677   0.20824   0.40584   0.00000  Uiso   1.00
C298   C     0.86876   0.20463   0.39338   0.00000  Uiso   1.00
C299   C     0.84716   0.24303   0.41213   0.00000  Uiso   1.00
H300   H     0.08865   0.27665   0.46834   0.00000  Uiso   1.00
H301   H     0.11600   0.34586   0.35996   0.00000  Uiso   1.00
H302   H     0.16764   0.17686   0.57550   0.00000  Uiso   1.00
H303   H     0.99486   0.31854   0.47803   0.00000  Uiso   1.00
H304   H     0.12657   0.40471   0.22652   0.00000  Uiso   1.00
H305   H     0.23544   0.04835   0.68102   0.00000  Uiso   1.00
H306   H     0.87109   0.34711   0.47550   0.00000  Uiso   1.00
H307   H     0.93621   0.13893   0.36600   0.00000  Uiso   1.00
H308   H     0.95520   0.20059   0.25199   0.00000  Uiso   1.00
H309   H     0.00685   0.03158   0.46754   0.00000  Uiso   1.00
H310   H     0.83406   0.17326   0.37007   0.00000  Uiso   1.00
H311   H     0.99606   0.28680   0.13890   0.00000  Uiso   1.00
H312   H     0.10494   0.93043   0.59340   0.00000  Uiso   1.00
H313   H     0.74059   0.22919   0.38787   0.00000  Uiso   1.00
O314   O     0.07658   0.38878   0.10957   0.00000  Uiso   1.00
O315   O     0.21941   0.92125   0.70586   0.00000  Uiso   1.00
O316   O     0.74139   0.31322   0.43621   0.00000  Uiso   1.00
N317   N     0.09324   0.36851   0.22154   0.00000  Uiso   1.00
N318   N     0.19503   0.03533   0.64647   0.00000  Uiso   1.00
N319   N     0.85440   0.31463   0.45433   0.00000  Uiso   1.00
N320   N     0.02301   0.30506   0.17439   0.00000  Uiso   1.00
N321   N     0.12481   0.97188   0.59931   0.00000  Uiso   1.00
N322   N     0.78418   0.25118   0.40718   0.00000  Uiso   1.00
C323   C     0.21492   0.69540   0.86473   0.00000  Uiso   1.00
C324   C     0.17375   0.64866   0.90462   0.00000  Uiso   1.00
C325   C     0.10422   0.65406   0.88211   0.00000  Uiso   1.00
C326   C     0.07610   0.60633   0.92619   0.00000  Uiso   1.00
C327   C     0.00607   0.54153   0.97834   0.00000  Uiso   1.00
C328   C     0.25035   0.65166   0.85573   0.00000  Uiso   1.00
C329   C     0.24524   0.65960   0.79211   0.00000  Uiso   1.00
C330   C     0.28162   0.61439   0.79505   0.00000  Uiso   1.00
C331   C     0.33056   0.55428   0.77130   0.00000  Uiso   1.00
C332   C     0.27117   0.72119   0.91492   0.00000  Uiso   1.00
C333   C     0.28357   0.78759   0.90106   0.00000  Uiso   1.00
C334   C     0.33748   0.80092   0.95382   0.00000  Uiso   1.00
C335   C     0.41874   0.84877   0.02197   0.00000  Uiso   1.00
C336   C     0.28863   0.60101   0.98305   0.00000  Uiso   1.00
C337   C     0.21379   0.59739   0.96889   0.00000  Uiso   1.00
C338   C     0.18577   0.54963   0.01302   0.00000  Uiso   1.00
C339   C     0.11620   0.55497   0.99058   0.00000  Uiso   1.00
C340   C     0.29039   0.60039   0.92000   0.00000  Uiso   1.00
C341   C     0.32679   0.55517   0.92303   0.00000  Uiso   1.00
C342   C     0.32173   0.56303   0.85943   0.00000  Uiso   1.00
C343   C     0.31120   0.66992   0.97919   0.00000  Uiso   1.00
C344   C     0.36511   0.68316   0.03198   0.00000  Uiso   1.00
C345   C     0.37759   0.74956   0.01821   0.00000  Uiso   1.00
H346   H     0.18375   0.73531   0.81469   0.00000  Uiso   1.00
H347   H     0.07325   0.69374   0.83236   0.00000  Uiso   1.00
H348   H     0.21426   0.69928   0.74239   0.00000  Uiso   1.00
H349   H     0.25257   0.82725   0.85132   0.00000  Uiso   1.00
H350   H     0.96839   0.62503   0.88029   0.00000  Uiso   1.00
H351   H     0.26573   0.63672   0.69057   0.00000  Uiso   1.00
H352   H     0.34653   0.90657   0.92027   0.00000  Uiso   1.00
H353   H     0.31980   0.56109   0.03309   0.00000  Uiso   1.00
H354   H     0.21676   0.50996   0.06275   0.00000  Uiso   1.00
H355   H     0.35777   0.51550   0.97278   0.00000  Uiso   1.00
H356   H     0.39608   0.64347   0.08171   0.00000  Uiso   1.00
H357   H     0.08487   0.47587   0.06728   0.00000  Uiso   1.00
H358   H     0.38221   0.48756   0.87756   0.00000  Uiso   1.00
H359   H     0.46301   0.75741   0.10727   0.00000  Uiso   1.00
O360   O     0.95639   0.51995   0.98934   0.00000  Uiso   1.00
O361   O     0.34650   0.53529   0.74044   0.00000  Uiso   1.00
O362   O     0.45250   0.88933   0.04181   0.00000  Uiso   1.00
N363   N     0.00994   0.59695   0.92023   0.00000  Uiso   1.00
N364   N     0.28793   0.60787   0.74286   0.00000  Uiso   1.00
N365   N     0.36348   0.86016   0.95760   0.00000  Uiso   1.00
N366   N     0.07262   0.51669   0.02085   0.00000  Uiso   1.00
N367   N     0.35061   0.52761   0.84348   0.00000  Uiso   1.00
N368   N     0.42616   0.77990   0.05822   0.00000  Uiso   1.00
C369   C     0.48490   0.57907   0.70702   0.00000  Uiso   1.00
C370   C     0.53876   0.54293   0.78214   0.00000  Uiso   1.00
C371   C     0.53199   0.52560   0.84325   0.00000  Uiso   1.00
C372   C     0.58709   0.49272   0.90687   0.00000  Uiso   1.00
C373   C     0.66164   0.43886   0.02314   0.00000  Uiso   1.00
C374   C     0.47262   0.53443   0.67136   0.00000  Uiso   1.00
C375   C     0.41024   0.50997   0.63933   0.00000  Uiso   1.00
C376   C     0.40967   0.46994   0.60968   0.00000  Uiso   1.00
C377   C     0.38152   0.40293   0.55393   0.00000  Uiso   1.00
C378   C     0.51861   0.64093   0.67053   0.00000  Uiso   1.00
C379   C     0.49489   0.70601   0.63778   0.00000  Uiso   1.00
C380   C     0.53302   0.75564   0.60742   0.00000  Uiso   1.00
C381   C     0.57628   0.85397   0.55037   0.00000  Uiso   1.00
C382   C     0.59478   0.55148   0.71133   0.00000  Uiso   1.00
C383   C     0.59844   0.52794   0.78447   0.00000  Uiso   1.00
C384   C     0.65357   0.49508   0.84801   0.00000  Uiso   1.00
C385   C     0.64689   0.47771   0.90921   0.00000  Uiso   1.00
C386   C     0.53230   0.51944   0.67370   0.00000  Uiso   1.00
C387   C     0.53182   0.47945   0.64409   0.00000  Uiso   1.00
C388   C     0.46946   0.45493   0.61202   0.00000  Uiso   1.00
C389   C     0.57829   0.62594   0.67287   0.00000  Uiso   1.00
C390   C     0.61647   0.67548   0.64254   0.00000  Uiso   1.00
C391   C     0.59281   0.74063   0.60976   0.00000  Uiso   1.00
H392   H     0.43843   0.59073   0.70520   0.00000  Uiso   1.00
H393   H     0.48579   0.53721   0.84142   0.00000  Uiso   1.00
H394   H     0.36407   0.52158   0.63752   0.00000  Uiso   1.00
H395   H     0.44870   0.71759   0.63598   0.00000  Uiso   1.00
H396   H     0.56462   0.47123   0.99347   0.00000  Uiso   1.00
H397   H     0.30795   0.43831   0.56352   0.00000  Uiso   1.00
H398   H     0.48641   0.85162   0.56026   0.00000  Uiso   1.00
H399   H     0.64125   0.53981   0.71315   0.00000  Uiso   1.00
H400   H     0.69975   0.48349   0.84980   0.00000  Uiso   1.00
H401   H     0.57802   0.46786   0.64590   0.00000  Uiso   1.00
H402   H     0.66265   0.66387   0.64436   0.00000  Uiso   1.00
H403   H     0.73827   0.42763   0.00028   0.00000  Uiso   1.00
H404   H     0.48159   0.39471   0.57032   0.00000  Uiso   1.00
H405   H     0.66006   0.80802   0.56707   0.00000  Uiso   1.00
O406   O     0.68626   0.41328   0.08663   0.00000  Uiso   1.00
O407   O     0.34951   0.37010   0.52254   0.00000  Uiso   1.00
O408   O     0.58365   0.91235   0.51827   0.00000  Uiso   1.00
N409   N     0.59747   0.46871   0.97632   0.00000  Uiso   1.00
N410   N     0.35749   0.43792   0.57435   0.00000  Uiso   1.00
N411   N     0.52433   0.82433   0.57129   0.00000  Uiso   1.00
N412   N     0.69091   0.44525   0.97998   0.00000  Uiso   1.00
N413   N     0.45093   0.41446   0.57801   0.00000  Uiso   1.00
N414   N     0.61777   0.80087   0.57495   0.00000  Uiso   1.00
C415   C     0.80980   0.68390   0.38768   0.00000  Uiso   1.00
C416   C     0.79479   0.72063   0.30969   0.00000  Uiso   1.00
C417   C     0.75791   0.78008   0.26165   0.00000  Uiso   1.00
C418   C     0.74981   0.80564   0.19271   0.00000  Uiso   1.00
C419   C     0.72225   0.86764   0.07466   0.00000  Uiso   1.00
C420   C     0.78266   0.61410   0.40007   0.00000  Uiso   1.00
C421   C     0.73557   0.58398   0.42803   0.00000  Uiso   1.00
C422   C     0.71727   0.51986   0.43517   0.00000  Uiso   1.00
C423   C     0.67091   0.41644   0.45749   0.00000  Uiso   1.00
C424   C     0.88704   0.67562   0.42790   0.00000  Uiso   1.00
C425   C     0.92772   0.69722   0.47928   0.00000  Uiso   1.00
C426   C     0.99731   0.68488   0.50987   0.00000  Uiso   1.00
C427   C     0.11301   0.67699   0.57540   0.00000  Uiso   1.00
C428   C     0.86102   0.62356   0.35065   0.00000  Uiso   1.00
C429   C     0.82262   0.68785   0.28958   0.00000  Uiso   1.00
C430   C     0.81458   0.71332   0.22068   0.00000  Uiso   1.00
C431   C     0.77769   0.77281   0.17255   0.00000  Uiso   1.00
C432   C     0.81048   0.58132   0.37995   0.00000  Uiso   1.00
C433   C     0.79225   0.51722   0.38706   0.00000  Uiso   1.00
C434   C     0.74515   0.48702   0.41502   0.00000  Uiso   1.00
C435   C     0.91487   0.64285   0.40778   0.00000  Uiso   1.00
C436   C     0.98440   0.63046   0.43830   0.00000  Uiso   1.00
C437   C     0.02518   0.65204   0.48972   0.00000  Uiso   1.00
H438   H     0.78813   0.70941   0.40334   0.00000  Uiso   1.00
H439   H     0.73638   0.80543   0.27724   0.00000  Uiso   1.00
H440   H     0.71405   0.60936   0.44360   0.00000  Uiso   1.00
H441   H     0.90617   0.72258   0.49483   0.00000  Uiso   1.00
H442   H     0.69124   0.89742   0.12856   0.00000  Uiso   1.00
H443   H     0.64419   0.48398   0.47936   0.00000  Uiso   1.00
H444   H     0.04931   0.72273   0.58740   0.00000  Uiso   1.00
H445   H     0.88269   0.59804   0.33499   0.00000  Uiso   1.00
H446   H     0.83612   0.68795   0.20513   0.00000  Uiso   1.00
H447   H     0.81379   0.49187   0.37149   0.00000  Uiso   1.00
H448   H     0.00591   0.60510   0.42273   0.00000  Uiso   1.00
H449   H     0.77219   0.80206   0.07003   0.00000  Uiso   1.00
H450   H     0.72515   0.38862   0.42084   0.00000  Uiso   1.00
H451   H     0.13027   0.62738   0.52887   0.00000  Uiso   1.00
O452   O     0.69936   0.91088   0.01510   0.00000  Uiso   1.00
O453   O     0.63764   0.36846   0.47535   0.00000  Uiso   1.00
O454   O     0.16915   0.68171   0.61709   0.00000  Uiso   1.00
N455   N     0.71670   0.86264   0.13261   0.00000  Uiso   1.00
N456   N     0.67270   0.47610   0.46057   0.00000  Uiso   1.00
N457   N     0.05145   0.69931   0.56160   0.00000  Uiso   1.00
N458   N     0.76026   0.81133   0.10112   0.00000  Uiso   1.00
N459   N     0.71626   0.42479   0.42908   0.00000  Uiso   1.00
N460   N     0.09501   0.64800   0.53010   0.00000  Uiso   1.00
C461   C     0.60507   0.21294   0.58877   0.00000  Uiso   1.00
C462   C     0.66758   0.18890   0.65944   0.00000  Uiso   1.00
C463   C     0.72135   0.22790   0.68124   0.00000  Uiso   1.00
C464   C     0.77376   0.19657   0.74779   0.00000  Uiso   1.00
C465   C     0.87104   0.16957   0.85095   0.00000  Uiso   1.00
C466   C     0.60222   0.16910   0.55521   0.00000  Uiso   1.00
C467   C     0.60104   0.19144   0.48936   0.00000  Uiso   1.00
C468   C     0.59842   0.14343   0.46817   0.00000  Uiso   1.00
C469   C     0.59419   0.08569   0.40949   0.00000  Uiso   1.00
C470   C     0.54365   0.19515   0.60608   0.00000  Uiso   1.00
C471   C     0.49321   0.23940   0.58299   0.00000  Uiso   1.00
C472   C     0.44126   0.21332   0.60461   0.00000  Uiso   1.00
C473   C     0.34609   0.19602   0.62492   0.00000  Uiso   1.00
C474   C     0.60250   0.08794   0.66821   0.00000  Uiso   1.00
C475   C     0.66618   0.12101   0.70259   0.00000  Uiso   1.00
C476   C     0.71851   0.08961   0.76913   0.00000  Uiso   1.00
C477   C     0.77236   0.12855   0.79102   0.00000  Uiso   1.00
C478   C     0.60083   0.10120   0.59836   0.00000  Uiso   1.00
C479   C     0.59820   0.05315   0.57725   0.00000  Uiso   1.00
C480   C     0.59702   0.07542   0.51139   0.00000  Uiso   1.00
C481   C     0.54225   0.12725   0.64923   0.00000  Uiso   1.00
C482   C     0.49037   0.10110   0.67089   0.00000  Uiso   1.00
C483   C     0.43986   0.14530   0.64784   0.00000  Uiso   1.00
H484   H     0.60616   0.26579   0.55517   0.00000  Uiso   1.00
H485   H     0.72242   0.28044   0.64783   0.00000  Uiso   1.00
H486   H     0.60212   0.24399   0.45598   0.00000  Uiso   1.00
H487   H     0.49430   0.29193   0.54960   0.00000  Uiso   1.00
H488   H     0.85071   0.26674   0.76957   0.00000  Uiso   1.00
H489   H     0.59703   0.18987   0.36505   0.00000  Uiso   1.00
H490   H     0.36968   0.29098   0.56245   0.00000  Uiso   1.00
H491   H     0.60141   0.03508   0.70180   0.00000  Uiso   1.00
H492   H     0.71742   0.03706   0.80251   0.00000  Uiso   1.00
H493   H     0.59712   0.00061   0.61066   0.00000  Uiso   1.00
H494   H     0.48930   0.04856   0.70428   0.00000  Uiso   1.00
H495   H     0.84666   0.06920   0.89511   0.00000  Uiso   1.00
H496   H     0.59297   0.99234   0.49058   0.00000  Uiso   1.00
H497   H     0.36562   0.09344   0.68800   0.00000  Uiso   1.00
O498   O     0.92509   0.17344   0.89593   0.00000  Uiso   1.00
O499   O     0.59226   0.07259   0.36520   0.00000  Uiso   1.00
O500   O     0.29399   0.20524   0.62420   0.00000  Uiso   1.00
N501   N     0.83383   0.21998   0.78530   0.00000  Uiso   1.00
N502   N     0.59666   0.14811   0.40710   0.00000  Uiso   1.00
N503   N     0.38410   0.24263   0.59164   0.00000  Uiso   1.00
N504   N     0.83165   0.11369   0.85285   0.00000  Uiso   1.00
N505   N     0.59448   0.04182   0.47465   0.00000  Uiso   1.00
N506   N     0.38192   0.13634   0.65920   0.00000  Uiso   1.00
C507   C     0.44748   0.10004   0.21303   0.00000  Uiso   1.00
C508   C     0.37621   0.08160   0.20958   0.00000  Uiso   1.00
C509   C     0.35648   0.06866   0.26182   0.00000  Uiso   1.00
C510   C     0.28895   0.05264   0.24858   0.00000  Uiso   1.00
C511   C     0.18531   0.02443   0.25284   0.00000  Uiso   1.00
C512   C     0.46883   0.04870   0.20127   0.00000  Uiso   1.00
C513   C     0.52697   0.00811   0.24654   0.00000  Uiso   1.00
C514   C     0.53741   0.96441   0.22630   0.00000  Uiso   1.00
C515   C     0.57759   0.88516   0.21765   0.00000  Uiso   1.00
C516   C     0.43926   0.16608   0.14846   0.00000  Uiso   1.00
C517   C     0.47256   0.22418   0.14932   0.00000  Uiso   1.00
C518   C     0.45811   0.27930   0.08461   0.00000  Uiso   1.00
C519   C     0.45237   0.38229   0.99396   0.00000  Uiso   1.00
C520   C     0.36264   0.09460   0.09659   0.00000  Uiso   1.00
C521   C     0.33013   0.07865   0.14633   0.00000  Uiso   1.00
C522   C     0.26262   0.06265   0.13300   0.00000  Uiso   1.00
C523   C     0.24278   0.04969   0.18522   0.00000  Uiso   1.00
C524   C     0.42275   0.04575   0.13803   0.00000  Uiso   1.00
C525   C     0.43311   0.00210   0.11772   0.00000  Uiso   1.00
C526   C     0.49125   0.96146   0.16294   0.00000  Uiso   1.00
C527   C     0.39318   0.16313   0.08521   0.00000  Uiso   1.00
C528   C     0.37869   0.21817   0.02049   0.00000  Uiso   1.00
C529   C     0.41195   0.27634   0.02125   0.00000  Uiso   1.00
H530   H     0.48336   0.10233   0.26227   0.00000  Uiso   1.00
H531   H     0.39216   0.07094   0.31077   0.00000  Uiso   1.00
H532   H     0.56263   0.01041   0.29548   0.00000  Uiso   1.00
H533   H     0.50821   0.22644   0.19827   0.00000  Uiso   1.00
H534   H     0.27073   0.03482   0.33665   0.00000  Uiso   1.00
H535   H     0.63019   0.90720   0.30440   0.00000  Uiso   1.00
H536   H     0.51544   0.36274   0.09942   0.00000  Uiso   1.00
H537   H     0.32677   0.09231   0.04735   0.00000  Uiso   1.00
H538   H     0.22697   0.06037   0.08405   0.00000  Uiso   1.00
H539   H     0.39744   0.99984   0.06877   0.00000  Uiso   1.00
H540   H     0.34303   0.21587   0.97156   0.00000  Uiso   1.00
H541   H     0.13665   0.02623   0.15264   0.00000  Uiso   1.00
H542   H     0.49612   0.89862   0.12040   0.00000  Uiso   1.00
H543   H     0.38137   0.35416   0.91541   0.00000  Uiso   1.00
O544   O     0.14087   0.00967   0.27267   0.00000  Uiso   1.00
O545   O     0.61248   0.84226   0.23036   0.00000  Uiso   1.00
O546   O     0.46193   0.43992   0.96143   0.00000  Uiso   1.00
N547   N     0.25287   0.03719   0.28830   0.00000  Uiso   1.00
N548   N     0.58893   0.91787   0.25816   0.00000  Uiso   1.00
N549   N     0.48167   0.34376   0.06651   0.00000  Uiso   1.00
N550   N     0.18072   0.03257   0.18928   0.00000  Uiso   1.00
N551   N     0.51679   0.91325   0.15915   0.00000  Uiso   1.00
N552   N     0.40953   0.33914   0.96750   0.00000  Uiso   1.00
