data_job_04364
_audit_creation_date              2018-12-19
_audit_creation_method            'Materials Studio'
_symmetry_space_group_name_H-M    'P1'
_symmetry_Int_Tables_number       1
_symmetry_cell_setting            triclinic
loop_
_symmetry_equiv_pos_as_xyz
  x,y,z
_cell_length_a                    12.8347
_cell_length_b                    11.8847
_cell_length_c                    38.3250
_cell_angle_alpha                 90.0000
_cell_angle_beta                  90.0000
_cell_angle_gamma                 90.0000
loop_
_atom_site_label
_atom_site_type_symbol
_atom_site_fract_x
_atom_site_fract_y
_atom_site_fract_z
_atom_site_U_iso_or_equiv
_atom_site_adp_type
_atom_site_occupancy
C1     C     0.60410   0.28042   0.35610   0.00000  Uiso   1.00
C2     C     0.70812   0.22173   0.34990   0.00000  Uiso   1.00
C3     C     0.73989   0.17240   0.31885   0.00000  Uiso   1.00
C4     C     0.83790   0.12297   0.31848   0.00000  Uiso   1.00
C5     C     0.98969   0.03181   0.30435   0.00000  Uiso   1.00
C6     C     0.55421   0.22072   0.38710   0.00000  Uiso   1.00
C7     C     0.45657   0.17055   0.38734   0.00000  Uiso   1.00
C8     C     0.42501   0.12028   0.41828   0.00000  Uiso   1.00
C9     C     0.33782   0.02761   0.46192   0.00000  Uiso   1.00
C10    C     0.63053   0.39875   0.36867   0.00000  Uiso   1.00
C11    C     0.59702   0.49828   0.35342   0.00000  Uiso   1.00
C12    C     0.62970   0.59791   0.36886   0.00000  Uiso   1.00
C13    C     0.66099   0.78167   0.38388   0.00000  Uiso   1.00
C14    C     0.72167   0.28036   0.41065   0.00000  Uiso   1.00
C15    C     0.77198   0.22170   0.37953   0.00000  Uiso   1.00
C16    C     0.86997   0.17234   0.37920   0.00000  Uiso   1.00
C17    C     0.90188   0.12295   0.34816   0.00000  Uiso   1.00
C18    C     0.61807   0.22068   0.41673   0.00000  Uiso   1.00
C19    C     0.58665   0.17048   0.44769   0.00000  Uiso   1.00
C20    C     0.48898   0.12025   0.44797   0.00000  Uiso   1.00
C21    C     0.69439   0.39872   0.39830   0.00000  Uiso   1.00
C22    C     0.72711   0.49821   0.41377   0.00000  Uiso   1.00
C23    C     0.69367   0.59788   0.39854   0.00000  Uiso   1.00
H24    H     0.55438   0.28044   0.33303   0.00000  Uiso   1.00
H25    H     0.69045   0.17244   0.29593   0.00000  Uiso   1.00
H26    H     0.40717   0.17060   0.36440   0.00000  Uiso   1.00
H27    H     0.54761   0.49828   0.33049   0.00000  Uiso   1.00
H28    H     0.86945   0.05265   0.26786   0.00000  Uiso   1.00
H29    H     0.27212   0.04880   0.41225   0.00000  Uiso   1.00
H30    H     0.56826   0.73978   0.34074   0.00000  Uiso   1.00
H31    H     0.77139   0.28033   0.43372   0.00000  Uiso   1.00
H32    H     0.91937   0.17232   0.40214   0.00000  Uiso   1.00
H33    H     0.63608   0.17048   0.47061   0.00000  Uiso   1.00
H34    H     0.77652   0.49816   0.43670   0.00000  Uiso   1.00
H35    H     0.05525   0.05255   0.35406   0.00000  Uiso   1.00
H36    H     0.45791   0.04871   0.49845   0.00000  Uiso   1.00
H37    H     0.75406   0.73968   0.42694   0.00000  Uiso   1.00
O38    O     0.05576   0.98151   0.28837   0.00000  Uiso   1.00
O39    O     0.27208   0.97649   0.47781   0.00000  Uiso   1.00
O40    O     0.66062   0.88303   0.38398   0.00000  Uiso   1.00
N41    N     0.89288   0.06747   0.29248   0.00000  Uiso   1.00
N42    N     0.33442   0.06386   0.42747   0.00000  Uiso   1.00
N43    N     0.61126   0.70986   0.36062   0.00000  Uiso   1.00
N44    N     0.99285   0.06741   0.33886   0.00000  Uiso   1.00
N45    N     0.43439   0.06380   0.47386   0.00000  Uiso   1.00
N46    N     0.71124   0.70981   0.40701   0.00000  Uiso   1.00
C47    C     0.63696   0.27769   0.66317   0.00000  Uiso   1.00
C48    C     0.53339   0.21779   0.66910   0.00000  Uiso   1.00
C49    C     0.50189   0.16696   0.69994   0.00000  Uiso   1.00
C50    C     0.40429   0.11659   0.70008   0.00000  Uiso   1.00
C51    C     0.25319   0.02345   0.71379   0.00000  Uiso   1.00
C52    C     0.68747   0.21967   0.63197   0.00000  Uiso   1.00
C53    C     0.78552   0.17045   0.63160   0.00000  Uiso   1.00
C54    C     0.81762   0.12168   0.60049   0.00000  Uiso   1.00
C55    C     0.90576   0.03154   0.55655   0.00000  Uiso   1.00
C56    C     0.60963   0.39625   0.65102   0.00000  Uiso   1.00
C57    C     0.64225   0.49550   0.66666   0.00000  Uiso   1.00
C58    C     0.60883   0.59540   0.65158   0.00000  Uiso   1.00
C59    C     0.57611   0.77942   0.63722   0.00000  Uiso   1.00
C60    C     0.51964   0.27863   0.60856   0.00000  Uiso   1.00
C61    C     0.46967   0.21829   0.63943   0.00000  Uiso   1.00
C62    C     0.37209   0.16799   0.63953   0.00000  Uiso   1.00
C63    C     0.34045   0.11710   0.67037   0.00000  Uiso   1.00
C64    C     0.62375   0.22018   0.60231   0.00000  Uiso   1.00
C65    C     0.65572   0.17148   0.57119   0.00000  Uiso   1.00
C66    C     0.75379   0.12219   0.57077   0.00000  Uiso   1.00
C67    C     0.54590   0.39676   0.62136   0.00000  Uiso   1.00
C68    C     0.51244   0.49653   0.60625   0.00000  Uiso   1.00
C69    C     0.54499   0.59591   0.62186   0.00000  Uiso   1.00
H70    H     0.68658   0.27729   0.68626   0.00000  Uiso   1.00
H71    H     0.55124   0.16658   0.72289   0.00000  Uiso   1.00
H72    H     0.83482   0.17008   0.65456   0.00000  Uiso   1.00
H73    H     0.69156   0.49507   0.68962   0.00000  Uiso   1.00
H74    H     0.37310   0.04401   0.75042   0.00000  Uiso   1.00
H75    H     0.97107   0.05143   0.60634   0.00000  Uiso   1.00
H76    H     0.66898   0.73675   0.68026   0.00000  Uiso   1.00
H77    H     0.47003   0.27902   0.58547   0.00000  Uiso   1.00
H78    H     0.32279   0.16840   0.61657   0.00000  Uiso   1.00
H79    H     0.60638   0.17190   0.54824   0.00000  Uiso   1.00
H80    H     0.46312   0.49689   0.58329   0.00000  Uiso   1.00
H81    H     0.18768   0.04549   0.66412   0.00000  Uiso   1.00
H82    H     0.78566   0.05290   0.52004   0.00000  Uiso   1.00
H83    H     0.48357   0.73822   0.59396   0.00000  Uiso   1.00
O84    O     0.18746   0.97191   0.72954   0.00000  Uiso   1.00
O85    O     0.97198   0.98166   0.54051   0.00000  Uiso   1.00
O86    O     0.57565   0.88078   0.63750   0.00000  Uiso   1.00
N87    N     0.34966   0.05956   0.72584   0.00000  Uiso   1.00
N88    N     0.90872   0.06648   0.59114   0.00000  Uiso   1.00
N89    N     0.62632   0.70719   0.66024   0.00000  Uiso   1.00
N90    N     0.24989   0.06036   0.67941   0.00000  Uiso   1.00
N91    N     0.80895   0.06727   0.54470   0.00000  Uiso   1.00
N92    N     0.52655   0.70799   0.61381   0.00000  Uiso   1.00
C93    C     0.39590   0.71958   0.85610   0.00000  Uiso   1.00
C94    C     0.29188   0.77827   0.84990   0.00000  Uiso   1.00
C95    C     0.26011   0.82760   0.81885   0.00000  Uiso   1.00
C96    C     0.16210   0.87703   0.81848   0.00000  Uiso   1.00
C97    C     0.01031   0.96819   0.80435   0.00000  Uiso   1.00
C98    C     0.44579   0.77928   0.88710   0.00000  Uiso   1.00
C99    C     0.54343   0.82945   0.88734   0.00000  Uiso   1.00
C100   C     0.57499   0.87972   0.91828   0.00000  Uiso   1.00
C101   C     0.66218   0.97239   0.96192   0.00000  Uiso   1.00
C102   C     0.36947   0.60125   0.86867   0.00000  Uiso   1.00
C103   C     0.40298   0.50172   0.85342   0.00000  Uiso   1.00
C104   C     0.37030   0.40209   0.86886   0.00000  Uiso   1.00
C105   C     0.33901   0.21833   0.88388   0.00000  Uiso   1.00
C106   C     0.27833   0.71964   0.91065   0.00000  Uiso   1.00
C107   C     0.22802   0.77830   0.87953   0.00000  Uiso   1.00
C108   C     0.13003   0.82766   0.87920   0.00000  Uiso   1.00
C109   C     0.09812   0.87705   0.84816   0.00000  Uiso   1.00
C110   C     0.38193   0.77932   0.91673   0.00000  Uiso   1.00
C111   C     0.41335   0.82952   0.94769   0.00000  Uiso   1.00
C112   C     0.51102   0.87975   0.94797   0.00000  Uiso   1.00
C113   C     0.30561   0.60128   0.89830   0.00000  Uiso   1.00
C114   C     0.27289   0.50179   0.91377   0.00000  Uiso   1.00
C115   C     0.30633   0.40212   0.89854   0.00000  Uiso   1.00
H116   H     0.44562   0.71956   0.83303   0.00000  Uiso   1.00
H117   H     0.30955   0.82756   0.79593   0.00000  Uiso   1.00
H118   H     0.59283   0.82940   0.86440   0.00000  Uiso   1.00
H119   H     0.45239   0.50172   0.83049   0.00000  Uiso   1.00
H120   H     0.13055   0.94735   0.76786   0.00000  Uiso   1.00
H121   H     0.72788   0.95120   0.91225   0.00000  Uiso   1.00
H122   H     0.43174   0.26022   0.84074   0.00000  Uiso   1.00
H123   H     0.22861   0.71967   0.93372   0.00000  Uiso   1.00
H124   H     0.08063   0.82768   0.90214   0.00000  Uiso   1.00
H125   H     0.36392   0.82952   0.97061   0.00000  Uiso   1.00
H126   H     0.22348   0.50184   0.93670   0.00000  Uiso   1.00
H127   H     0.94475   0.94745   0.85406   0.00000  Uiso   1.00
H128   H     0.54209   0.95129   0.99845   0.00000  Uiso   1.00
H129   H     0.24594   0.26032   0.92694   0.00000  Uiso   1.00
O130   O     0.94424   0.01849   0.78837   0.00000  Uiso   1.00
O131   O     0.72792   0.02351   0.97781   0.00000  Uiso   1.00
O132   O     0.33938   0.11697   0.88398   0.00000  Uiso   1.00
N133   N     0.10712   0.93253   0.79248   0.00000  Uiso   1.00
N134   N     0.66558   0.93614   0.92747   0.00000  Uiso   1.00
N135   N     0.38874   0.29014   0.86062   0.00000  Uiso   1.00
N136   N     0.00715   0.93259   0.83886   0.00000  Uiso   1.00
N137   N     0.56561   0.93620   0.97386   0.00000  Uiso   1.00
N138   N     0.28876   0.29019   0.90701   0.00000  Uiso   1.00
C139   C     0.36304   0.72231   0.16317   0.00000  Uiso   1.00
C140   C     0.46661   0.78221   0.16910   0.00000  Uiso   1.00
C141   C     0.49811   0.83304   0.19994   0.00000  Uiso   1.00
C142   C     0.59571   0.88341   0.20008   0.00000  Uiso   1.00
C143   C     0.74681   0.97655   0.21379   0.00000  Uiso   1.00
C144   C     0.31253   0.78033   0.13197   0.00000  Uiso   1.00
C145   C     0.21448   0.82955   0.13160   0.00000  Uiso   1.00
C146   C     0.18238   0.87832   0.10049   0.00000  Uiso   1.00
C147   C     0.09424   0.96846   0.05655   0.00000  Uiso   1.00
C148   C     0.39037   0.60375   0.15102   0.00000  Uiso   1.00
C149   C     0.35775   0.50450   0.16666   0.00000  Uiso   1.00
C150   C     0.39117   0.40460   0.15158   0.00000  Uiso   1.00
C151   C     0.42389   0.22058   0.13722   0.00000  Uiso   1.00
C152   C     0.48036   0.72137   0.10856   0.00000  Uiso   1.00
C153   C     0.53033   0.78171   0.13943   0.00000  Uiso   1.00
C154   C     0.62791   0.83201   0.13953   0.00000  Uiso   1.00
C155   C     0.65955   0.88290   0.17037   0.00000  Uiso   1.00
C156   C     0.37625   0.77982   0.10231   0.00000  Uiso   1.00
C157   C     0.34428   0.82852   0.07119   0.00000  Uiso   1.00
C158   C     0.24621   0.87781   0.07077   0.00000  Uiso   1.00
C159   C     0.45410   0.60324   0.12136   0.00000  Uiso   1.00
C160   C     0.48756   0.50347   0.10625   0.00000  Uiso   1.00
C161   C     0.45501   0.40409   0.12186   0.00000  Uiso   1.00
H162   H     0.31342   0.72271   0.18626   0.00000  Uiso   1.00
H163   H     0.44876   0.83342   0.22289   0.00000  Uiso   1.00
H164   H     0.16518   0.82992   0.15456   0.00000  Uiso   1.00
H165   H     0.30844   0.50493   0.18962   0.00000  Uiso   1.00
H166   H     0.62690   0.95599   0.25042   0.00000  Uiso   1.00
H167   H     0.02893   0.94857   0.10634   0.00000  Uiso   1.00
H168   H     0.33102   0.26325   0.18026   0.00000  Uiso   1.00
H169   H     0.52997   0.72098   0.08547   0.00000  Uiso   1.00
H170   H     0.67721   0.83160   0.11657   0.00000  Uiso   1.00
H171   H     0.39362   0.82810   0.04824   0.00000  Uiso   1.00
H172   H     0.53688   0.50311   0.08329   0.00000  Uiso   1.00
H173   H     0.81232   0.95451   0.16412   0.00000  Uiso   1.00
H174   H     0.21434   0.94710   0.02004   0.00000  Uiso   1.00
H175   H     0.51643   0.26178   0.09396   0.00000  Uiso   1.00
O176   O     0.81254   0.02809   0.22954   0.00000  Uiso   1.00
O177   O     0.02802   0.01834   0.04051   0.00000  Uiso   1.00
O178   O     0.42435   0.11922   0.13750   0.00000  Uiso   1.00
N179   N     0.65034   0.94044   0.22584   0.00000  Uiso   1.00
N180   N     0.09128   0.93352   0.09114   0.00000  Uiso   1.00
N181   N     0.37368   0.29281   0.16024   0.00000  Uiso   1.00
N182   N     0.75011   0.93964   0.17941   0.00000  Uiso   1.00
N183   N     0.19105   0.93273   0.04470   0.00000  Uiso   1.00
N184   N     0.47345   0.29201   0.11381   0.00000  Uiso   1.00
C185   C     0.10410   0.71958   0.35610   0.00000  Uiso   1.00
C186   C     0.20812   0.77827   0.34990   0.00000  Uiso   1.00
C187   C     0.23989   0.82760   0.31885   0.00000  Uiso   1.00
C188   C     0.33790   0.87703   0.31848   0.00000  Uiso   1.00
C189   C     0.48969   0.96819   0.30435   0.00000  Uiso   1.00
C190   C     0.05421   0.77928   0.38710   0.00000  Uiso   1.00
C191   C     0.95657   0.82945   0.38734   0.00000  Uiso   1.00
C192   C     0.92501   0.87972   0.41828   0.00000  Uiso   1.00
C193   C     0.83782   0.97239   0.46192   0.00000  Uiso   1.00
C194   C     0.13053   0.60125   0.36867   0.00000  Uiso   1.00
C195   C     0.09702   0.50172   0.35342   0.00000  Uiso   1.00
C196   C     0.12970   0.40209   0.36886   0.00000  Uiso   1.00
C197   C     0.16099   0.21833   0.38388   0.00000  Uiso   1.00
C198   C     0.22167   0.71964   0.41065   0.00000  Uiso   1.00
C199   C     0.27198   0.77830   0.37953   0.00000  Uiso   1.00
C200   C     0.36997   0.82766   0.37920   0.00000  Uiso   1.00
C201   C     0.40188   0.87705   0.34816   0.00000  Uiso   1.00
C202   C     0.11807   0.77932   0.41673   0.00000  Uiso   1.00
C203   C     0.08665   0.82952   0.44769   0.00000  Uiso   1.00
C204   C     0.98898   0.87975   0.44797   0.00000  Uiso   1.00
C205   C     0.19439   0.60128   0.39830   0.00000  Uiso   1.00
C206   C     0.22711   0.50179   0.41377   0.00000  Uiso   1.00
C207   C     0.19367   0.40212   0.39854   0.00000  Uiso   1.00
H208   H     0.05438   0.71956   0.33303   0.00000  Uiso   1.00
H209   H     0.19045   0.82756   0.29593   0.00000  Uiso   1.00
H210   H     0.90717   0.82940   0.36440   0.00000  Uiso   1.00
H211   H     0.04761   0.50172   0.33049   0.00000  Uiso   1.00
H212   H     0.36945   0.94735   0.26786   0.00000  Uiso   1.00
H213   H     0.77212   0.95120   0.41225   0.00000  Uiso   1.00
H214   H     0.06826   0.26022   0.34074   0.00000  Uiso   1.00
H215   H     0.27139   0.71967   0.43372   0.00000  Uiso   1.00
H216   H     0.41937   0.82768   0.40214   0.00000  Uiso   1.00
H217   H     0.13608   0.82952   0.47061   0.00000  Uiso   1.00
H218   H     0.27652   0.50184   0.43670   0.00000  Uiso   1.00
H219   H     0.55525   0.94745   0.35406   0.00000  Uiso   1.00
H220   H     0.95791   0.95129   0.49845   0.00000  Uiso   1.00
H221   H     0.25406   0.26032   0.42694   0.00000  Uiso   1.00
O222   O     0.55576   0.01849   0.28837   0.00000  Uiso   1.00
O223   O     0.77208   0.02351   0.47781   0.00000  Uiso   1.00
O224   O     0.16062   0.11697   0.38398   0.00000  Uiso   1.00
N225   N     0.39288   0.93253   0.29248   0.00000  Uiso   1.00
N226   N     0.83442   0.93614   0.42747   0.00000  Uiso   1.00
N227   N     0.11126   0.29014   0.36062   0.00000  Uiso   1.00
N228   N     0.49285   0.93259   0.33886   0.00000  Uiso   1.00
N229   N     0.93439   0.93620   0.47386   0.00000  Uiso   1.00
N230   N     0.21124   0.29019   0.40701   0.00000  Uiso   1.00
C231   C     0.13696   0.72231   0.66317   0.00000  Uiso   1.00
C232   C     0.03339   0.78221   0.66910   0.00000  Uiso   1.00
C233   C     0.00189   0.83304   0.69994   0.00000  Uiso   1.00
C234   C     0.90429   0.88341   0.70008   0.00000  Uiso   1.00
C235   C     0.75319   0.97655   0.71379   0.00000  Uiso   1.00
C236   C     0.18747   0.78033   0.63197   0.00000  Uiso   1.00
C237   C     0.28552   0.82955   0.63160   0.00000  Uiso   1.00
C238   C     0.31762   0.87832   0.60049   0.00000  Uiso   1.00
C239   C     0.40576   0.96846   0.55655   0.00000  Uiso   1.00
C240   C     0.10963   0.60375   0.65102   0.00000  Uiso   1.00
C241   C     0.14225   0.50450   0.66666   0.00000  Uiso   1.00
C242   C     0.10883   0.40460   0.65158   0.00000  Uiso   1.00
C243   C     0.07611   0.22058   0.63722   0.00000  Uiso   1.00
C244   C     0.01964   0.72137   0.60856   0.00000  Uiso   1.00
C245   C     0.96967   0.78171   0.63943   0.00000  Uiso   1.00
C246   C     0.87209   0.83201   0.63953   0.00000  Uiso   1.00
C247   C     0.84045   0.88290   0.67037   0.00000  Uiso   1.00
C248   C     0.12375   0.77982   0.60231   0.00000  Uiso   1.00
C249   C     0.15572   0.82852   0.57119   0.00000  Uiso   1.00
C250   C     0.25379   0.87781   0.57077   0.00000  Uiso   1.00
C251   C     0.04590   0.60324   0.62136   0.00000  Uiso   1.00
C252   C     0.01244   0.50347   0.60625   0.00000  Uiso   1.00
C253   C     0.04499   0.40409   0.62186   0.00000  Uiso   1.00
H254   H     0.18658   0.72271   0.68626   0.00000  Uiso   1.00
H255   H     0.05124   0.83342   0.72289   0.00000  Uiso   1.00
H256   H     0.33482   0.82992   0.65456   0.00000  Uiso   1.00
H257   H     0.19156   0.50493   0.68962   0.00000  Uiso   1.00
H258   H     0.87310   0.95599   0.75042   0.00000  Uiso   1.00
H259   H     0.47107   0.94857   0.60634   0.00000  Uiso   1.00
H260   H     0.16898   0.26325   0.68026   0.00000  Uiso   1.00
H261   H     0.97003   0.72098   0.58547   0.00000  Uiso   1.00
H262   H     0.82279   0.83160   0.61657   0.00000  Uiso   1.00
H263   H     0.10638   0.82810   0.54824   0.00000  Uiso   1.00
H264   H     0.96312   0.50311   0.58329   0.00000  Uiso   1.00
H265   H     0.68768   0.95451   0.66412   0.00000  Uiso   1.00
H266   H     0.28566   0.94710   0.52004   0.00000  Uiso   1.00
H267   H     0.98357   0.26178   0.59396   0.00000  Uiso   1.00
O268   O     0.68746   0.02809   0.72954   0.00000  Uiso   1.00
O269   O     0.47198   0.01834   0.54051   0.00000  Uiso   1.00
O270   O     0.07565   0.11922   0.63750   0.00000  Uiso   1.00
N271   N     0.84966   0.94044   0.72584   0.00000  Uiso   1.00
N272   N     0.40872   0.93352   0.59114   0.00000  Uiso   1.00
N273   N     0.12632   0.29281   0.66024   0.00000  Uiso   1.00
N274   N     0.74989   0.93964   0.67941   0.00000  Uiso   1.00
N275   N     0.30895   0.93273   0.54470   0.00000  Uiso   1.00
N276   N     0.02655   0.29201   0.61381   0.00000  Uiso   1.00
C277   C     0.89590   0.28042   0.85610   0.00000  Uiso   1.00
C278   C     0.79188   0.22173   0.84990   0.00000  Uiso   1.00
C279   C     0.76011   0.17240   0.81885   0.00000  Uiso   1.00
C280   C     0.66210   0.12297   0.81848   0.00000  Uiso   1.00
C281   C     0.51031   0.03181   0.80435   0.00000  Uiso   1.00
C282   C     0.94579   0.22072   0.88710   0.00000  Uiso   1.00
C283   C     0.04343   0.17055   0.88734   0.00000  Uiso   1.00
C284   C     0.07499   0.12028   0.91828   0.00000  Uiso   1.00
C285   C     0.16218   0.02761   0.96192   0.00000  Uiso   1.00
C286   C     0.86947   0.39875   0.86867   0.00000  Uiso   1.00
C287   C     0.90298   0.49828   0.85342   0.00000  Uiso   1.00
C288   C     0.87030   0.59791   0.86886   0.00000  Uiso   1.00
C289   C     0.83901   0.78167   0.88388   0.00000  Uiso   1.00
C290   C     0.77833   0.28036   0.91065   0.00000  Uiso   1.00
C291   C     0.72802   0.22170   0.87953   0.00000  Uiso   1.00
C292   C     0.63003   0.17234   0.87920   0.00000  Uiso   1.00
C293   C     0.59812   0.12295   0.84816   0.00000  Uiso   1.00
C294   C     0.88193   0.22068   0.91673   0.00000  Uiso   1.00
C295   C     0.91335   0.17048   0.94769   0.00000  Uiso   1.00
C296   C     0.01102   0.12025   0.94797   0.00000  Uiso   1.00
C297   C     0.80561   0.39872   0.89830   0.00000  Uiso   1.00
C298   C     0.77289   0.49821   0.91377   0.00000  Uiso   1.00
C299   C     0.80633   0.59788   0.89854   0.00000  Uiso   1.00
H300   H     0.94562   0.28044   0.83303   0.00000  Uiso   1.00
H301   H     0.80955   0.17244   0.79593   0.00000  Uiso   1.00
H302   H     0.09283   0.17060   0.86440   0.00000  Uiso   1.00
H303   H     0.95239   0.49828   0.83049   0.00000  Uiso   1.00
H304   H     0.63055   0.05265   0.76786   0.00000  Uiso   1.00
H305   H     0.22788   0.04880   0.91225   0.00000  Uiso   1.00
H306   H     0.93174   0.73978   0.84074   0.00000  Uiso   1.00
H307   H     0.72861   0.28033   0.93372   0.00000  Uiso   1.00
H308   H     0.58063   0.17232   0.90214   0.00000  Uiso   1.00
H309   H     0.86392   0.17048   0.97061   0.00000  Uiso   1.00
H310   H     0.72348   0.49816   0.93670   0.00000  Uiso   1.00
H311   H     0.44475   0.05255   0.85406   0.00000  Uiso   1.00
H312   H     0.04209   0.04871   0.99845   0.00000  Uiso   1.00
H313   H     0.74594   0.73968   0.92694   0.00000  Uiso   1.00
O314   O     0.44424   0.98151   0.78837   0.00000  Uiso   1.00
O315   O     0.22792   0.97649   0.97781   0.00000  Uiso   1.00
O316   O     0.83938   0.88303   0.88398   0.00000  Uiso   1.00
N317   N     0.60712   0.06747   0.79248   0.00000  Uiso   1.00
N318   N     0.16558   0.06386   0.92747   0.00000  Uiso   1.00
N319   N     0.88874   0.70986   0.86062   0.00000  Uiso   1.00
N320   N     0.50715   0.06741   0.83886   0.00000  Uiso   1.00
N321   N     0.06561   0.06380   0.97386   0.00000  Uiso   1.00
N322   N     0.78876   0.70981   0.90701   0.00000  Uiso   1.00
C323   C     0.86304   0.27769   0.16317   0.00000  Uiso   1.00
C324   C     0.96661   0.21779   0.16910   0.00000  Uiso   1.00
C325   C     0.99811   0.16696   0.19994   0.00000  Uiso   1.00
C326   C     0.09571   0.11659   0.20008   0.00000  Uiso   1.00
C327   C     0.24681   0.02345   0.21379   0.00000  Uiso   1.00
C328   C     0.81253   0.21967   0.13197   0.00000  Uiso   1.00
C329   C     0.71448   0.17045   0.13160   0.00000  Uiso   1.00
C330   C     0.68238   0.12168   0.10049   0.00000  Uiso   1.00
C331   C     0.59424   0.03154   0.05655   0.00000  Uiso   1.00
C332   C     0.89037   0.39625   0.15102   0.00000  Uiso   1.00
C333   C     0.85775   0.49550   0.16666   0.00000  Uiso   1.00
C334   C     0.89117   0.59540   0.15158   0.00000  Uiso   1.00
C335   C     0.92389   0.77942   0.13722   0.00000  Uiso   1.00
C336   C     0.98036   0.27863   0.10856   0.00000  Uiso   1.00
C337   C     0.03033   0.21829   0.13943   0.00000  Uiso   1.00
C338   C     0.12791   0.16799   0.13953   0.00000  Uiso   1.00
C339   C     0.15955   0.11710   0.17037   0.00000  Uiso   1.00
C340   C     0.87625   0.22018   0.10231   0.00000  Uiso   1.00
C341   C     0.84428   0.17148   0.07119   0.00000  Uiso   1.00
C342   C     0.74621   0.12219   0.07077   0.00000  Uiso   1.00
C343   C     0.95410   0.39676   0.12136   0.00000  Uiso   1.00
C344   C     0.98756   0.49653   0.10625   0.00000  Uiso   1.00
C345   C     0.95501   0.59591   0.12186   0.00000  Uiso   1.00
H346   H     0.81342   0.27729   0.18626   0.00000  Uiso   1.00
H347   H     0.94876   0.16658   0.22289   0.00000  Uiso   1.00
H348   H     0.66518   0.17008   0.15456   0.00000  Uiso   1.00
H349   H     0.80844   0.49507   0.18962   0.00000  Uiso   1.00
H350   H     0.12690   0.04401   0.25042   0.00000  Uiso   1.00
H351   H     0.52893   0.05143   0.10634   0.00000  Uiso   1.00
H352   H     0.83102   0.73675   0.18026   0.00000  Uiso   1.00
H353   H     0.02997   0.27902   0.08547   0.00000  Uiso   1.00
H354   H     0.17721   0.16840   0.11657   0.00000  Uiso   1.00
H355   H     0.89362   0.17190   0.04824   0.00000  Uiso   1.00
H356   H     0.03688   0.49689   0.08329   0.00000  Uiso   1.00
H357   H     0.31232   0.04549   0.16412   0.00000  Uiso   1.00
H358   H     0.71434   0.05290   0.02004   0.00000  Uiso   1.00
H359   H     0.01643   0.73822   0.09396   0.00000  Uiso   1.00
O360   O     0.31254   0.97191   0.22954   0.00000  Uiso   1.00
O361   O     0.52802   0.98166   0.04051   0.00000  Uiso   1.00
O362   O     0.92435   0.88078   0.13750   0.00000  Uiso   1.00
N363   N     0.15034   0.05956   0.22584   0.00000  Uiso   1.00
N364   N     0.59128   0.06648   0.09114   0.00000  Uiso   1.00
N365   N     0.87368   0.70719   0.16024   0.00000  Uiso   1.00
N366   N     0.25011   0.06036   0.17941   0.00000  Uiso   1.00
N367   N     0.69105   0.06727   0.04470   0.00000  Uiso   1.00
N368   N     0.97345   0.70799   0.11381   0.00000  Uiso   1.00
