data_job_06358
_audit_creation_date              2018-12-19
_audit_creation_method            'Materials Studio'
_symmetry_space_group_name_H-M    'P1'
_symmetry_Int_Tables_number       1
_symmetry_cell_setting            triclinic
loop_
_symmetry_equiv_pos_as_xyz
  x,y,z
_cell_length_a                    16.6688
_cell_length_b                    16.1025
_cell_length_c                    15.5305
_cell_angle_alpha                 90.3721
_cell_angle_beta                  93.8584
_cell_angle_gamma                 97.3386
loop_
_atom_site_label
_atom_site_type_symbol
_atom_site_fract_x
_atom_site_fract_y
_atom_site_fract_z
_atom_site_U_iso_or_equiv
_atom_site_adp_type
_atom_site_occupancy
C1     C     0.64610   0.22340   0.18786   0.00000  Uiso   1.00
C2     C     0.60502   0.14701   0.23262   0.00000  Uiso   1.00
C3     C     0.54974   0.14830   0.29540   0.00000  Uiso   1.00
C4     C     0.51902   0.07170   0.32836   0.00000  Uiso   1.00
C5     C     0.45158   0.96451   0.40221   0.00000  Uiso   1.00
C6     C     0.62622   0.20772   0.09139   0.00000  Uiso   1.00
C7     C     0.58879   0.26006   0.03543   0.00000  Uiso   1.00
C8     C     0.57593   0.23457   0.94949   0.00000  Uiso   1.00
C9     C     0.54147   0.22165   0.80407   0.00000  Uiso   1.00
C10    C     0.73705   0.22068   0.20317   0.00000  Uiso   1.00
C11    C     0.79280   0.28394   0.24117   0.00000  Uiso   1.00
C12    C     0.87326   0.26937   0.24933   0.00000  Uiso   1.00
C13    C     0.01087   0.27658   0.27746   0.00000  Uiso   1.00
C14    C     0.68986   0.08506   0.13474   0.00000  Uiso   1.00
C15    C     0.62879   0.07187   0.20376   0.00000  Uiso   1.00
C16    C     0.59815   0.99524   0.23663   0.00000  Uiso   1.00
C17    C     0.54284   0.99642   0.29945   0.00000  Uiso   1.00
C18    C     0.64999   0.13258   0.06253   0.00000  Uiso   1.00
C19    C     0.63720   0.10700   0.97665   0.00000  Uiso   1.00
C20    C     0.59974   0.15929   0.92058   0.00000  Uiso   1.00
C21    C     0.76082   0.14554   0.17431   0.00000  Uiso   1.00
C22    C     0.84121   0.13087   0.18240   0.00000  Uiso   1.00
C23    C     0.89708   0.19409   0.22042   0.00000  Uiso   1.00
H24    H     0.62760   0.28191   0.21032   0.00000  Uiso   1.00
H25    H     0.53135   0.20647   0.31771   0.00000  Uiso   1.00
H26    H     0.57041   0.31821   0.05778   0.00000  Uiso   1.00
H27    H     0.77439   0.34208   0.26350   0.00000  Uiso   1.00
H28    H     0.43510   0.08969   0.42403   0.00000  Uiso   1.00
H29    H     0.51747   0.32532   0.87593   0.00000  Uiso   1.00
H30    H     0.94761   0.37565   0.30973   0.00000  Uiso   1.00
H31    H     0.70837   0.02656   0.11227   0.00000  Uiso   1.00
H32    H     0.61655   0.93710   0.21428   0.00000  Uiso   1.00
H33    H     0.65560   0.04885   0.95435   0.00000  Uiso   1.00
H34    H     0.85959   0.07271   0.16006   0.00000  Uiso   1.00
H35    H     0.50426   0.87106   0.34008   0.00000  Uiso   1.00
H36    H     0.58663   0.10670   0.79198   0.00000  Uiso   1.00
H37    H     0.01676   0.15703   0.22578   0.00000  Uiso   1.00
O38    O     0.40780   0.92614   0.45091   0.00000  Uiso   1.00
O39    O     0.51588   0.23528   0.73183   0.00000  Uiso   1.00
O40    O     0.08021   0.30131   0.30096   0.00000  Uiso   1.00
N41    N     0.46399   0.05051   0.39028   0.00000  Uiso   1.00
N42    N     0.54099   0.27081   0.87785   0.00000  Uiso   1.00
N43    N     0.94314   0.31787   0.28339   0.00000  Uiso   1.00
N44    N     0.50120   0.93287   0.34511   0.00000  Uiso   1.00
N45    N     0.57820   0.15317   0.83268   0.00000  Uiso   1.00
N46    N     0.98035   0.20023   0.23822   0.00000  Uiso   1.00
C47    C     0.16279   0.63557   0.24571   0.00000  Uiso   1.00
C48    C     0.20590   0.60103   0.17241   0.00000  Uiso   1.00
C49    C     0.26508   0.54782   0.18152   0.00000  Uiso   1.00
C50    C     0.29706   0.52326   0.10655   0.00000  Uiso   1.00
C51    C     0.36797   0.46538   0.00508   0.00000  Uiso   1.00
C52    C     0.07238   0.60999   0.22398   0.00000  Uiso   1.00
C53    C     0.01931   0.56432   0.27645   0.00000  Uiso   1.00
C54    C     0.93890   0.54732   0.24490   0.00000  Uiso   1.00
C55    C     0.80252   0.50341   0.22351   0.00000  Uiso   1.00
C56    C     0.17688   0.73063   0.23839   0.00000  Uiso   1.00
C57    C     0.21164   0.78640   0.30299   0.00000  Uiso   1.00
C58    C     0.21919   0.87097   0.28357   0.00000  Uiso   1.00
C59    C     0.24506   0.01437   0.28456   0.00000  Uiso   1.00
C60    C     0.11435   0.68657   0.09637   0.00000  Uiso   1.00
C61    C     0.17959   0.62873   0.09130   0.00000  Uiso   1.00
C62    C     0.21149   0.60425   0.01630   0.00000  Uiso   1.00
C63    C     0.27071   0.55102   0.02529   0.00000  Uiso   1.00
C64    C     0.04608   0.63769   0.14287   0.00000  Uiso   1.00
C65    C     0.96572   0.62076   0.11123   0.00000  Uiso   1.00
C66    C     0.91254   0.57507   0.16364   0.00000  Uiso   1.00
C67    C     0.15057   0.75833   0.15728   0.00000  Uiso   1.00
C68    C     0.15806   0.84283   0.13776   0.00000  Uiso   1.00
C69    C     0.19284   0.89873   0.20231   0.00000  Uiso   1.00
H70    H     0.18326   0.61400   0.30886   0.00000  Uiso   1.00
H71    H     0.28541   0.52639   0.24431   0.00000  Uiso   1.00
H72    H     0.03968   0.54290   0.33923   0.00000  Uiso   1.00
H73    H     0.23199   0.76494   0.36575   0.00000  Uiso   1.00
H74    H     0.38704   0.44145   0.13696   0.00000  Uiso   1.00
H75    H     0.86891   0.47629   0.33712   0.00000  Uiso   1.00
H76    H     0.27443   0.94451   0.39306   0.00000  Uiso   1.00
H77    H     0.09387   0.70814   0.03322   0.00000  Uiso   1.00
H78    H     0.19112   0.62570   0.95353   0.00000  Uiso   1.00
H79    H     0.94539   0.64221   0.04846   0.00000  Uiso   1.00
H80    H     0.13770   0.86425   0.07498   0.00000  Uiso   1.00
H81    H     0.31051   0.52205   0.90096   0.00000  Uiso   1.00
H82    H     0.79237   0.55690   0.10112   0.00000  Uiso   1.00
H83    H     0.19789   0.02512   0.15706   0.00000  Uiso   1.00
O84    O     0.41435   0.42580   0.97152   0.00000  Uiso   1.00
O85    O     0.73457   0.47152   0.23412   0.00000  Uiso   1.00
O86    O     0.26660   0.08581   0.30751   0.00000  Uiso   1.00
N87    N     0.35570   0.47175   0.09236   0.00000  Uiso   1.00
N88    N     0.87127   0.50431   0.27948   0.00000  Uiso   1.00
N89    N     0.25038   0.94206   0.33179   0.00000  Uiso   1.00
N90    N     0.31452   0.51512   0.96537   0.00000  Uiso   1.00
N91    N     0.83009   0.54768   0.15249   0.00000  Uiso   1.00
N92    N     0.20920   0.98543   0.20480   0.00000  Uiso   1.00
C93    C     0.20469   0.19053   0.67070   0.00000  Uiso   1.00
C94    C     0.13607   0.23271   0.62726   0.00000  Uiso   1.00
C95    C     0.14506   0.29792   0.56929   0.00000  Uiso   1.00
C96    C     0.07479   0.32785   0.53672   0.00000  Uiso   1.00
C97    C     0.97987   0.39851   0.46548   0.00000  Uiso   1.00
C98    C     0.18490   0.09750   0.64830   0.00000  Uiso   1.00
C99    C     0.23494   0.04903   0.60803   0.00000  Uiso   1.00
C100   C     0.20577   0.96513   0.59318   0.00000  Uiso   1.00
C101   C     0.18667   0.82586   0.55467   0.00000  Uiso   1.00
C102   C     0.19664   0.19832   0.76755   0.00000  Uiso   1.00
C103   C     0.25655   0.23460   0.82757   0.00000  Uiso   1.00
C104   C     0.23728   0.23556   0.91313   0.00000  Uiso   1.00
C105   C     0.23641   0.25283   0.05978   0.00000  Uiso   1.00
C106   C     0.06392   0.12771   0.71595   0.00000  Uiso   1.00
C107   C     0.05961   0.19858   0.65183   0.00000  Uiso   1.00
C108   C     0.98931   0.22842   0.61934   0.00000  Uiso   1.00
C109   C     0.99819   0.29367   0.56134   0.00000  Uiso   1.00
C110   C     0.10844   0.06338   0.67287   0.00000  Uiso   1.00
C111   C     0.07919   0.97953   0.65808   0.00000  Uiso   1.00
C112   C     0.12917   0.93095   0.61780   0.00000  Uiso   1.00
C113   C     0.12018   0.16420   0.79213   0.00000  Uiso   1.00
C114   C     0.10080   0.16510   0.87762   0.00000  Uiso   1.00
C115   C     0.16068   0.20138   0.93775   0.00000  Uiso   1.00
H116   H     0.26422   0.21709   0.65157   0.00000  Uiso   1.00
H117   H     0.20424   0.32431   0.55028   0.00000  Uiso   1.00
H118   H     0.29411   0.07545   0.58903   0.00000  Uiso   1.00
H119   H     0.31572   0.26099   0.80853   0.00000  Uiso   1.00
H120   H     0.10402   0.42811   0.44879   0.00000  Uiso   1.00
H121   H     0.29352   0.90338   0.53052   0.00000  Uiso   1.00
H122   H     0.33909   0.29463   0.99338   0.00000  Uiso   1.00
H123   H     0.00439   0.10114   0.73508   0.00000  Uiso   1.00
H124   H     0.93015   0.20200   0.63837   0.00000  Uiso   1.00
H125   H     0.02002   0.95315   0.67711   0.00000  Uiso   1.00
H126   H     0.04163   0.13869   0.89661   0.00000  Uiso   1.00
H127   H     0.88156   0.32884   0.52029   0.00000  Uiso   1.00
H128   H     0.07106   0.80411   0.60202   0.00000  Uiso   1.00
H129   H     0.11663   0.19536   0.06487   0.00000  Uiso   1.00
O130   O     0.94864   0.44690   0.41939   0.00000  Uiso   1.00
O131   O     0.19726   0.75847   0.52663   0.00000  Uiso   1.00
O132   O     0.25705   0.27179   0.13389   0.00000  Uiso   1.00
N133   N     0.06185   0.39092   0.47891   0.00000  Uiso   1.00
N134   N     0.23902   0.90033   0.55530   0.00000  Uiso   1.00
N135   N     0.28163   0.26609   0.98804   0.00000  Uiso   1.00
N136   N     0.94215   0.33750   0.51738   0.00000  Uiso   1.00
N137   N     0.11932   0.84692   0.59377   0.00000  Uiso   1.00
N138   N     0.16193   0.21268   0.02651   0.00000  Uiso   1.00
C139   C     0.35390   0.77660   0.81214   0.00000  Uiso   1.00
C140   C     0.39498   0.85299   0.76738   0.00000  Uiso   1.00
C141   C     0.45026   0.85170   0.70460   0.00000  Uiso   1.00
C142   C     0.48098   0.92830   0.67164   0.00000  Uiso   1.00
C143   C     0.54842   0.03549   0.59779   0.00000  Uiso   1.00
C144   C     0.37378   0.79228   0.90861   0.00000  Uiso   1.00
C145   C     0.41122   0.73994   0.96457   0.00000  Uiso   1.00
C146   C     0.42407   0.76543   0.05051   0.00000  Uiso   1.00
C147   C     0.45853   0.77835   0.19593   0.00000  Uiso   1.00
C148   C     0.26295   0.77932   0.79683   0.00000  Uiso   1.00
C149   C     0.20720   0.71606   0.75883   0.00000  Uiso   1.00
C150   C     0.12674   0.73063   0.75067   0.00000  Uiso   1.00
C151   C     0.98913   0.72342   0.72254   0.00000  Uiso   1.00
C152   C     0.31014   0.91494   0.86526   0.00000  Uiso   1.00
C153   C     0.37121   0.92813   0.79624   0.00000  Uiso   1.00
C154   C     0.40185   0.00476   0.76337   0.00000  Uiso   1.00
C155   C     0.45717   0.00358   0.70055   0.00000  Uiso   1.00
C156   C     0.35001   0.86742   0.93747   0.00000  Uiso   1.00
C157   C     0.36280   0.89300   0.02335   0.00000  Uiso   1.00
C158   C     0.40026   0.84071   0.07942   0.00000  Uiso   1.00
C159   C     0.23918   0.85446   0.82569   0.00000  Uiso   1.00
C160   C     0.15879   0.86913   0.81760   0.00000  Uiso   1.00
C161   C     0.10292   0.80591   0.77958   0.00000  Uiso   1.00
H162   H     0.37240   0.71809   0.78968   0.00000  Uiso   1.00
H163   H     0.46865   0.79353   0.68229   0.00000  Uiso   1.00
H164   H     0.42959   0.68179   0.94222   0.00000  Uiso   1.00
H165   H     0.22561   0.65792   0.73650   0.00000  Uiso   1.00
H166   H     0.56489   0.91031   0.57597   0.00000  Uiso   1.00
H167   H     0.48253   0.67468   0.12407   0.00000  Uiso   1.00
H168   H     0.05239   0.62435   0.69027   0.00000  Uiso   1.00
H169   H     0.29163   0.97344   0.88773   0.00000  Uiso   1.00
H170   H     0.38345   0.06290   0.78572   0.00000  Uiso   1.00
H171   H     0.34440   0.95115   0.04565   0.00000  Uiso   1.00
H172   H     0.14041   0.92729   0.83994   0.00000  Uiso   1.00
H173   H     0.49574   0.12894   0.65992   0.00000  Uiso   1.00
H174   H     0.41337   0.89330   0.20802   0.00000  Uiso   1.00
H175   H     0.98324   0.84298   0.77422   0.00000  Uiso   1.00
O176   O     0.59220   0.07386   0.54909   0.00000  Uiso   1.00
O177   O     0.48412   0.76472   0.26817   0.00000  Uiso   1.00
O178   O     0.91979   0.69869   0.69904   0.00000  Uiso   1.00
N179   N     0.53601   0.94949   0.60972   0.00000  Uiso   1.00
N180   N     0.45901   0.72919   0.12215   0.00000  Uiso   1.00
N181   N     0.05686   0.68213   0.71661   0.00000  Uiso   1.00
N182   N     0.49880   0.06713   0.65489   0.00000  Uiso   1.00
N183   N     0.42180   0.84683   0.16732   0.00000  Uiso   1.00
N184   N     0.01965   0.79977   0.76178   0.00000  Uiso   1.00
C185   C     0.83721   0.36443   0.75429   0.00000  Uiso   1.00
C186   C     0.79410   0.39897   0.82759   0.00000  Uiso   1.00
C187   C     0.73492   0.45218   0.81848   0.00000  Uiso   1.00
C188   C     0.70294   0.47674   0.89345   0.00000  Uiso   1.00
C189   C     0.63203   0.53462   0.99492   0.00000  Uiso   1.00
C190   C     0.92762   0.39001   0.77602   0.00000  Uiso   1.00
C191   C     0.98069   0.43568   0.72355   0.00000  Uiso   1.00
C192   C     0.06110   0.45268   0.75510   0.00000  Uiso   1.00
C193   C     0.19748   0.49659   0.77649   0.00000  Uiso   1.00
C194   C     0.82312   0.26937   0.76161   0.00000  Uiso   1.00
C195   C     0.78836   0.21360   0.69701   0.00000  Uiso   1.00
C196   C     0.78081   0.12903   0.71643   0.00000  Uiso   1.00
C197   C     0.75494   0.98563   0.71544   0.00000  Uiso   1.00
C198   C     0.88565   0.31343   0.90363   0.00000  Uiso   1.00
C199   C     0.82041   0.37127   0.90870   0.00000  Uiso   1.00
C200   C     0.78851   0.39575   0.98370   0.00000  Uiso   1.00
C201   C     0.72929   0.44898   0.97471   0.00000  Uiso   1.00
C202   C     0.95392   0.36231   0.85713   0.00000  Uiso   1.00
C203   C     0.03428   0.37924   0.88877   0.00000  Uiso   1.00
C204   C     0.08746   0.42493   0.83636   0.00000  Uiso   1.00
C205   C     0.84943   0.24167   0.84272   0.00000  Uiso   1.00
C206   C     0.84194   0.15717   0.86224   0.00000  Uiso   1.00
C207   C     0.80716   0.10127   0.79769   0.00000  Uiso   1.00
H208   H     0.81674   0.38600   0.69114   0.00000  Uiso   1.00
H209   H     0.71459   0.47361   0.75569   0.00000  Uiso   1.00
H210   H     0.96032   0.45710   0.66077   0.00000  Uiso   1.00
H211   H     0.76801   0.23506   0.63425   0.00000  Uiso   1.00
H212   H     0.61296   0.55855   0.86304   0.00000  Uiso   1.00
H213   H     0.13109   0.52371   0.66288   0.00000  Uiso   1.00
H214   H     0.72557   0.05549   0.60694   0.00000  Uiso   1.00
H215   H     0.90613   0.29186   0.96678   0.00000  Uiso   1.00
H216   H     0.80888   0.37430   0.04647   0.00000  Uiso   1.00
H217   H     0.05461   0.35779   0.95154   0.00000  Uiso   1.00
H218   H     0.86230   0.13575   0.92502   0.00000  Uiso   1.00
H219   H     0.68949   0.47795   0.09904   0.00000  Uiso   1.00
H220   H     0.20763   0.44310   0.89888   0.00000  Uiso   1.00
H221   H     0.80211   0.97488   0.84294   0.00000  Uiso   1.00
O222   O     0.58565   0.57420   0.02848   0.00000  Uiso   1.00
O223   O     0.26543   0.52848   0.76588   0.00000  Uiso   1.00
O224   O     0.73340   0.91419   0.69249   0.00000  Uiso   1.00
N225   N     0.64430   0.52825   0.90764   0.00000  Uiso   1.00
N226   N     0.12873   0.49569   0.72052   0.00000  Uiso   1.00
N227   N     0.74962   0.05794   0.66821   0.00000  Uiso   1.00
N228   N     0.68548   0.48488   0.03463   0.00000  Uiso   1.00
N229   N     0.16991   0.45232   0.84751   0.00000  Uiso   1.00
N230   N     0.79080   0.01457   0.79520   0.00000  Uiso   1.00
C231   C     0.79531   0.80947   0.32930   0.00000  Uiso   1.00
C232   C     0.86393   0.76729   0.37274   0.00000  Uiso   1.00
C233   C     0.85494   0.70208   0.43071   0.00000  Uiso   1.00
C234   C     0.92521   0.67215   0.46328   0.00000  Uiso   1.00
C235   C     0.02013   0.60149   0.53452   0.00000  Uiso   1.00
C236   C     0.81510   0.90250   0.35170   0.00000  Uiso   1.00
C237   C     0.76506   0.95097   0.39197   0.00000  Uiso   1.00
C238   C     0.79423   0.03487   0.40682   0.00000  Uiso   1.00
C239   C     0.81333   0.17414   0.44533   0.00000  Uiso   1.00
C240   C     0.80336   0.80168   0.23245   0.00000  Uiso   1.00
C241   C     0.74345   0.76540   0.17243   0.00000  Uiso   1.00
C242   C     0.76272   0.76444   0.08687   0.00000  Uiso   1.00
C243   C     0.76359   0.74717   0.94022   0.00000  Uiso   1.00
C244   C     0.93608   0.87229   0.28405   0.00000  Uiso   1.00
C245   C     0.94039   0.80142   0.34817   0.00000  Uiso   1.00
C246   C     0.01069   0.77158   0.38066   0.00000  Uiso   1.00
C247   C     0.00181   0.70633   0.43866   0.00000  Uiso   1.00
C248   C     0.89156   0.93662   0.32713   0.00000  Uiso   1.00
C249   C     0.92081   0.02047   0.34192   0.00000  Uiso   1.00
C250   C     0.87083   0.06905   0.38220   0.00000  Uiso   1.00
C251   C     0.87982   0.83580   0.20787   0.00000  Uiso   1.00
C252   C     0.89920   0.83490   0.12238   0.00000  Uiso   1.00
C253   C     0.83932   0.79862   0.06225   0.00000  Uiso   1.00
H254   H     0.73578   0.78291   0.34843   0.00000  Uiso   1.00
H255   H     0.79576   0.67569   0.44972   0.00000  Uiso   1.00
H256   H     0.70589   0.92455   0.41097   0.00000  Uiso   1.00
H257   H     0.68428   0.73901   0.19147   0.00000  Uiso   1.00
H258   H     0.89598   0.57189   0.55121   0.00000  Uiso   1.00
H259   H     0.70648   0.09662   0.46948   0.00000  Uiso   1.00
H260   H     0.66091   0.70537   0.00662   0.00000  Uiso   1.00
H261   H     0.99561   0.89886   0.26492   0.00000  Uiso   1.00
H262   H     0.06985   0.79800   0.36163   0.00000  Uiso   1.00
H263   H     0.97998   0.04685   0.32289   0.00000  Uiso   1.00
H264   H     0.95837   0.86131   0.10339   0.00000  Uiso   1.00
H265   H     0.11844   0.67116   0.47971   0.00000  Uiso   1.00
H266   H     0.92894   0.19589   0.39798   0.00000  Uiso   1.00
H267   H     0.88337   0.80464   0.93513   0.00000  Uiso   1.00
O268   O     0.05136   0.55310   0.58061   0.00000  Uiso   1.00
O269   O     0.80273   0.24153   0.47337   0.00000  Uiso   1.00
O270   O     0.74295   0.72821   0.86611   0.00000  Uiso   1.00
N271   N     0.93815   0.60908   0.52109   0.00000  Uiso   1.00
N272   N     0.76098   0.09967   0.44470   0.00000  Uiso   1.00
N273   N     0.71837   0.73391   0.01196   0.00000  Uiso   1.00
N274   N     0.05785   0.66250   0.48262   0.00000  Uiso   1.00
N275   N     0.88068   0.15309   0.40623   0.00000  Uiso   1.00
N276   N     0.83807   0.78732   0.97349   0.00000  Uiso   1.00
