data_job_06432
_audit_creation_date              2018-12-19
_audit_creation_method            'Materials Studio'
_symmetry_space_group_name_H-M    'P1'
_symmetry_Int_Tables_number       1
_symmetry_cell_setting            triclinic
loop_
_symmetry_equiv_pos_as_xyz
  x,y,z
_cell_length_a                    13.3435
_cell_length_b                    23.6204
_cell_length_c                    24.0333
_cell_angle_alpha                 116.3660
_cell_angle_beta                  79.1880
_cell_angle_gamma                 81.4395
loop_
_atom_site_label
_atom_site_type_symbol
_atom_site_fract_x
_atom_site_fract_y
_atom_site_fract_z
_atom_site_U_iso_or_equiv
_atom_site_adp_type
_atom_site_occupancy
C1     C     0.24699   0.52990   0.32933   0.00000  Uiso   1.00
C2     C     0.21600   0.60309   0.37720   0.00000  Uiso   1.00
C3     C     0.28224   0.63826   0.40757   0.00000  Uiso   1.00
C4     C     0.23885   0.70482   0.44973   0.00000  Uiso   1.00
C5     C     0.20682   0.81385   0.52237   0.00000  Uiso   1.00
C6     C     0.16980   0.50114   0.35722   0.00000  Uiso   1.00
C7     C     0.19719   0.45059   0.37078   0.00000  Uiso   1.00
C8     C     0.11490   0.43132   0.39611   0.00000  Uiso   1.00
C9     C     0.01114   0.38205   0.43768   0.00000  Uiso   1.00
C10    C     0.22163   0.52362   0.26788   0.00000  Uiso   1.00
C11    C     0.29260   0.49195   0.20631   0.00000  Uiso   1.00
C12    C     0.25394   0.49159   0.15643   0.00000  Uiso   1.00
C13    C     0.23066   0.47722   0.05928   0.00000  Uiso   1.00
C14    C     0.05213   0.58557   0.35021   0.00000  Uiso   1.00
C15    C     0.11016   0.63333   0.38855   0.00000  Uiso   1.00
C16    C     0.06666   0.69985   0.43068   0.00000  Uiso   1.00
C17    C     0.13282   0.73511   0.46110   0.00000  Uiso   1.00
C18    C     0.06396   0.53138   0.36856   0.00000  Uiso   1.00
C19    C     0.98161   0.51218   0.39388   0.00000  Uiso   1.00
C20    C     0.00887   0.46161   0.40748   0.00000  Uiso   1.00
C21    C     0.11579   0.55386   0.27922   0.00000  Uiso   1.00
C22    C     0.07702   0.55355   0.22942   0.00000  Uiso   1.00
C23    C     0.14791   0.52188   0.16779   0.00000  Uiso   1.00
H24    H     0.32939   0.50636   0.32050   0.00000  Uiso   1.00
H25    H     0.36414   0.61484   0.39878   0.00000  Uiso   1.00
H26    H     0.27910   0.42719   0.36199   0.00000  Uiso   1.00
H27    H     0.37450   0.46855   0.19755   0.00000  Uiso   1.00
H28    H     0.35599   0.74844   0.49059   0.00000  Uiso   1.00
H29    H     0.17669   0.35276   0.41299   0.00000  Uiso   1.00
H30    H     0.37784   0.43997   0.06624   0.00000  Uiso   1.00
H31    H     0.96973   0.60912   0.35905   0.00000  Uiso   1.00
H32    H     0.98475   0.72324   0.43945   0.00000  Uiso   1.00
H33    H     0.89972   0.53559   0.40265   0.00000  Uiso   1.00
H34    H     0.99511   0.57695   0.23822   0.00000  Uiso   1.00
H35    H     0.04806   0.83642   0.52360   0.00000  Uiso   1.00
H36    H     0.86876   0.44074   0.44600   0.00000  Uiso   1.00
H37    H     0.06991   0.52796   0.09925   0.00000  Uiso   1.00
O38    O     0.21838   0.86564   0.55930   0.00000  Uiso   1.00
O39    O     0.98315   0.34653   0.45749   0.00000  Uiso   1.00
O40    O     0.24706   0.46095   0.00257   0.00000  Uiso   1.00
N41    N     0.28146   0.75349   0.48732   0.00000  Uiso   1.00
N42    N     0.11382   0.38356   0.41478   0.00000  Uiso   1.00
N43    N     0.30188   0.46508   0.09059   0.00000  Uiso   1.00
N44    N     0.11577   0.80083   0.50508   0.00000  Uiso   1.00
N45    N     0.94813   0.43090   0.43254   0.00000  Uiso   1.00
N46    N     0.13619   0.51242   0.10835   0.00000  Uiso   1.00
C47    C     0.57521   0.67282   0.19996   0.00000  Uiso   1.00
C48    C     0.59074   0.62381   0.22474   0.00000  Uiso   1.00
C49    C     0.68577   0.59559   0.22919   0.00000  Uiso   1.00
C50    C     0.68348   0.55188   0.25311   0.00000  Uiso   1.00
C51    C     0.72189   0.47801   0.28870   0.00000  Uiso   1.00
C52    C     0.52623   0.64295   0.14459   0.00000  Uiso   1.00
C53    C     0.56701   0.63084   0.08166   0.00000  Uiso   1.00
C54    C     0.51040   0.60325   0.03812   0.00000  Uiso   1.00
C55    C     0.44862   0.55914   0.94929   0.00000  Uiso   1.00
C56    C     0.49009   0.73289   0.25423   0.00000  Uiso   1.00
C57    C     0.50046   0.79641   0.28347   0.00000  Uiso   1.00
C58    C     0.41341   0.84455   0.33222   0.00000  Uiso   1.00
C59    C     0.29552   0.94010   0.41362   0.00000  Uiso   1.00
C60    C     0.40216   0.64536   0.23453   0.00000  Uiso   1.00
C61    C     0.49675   0.60889   0.24351   0.00000  Uiso   1.00
C62    C     0.49431   0.56521   0.26744   0.00000  Uiso   1.00
C63    C     0.58931   0.53694   0.27193   0.00000  Uiso   1.00
C64    C     0.43224   0.62803   0.16337   0.00000  Uiso   1.00
C65    C     0.37555   0.60046   0.11991   0.00000  Uiso   1.00
C66    C     0.41623   0.58830   0.05693   0.00000  Uiso   1.00
C67    C     0.39609   0.71798   0.27301   0.00000  Uiso   1.00
C68    C     0.30901   0.76603   0.32172   0.00000  Uiso   1.00
C69    C     0.31925   0.82961   0.35103   0.00000  Uiso   1.00
H70    H     0.64839   0.68443   0.18533   0.00000  Uiso   1.00
H71    H     0.75849   0.60714   0.21464   0.00000  Uiso   1.00
H72    H     0.63974   0.64239   0.06714   0.00000  Uiso   1.00
H73    H     0.57321   0.80793   0.26892   0.00000  Uiso   1.00
H74    H     0.83912   0.51486   0.25540   0.00000  Uiso   1.00
H75    H     0.58870   0.58920   0.94439   0.00000  Uiso   1.00
H76    H     0.44841   0.93828   0.36988   0.00000  Uiso   1.00
H77    H     0.32898   0.63375   0.24915   0.00000  Uiso   1.00
H78    H     0.42156   0.55368   0.28197   0.00000  Uiso   1.00
H79    H     0.30281   0.58892   0.13446   0.00000  Uiso   1.00
H80    H     0.23628   0.75447   0.33624   0.00000  Uiso   1.00
H81    H     0.56565   0.47146   0.31004   0.00000  Uiso   1.00
H82    H     0.31524   0.54581   0.99903   0.00000  Uiso   1.00
H83    H     0.17495   0.89489   0.42452   0.00000  Uiso   1.00
O84    O     0.76905   0.44138   0.30313   0.00000  Uiso   1.00
O85    O     0.44051   0.53893   0.89510   0.00000  Uiso   1.00
O86    O     0.25646   0.99692   0.45334   0.00000  Uiso   1.00
N87    N     0.76205   0.51564   0.26377   0.00000  Uiso   1.00
N88    N     0.52794   0.58514   0.97299   0.00000  Uiso   1.00
N89    N     0.39677   0.91151   0.37078   0.00000  Uiso   1.00
N90    N     0.61490   0.49229   0.29317   0.00000  Uiso   1.00
N91    N     0.38079   0.56179   0.00239   0.00000  Uiso   1.00
N92    N     0.24962   0.88816   0.40018   0.00000  Uiso   1.00
C93    C     0.77402   0.80297   0.47318   0.00000  Uiso   1.00
C94    C     0.81400   0.77935   0.40077   0.00000  Uiso   1.00
C95    C     0.91270   0.77826   0.36849   0.00000  Uiso   1.00
C96    C     0.93415   0.75487   0.30216   0.00000  Uiso   1.00
C97    C     0.00756   0.72150   0.19472   0.00000  Uiso   1.00
C98    C     0.67161   0.85645   0.49843   0.00000  Uiso   1.00
C99    C     0.65059   0.92018   0.54826   0.00000  Uiso   1.00
C100   C     0.55217   0.96169   0.56415   0.00000  Uiso   1.00
C101   C     0.40449   0.04800   0.60835   0.00000  Uiso   1.00
C102   C     0.74226   0.74598   0.47897   0.00000  Uiso   1.00
C103   C     0.78063   0.71683   0.51247   0.00000  Uiso   1.00
C104   C     0.74168   0.66534   0.51199   0.00000  Uiso   1.00
C105   C     0.70371   0.58012   0.52599   0.00000  Uiso   1.00
C106   C     0.63659   0.76337   0.41279   0.00000  Uiso   1.00
C107   C     0.73935   0.75784   0.36797   0.00000  Uiso   1.00
C108   C     0.76066   0.73444   0.30167   0.00000  Uiso   1.00
C109   C     0.85937   0.73332   0.26930   0.00000  Uiso   1.00
C110   C     0.59696   0.83494   0.46563   0.00000  Uiso   1.00
C111   C     0.49855   0.87636   0.48145   0.00000  Uiso   1.00
C112   C     0.47739   0.94014   0.53129   0.00000  Uiso   1.00
C113   C     0.66762   0.72446   0.44617   0.00000  Uiso   1.00
C114   C     0.62859   0.67301   0.44565   0.00000  Uiso   1.00
C115   C     0.66690   0.64378   0.47913   0.00000  Uiso   1.00
H116   H     0.83212   0.81973   0.49872   0.00000  Uiso   1.00
H117   H     0.97044   0.79492   0.39389   0.00000  Uiso   1.00
H118   H     0.70836   0.93682   0.57364   0.00000  Uiso   1.00
H119   H     0.83839   0.73349   0.53785   0.00000  Uiso   1.00
H120   H     0.09085   0.75796   0.26321   0.00000  Uiso   1.00
H121   H     0.53825   0.05714   0.64223   0.00000  Uiso   1.00
H122   H     0.81243   0.62840   0.56675   0.00000  Uiso   1.00
H123   H     0.57847   0.74662   0.38726   0.00000  Uiso   1.00
H124   H     0.70288   0.71780   0.27630   0.00000  Uiso   1.00
H125   H     0.44080   0.85970   0.45605   0.00000  Uiso   1.00
H126   H     0.57083   0.65637   0.42026   0.00000  Uiso   1.00
H127   H     0.87369   0.69536   0.16777   0.00000  Uiso   1.00
H128   H     0.32108   0.99455   0.54680   0.00000  Uiso   1.00
H129   H     0.59527   0.56580   0.47131   0.00000  Uiso   1.00
O130   O     0.06867   0.70904   0.14451   0.00000  Uiso   1.00
O131   O     0.34367   0.10156   0.64179   0.00000  Uiso   1.00
O132   O     0.70339   0.53905   0.54276   0.00000  Uiso   1.00
N133   N     0.02268   0.74717   0.25597   0.00000  Uiso   1.00
N134   N     0.50603   0.02689   0.61033   0.00000  Uiso   1.00
N135   N     0.76235   0.62606   0.53978   0.00000  Uiso   1.00
N136   N     0.90583   0.71349   0.20461   0.00000  Uiso   1.00
N137   N     0.38918   0.99321   0.55897   0.00000  Uiso   1.00
N138   N     0.64550   0.59238   0.48842   0.00000  Uiso   1.00
C139   C     0.07548   0.20136   0.67202   0.00000  Uiso   1.00
C140   C     0.09179   0.22690   0.62372   0.00000  Uiso   1.00
C141   C     0.18717   0.23270   0.59482   0.00000  Uiso   1.00
C142   C     0.18560   0.25713   0.55195   0.00000  Uiso   1.00
C143   C     0.22518   0.29403   0.47896   0.00000  Uiso   1.00
C144   C     0.02621   0.14447   0.64314   0.00000  Uiso   1.00
C145   C     0.06645   0.08097   0.63058   0.00000  Uiso   1.00
C146   C     0.00966   0.03602   0.60406   0.00000  Uiso   1.00
C147   C     0.94738   0.94495   0.56127   0.00000  Uiso   1.00
C148   C     0.99029   0.25535   0.73225   0.00000  Uiso   1.00
C149   C     0.00031   0.28508   0.79461   0.00000  Uiso   1.00
C150   C     0.91326   0.33347   0.84312   0.00000  Uiso   1.00
C151   C     0.79522   0.41457   0.93869   0.00000  Uiso   1.00
C152   C     0.90307   0.23442   0.64727   0.00000  Uiso   1.00
C153   C     0.99814   0.24485   0.61027   0.00000  Uiso   1.00
C154   C     0.99642   0.26928   0.56744   0.00000  Uiso   1.00
C155   C     0.09179   0.27512   0.53848   0.00000  Uiso   1.00
C156   C     0.93257   0.16243   0.62969   0.00000  Uiso   1.00
C157   C     0.87570   0.11755   0.60319   0.00000  Uiso   1.00
C158   C     0.91584   0.05401   0.59059   0.00000  Uiso   1.00
C159   C     0.89664   0.27331   0.71880   0.00000  Uiso   1.00
C160   C     0.80956   0.32166   0.76723   0.00000  Uiso   1.00
C161   C     0.81945   0.35146   0.82966   0.00000  Uiso   1.00
H162   H     0.14839   0.18737   0.68249   0.00000  Uiso   1.00
H163   H     0.25963   0.21879   0.60523   0.00000  Uiso   1.00
H164   H     0.13892   0.06709   0.64099   0.00000  Uiso   1.00
H165   H     0.07279   0.27117   0.80500   0.00000  Uiso   1.00
H166   H     0.34168   0.26153   0.51363   0.00000  Uiso   1.00
H167   H     0.08713   0.94166   0.58905   0.00000  Uiso   1.00
H168   H     0.94768   0.37200   0.93490   0.00000  Uiso   1.00
H169   H     0.83016   0.24840   0.63680   0.00000  Uiso   1.00
H170   H     0.92394   0.28318   0.55704   0.00000  Uiso   1.00
H171   H     0.80323   0.13147   0.59280   0.00000  Uiso   1.00
H172   H     0.73710   0.33555   0.75681   0.00000  Uiso   1.00
H173   H     0.06922   0.31378   0.47452   0.00000  Uiso   1.00
H174   H     0.81466   0.99391   0.54994   0.00000  Uiso   1.00
H175   H     0.67523   0.42425   0.89578   0.00000  Uiso   1.00
O176   O     0.27289   0.30941   0.44241   0.00000  Uiso   1.00
O177   O     0.93892   0.88976   0.54137   0.00000  Uiso   1.00
O178   O     0.75598   0.45435   0.99511   0.00000  Uiso   1.00
N179   N     0.26468   0.26907   0.51538   0.00000  Uiso   1.00
N180   N     0.02670   0.97001   0.58589   0.00000  Uiso   1.00
N181   N     0.89632   0.37232   0.90923   0.00000  Uiso   1.00
N182   N     0.11807   0.29718   0.49434   0.00000  Uiso   1.00
N183   N     0.88009   0.99812   0.56484   0.00000  Uiso   1.00
N184   N     0.74972   0.40044   0.88818   0.00000  Uiso   1.00
C185   C     0.27393   0.47398   0.80194   0.00000  Uiso   1.00
C186   C     0.31339   0.40086   0.77806   0.00000  Uiso   1.00
C187   C     0.41177   0.36926   0.77568   0.00000  Uiso   1.00
C188   C     0.43276   0.30210   0.75226   0.00000  Uiso   1.00
C189   C     0.50539   0.19377   0.71829   0.00000  Uiso   1.00
C190   C     0.17121   0.49824   0.85583   0.00000  Uiso   1.00
C191   C     0.15006   0.54852   0.91885   0.00000  Uiso   1.00
C192   C     0.05135   0.56334   0.96090   0.00000  Uiso   1.00
C193   C     0.90322   0.60623   0.04767   0.00000  Uiso   1.00
C194   C     0.24284   0.47962   0.74634   0.00000  Uiso   1.00
C195   C     0.28187   0.51426   0.71730   0.00000  Uiso   1.00
C196   C     0.24345   0.51342   0.66717   0.00000  Uiso   1.00
C197   C     0.20652   0.52740   0.58393   0.00000  Uiso   1.00
C198   C     0.13626   0.41088   0.76458   0.00000  Uiso   1.00
C199   C     0.23861   0.36659   0.75777   0.00000  Uiso   1.00
C200   C     0.25946   0.29945   0.73434   0.00000  Uiso   1.00
C201   C     0.35785   0.26776   0.73193   0.00000  Uiso   1.00
C202   C     0.09644   0.46397   0.83554   0.00000  Uiso   1.00
C203   C     0.99774   0.47871   0.87751   0.00000  Uiso   1.00
C204   C     0.97644   0.52900   0.94057   0.00000  Uiso   1.00
C205   C     0.16806   0.44534   0.72604   0.00000  Uiso   1.00
C206   C     0.12956   0.44445   0.67596   0.00000  Uiso   1.00
C207   C     0.16854   0.47908   0.64684   0.00000  Uiso   1.00
H208   H     0.33214   0.50067   0.81775   0.00000  Uiso   1.00
H209   H     0.46962   0.39580   0.79140   0.00000  Uiso   1.00
H210   H     0.20794   0.57504   0.93454   0.00000  Uiso   1.00
H211   H     0.33974   0.54078   0.73302   0.00000  Uiso   1.00
H212   H     0.58904   0.26443   0.75326   0.00000  Uiso   1.00
H213   H     0.03726   0.64238   0.05507   0.00000  Uiso   1.00
H214   H     0.31519   0.57014   0.63012   0.00000  Uiso   1.00
H215   H     0.07804   0.38420   0.74878   0.00000  Uiso   1.00
H216   H     0.20158   0.27294   0.71864   0.00000  Uiso   1.00
H217   H     0.93989   0.45218   0.86179   0.00000  Uiso   1.00
H218   H     0.07170   0.41792   0.66026   0.00000  Uiso   1.00
H219   H     0.37149   0.16471   0.69421   0.00000  Uiso   1.00
H220   H     0.81970   0.54266   0.99602   0.00000  Uiso   1.00
H221   H     0.09763   0.47042   0.57108   0.00000  Uiso   1.00
O222   O     0.56610   0.14348   0.70517   0.00000  Uiso   1.00
O223   O     0.84218   0.63935   0.10114   0.00000  Uiso   1.00
O224   O     0.20682   0.54457   0.54362   0.00000  Uiso   1.00
N225   N     0.52089   0.25623   0.74348   0.00000  Uiso   1.00
N226   N     0.00502   0.60958   0.02567   0.00000  Uiso   1.00
N227   N     0.26484   0.54206   0.62839   0.00000  Uiso   1.00
N228   N     0.40383   0.20257   0.71171   0.00000  Uiso   1.00
N229   N     0.88795   0.55592   0.99389   0.00000  Uiso   1.00
N230   N     0.14777   0.48840   0.59661   0.00000  Uiso   1.00
C231   C     0.74681   0.33036   0.52850   0.00000  Uiso   1.00
C232   C     0.71556   0.37850   0.60093   0.00000  Uiso   1.00
C233   C     0.78176   0.41015   0.63474   0.00000  Uiso   1.00
C234   C     0.73811   0.45234   0.70079   0.00000  Uiso   1.00
C235   C     0.70570   0.52557   0.80853   0.00000  Uiso   1.00
C236   C     0.67020   0.35784   0.50127   0.00000  Uiso   1.00
C237   C     0.69828   0.37211   0.45127   0.00000  Uiso   1.00
C238   C     0.61645   0.39690   0.43342   0.00000  Uiso   1.00
C239   C     0.51364   0.43802   0.38639   0.00000  Uiso   1.00
C240   C     0.72086   0.26752   0.52249   0.00000  Uiso   1.00
C241   C     0.79151   0.20584   0.49033   0.00000  Uiso   1.00
C242   C     0.75232   0.15459   0.49034   0.00000  Uiso   1.00
C243   C     0.72815   0.05547   0.47627   0.00000  Uiso   1.00
C244   C     0.55156   0.34900   0.58569   0.00000  Uiso   1.00
C245   C     0.60951   0.38862   0.63199   0.00000  Uiso   1.00
C246   C     0.56574   0.43077   0.69801   0.00000  Uiso   1.00
C247   C     0.63187   0.46248   0.73191   0.00000  Uiso   1.00
C248   C     0.56416   0.36796   0.53232   0.00000  Uiso   1.00
C249   C     0.48227   0.39274   0.51454   0.00000  Uiso   1.00
C250   C     0.51021   0.40705   0.46454   0.00000  Uiso   1.00
C251   C     0.61481   0.27764   0.55356   0.00000  Uiso   1.00
C252   C     0.57549   0.22647   0.55361   0.00000  Uiso   1.00
C253   C     0.64608   0.16474   0.52146   0.00000  Uiso   1.00
H254   H     0.82937   0.32248   0.50432   0.00000  Uiso   1.00
H255   H     0.86382   0.40230   0.61069   0.00000  Uiso   1.00
H256   H     0.78035   0.36426   0.42724   0.00000  Uiso   1.00
H257   H     0.87357   0.19803   0.46630   0.00000  Uiso   1.00
H258   H     0.85524   0.49529   0.74231   0.00000  Uiso   1.00
H259   H     0.67925   0.41506   0.35549   0.00000  Uiso   1.00
H260   H     0.87581   0.06452   0.43786   0.00000  Uiso   1.00
H261   H     0.46899   0.35688   0.60987   0.00000  Uiso   1.00
H262   H     0.48367   0.43860   0.72203   0.00000  Uiso   1.00
H263   H     0.40021   0.40056   0.53858   0.00000  Uiso   1.00
H264   H     0.49342   0.23433   0.57765   0.00000  Uiso   1.00
H265   H     0.54670   0.52475   0.83268   0.00000  Uiso   1.00
H266   H     0.37071   0.44452   0.44586   0.00000  Uiso   1.00
H267   H     0.56727   0.09398   0.52823   0.00000  Uiso   1.00
O268   O     0.71712   0.56318   0.85937   0.00000  Uiso   1.00
O269   O     0.48623   0.45790   0.35187   0.00000  Uiso   1.00
O270   O     0.74412   0.99800   0.45994   0.00000  Uiso   1.00
N271   N     0.78062   0.49100   0.74819   0.00000  Uiso   1.00
N272   N     0.61608   0.41600   0.38654   0.00000  Uiso   1.00
N273   N     0.79984   0.08827   0.46353   0.00000  Uiso   1.00
N274   N     0.61459   0.50686   0.79682   0.00000  Uiso   1.00
N275   N     0.45005   0.43185   0.43517   0.00000  Uiso   1.00
N276   N     0.63382   0.10412   0.51216   0.00000  Uiso   1.00
