data_job_00965
_audit_creation_date              2018-12-19
_audit_creation_method            'Materials Studio'
_symmetry_space_group_name_H-M    'P1'
_symmetry_Int_Tables_number       1
_symmetry_cell_setting            triclinic
loop_
_symmetry_equiv_pos_as_xyz
  x,y,z
_cell_length_a                    14.2834
_cell_length_b                    12.2747
_cell_length_c                    25.5160
_cell_angle_alpha                 90.0000
_cell_angle_beta                  90.0000
_cell_angle_gamma                 90.0000
loop_
_atom_site_label
_atom_site_type_symbol
_atom_site_fract_x
_atom_site_fract_y
_atom_site_fract_z
_atom_site_U_iso_or_equiv
_atom_site_adp_type
_atom_site_occupancy
C1     C     0.50289   0.27762   0.17607   0.00000  Uiso   1.00
C2     C     0.46300   0.35509   0.13503   0.00000  Uiso   1.00
C3     C     0.41163   0.44866   0.14529   0.00000  Uiso   1.00
C4     C     0.38137   0.50853   0.10235   0.00000  Uiso   1.00
C5     C     0.31627   0.63374   0.04643   0.00000  Uiso   1.00
C6     C     0.46364   0.16532   0.16301   0.00000  Uiso   1.00
C7     C     0.41283   0.09934   0.19681   0.00000  Uiso   1.00
C8     C     0.38312   0.99947   0.17742   0.00000  Uiso   1.00
C9     C     0.31909   0.83004   0.16497   0.00000  Uiso   1.00
C10    C     0.60779   0.27129   0.16540   0.00000  Uiso   1.00
C11    C     0.67820   0.29438   0.20120   0.00000  Uiso   1.00
C12    C     0.76986   0.28370   0.18382   0.00000  Uiso   1.00
C13    C     0.92964   0.27880   0.17506   0.00000  Uiso   1.00
C14    C     0.54048   0.21756   0.08156   0.00000  Uiso   1.00
C15    C     0.48341   0.32246   0.08369   0.00000  Uiso   1.00
C16    C     0.45322   0.38220   0.04072   0.00000  Uiso   1.00
C17    C     0.40182   0.47585   0.05092   0.00000  Uiso   1.00
C18    C     0.48405   0.13270   0.11168   0.00000  Uiso   1.00
C19    C     0.45442   0.03289   0.09224   0.00000  Uiso   1.00
C20    C     0.40358   0.96678   0.12599   0.00000  Uiso   1.00
C21    C     0.62821   0.23867   0.11406   0.00000  Uiso   1.00
C22    C     0.71978   0.22794   0.09663   0.00000  Uiso   1.00
C23    C     0.79031   0.25101   0.13239   0.00000  Uiso   1.00
H24    H     0.48700   0.30302   0.21604   0.00000  Uiso   1.00
H25    H     0.39584   0.47387   0.18502   0.00000  Uiso   1.00
H26    H     0.39705   0.12461   0.23653   0.00000  Uiso   1.00
H27    H     0.66237   0.31962   0.24092   0.00000  Uiso   1.00
H28    H     0.30375   0.64888   0.12800   0.00000  Uiso   1.00
H29    H     0.30633   0.91243   0.23662   0.00000  Uiso   1.00
H30    H     0.86582   0.32366   0.24587   0.00000  Uiso   1.00
H31    H     0.55637   0.19216   0.04159   0.00000  Uiso   1.00
H32    H     0.46903   0.35694   0.00100   0.00000  Uiso   1.00
H33    H     0.47023   0.00767   0.05251   0.00000  Uiso   1.00
H34    H     0.73555   0.20269   0.05690   0.00000  Uiso   1.00
H35    H     0.36315   0.55397   0.97864   0.00000  Uiso   1.00
H36    H     0.36573   0.81752   0.08726   0.00000  Uiso   1.00
H37    H     0.92521   0.22875   0.09651   0.00000  Uiso   1.00
O38    O     0.27471   0.71181   0.02977   0.00000  Uiso   1.00
O39    O     0.27811   0.74560   0.17228   0.00000  Uiso   1.00
O40    O     0.01214   0.28513   0.18441   0.00000  Uiso   1.00
N41    N     0.32974   0.60395   0.09842   0.00000  Uiso   1.00
N42    N     0.33213   0.91541   0.19997   0.00000  Uiso   1.00
N43    N     0.85520   0.29985   0.20862   0.00000  Uiso   1.00
N44    N     0.36170   0.55288   0.01805   0.00000  Uiso   1.00
N45    N     0.36410   0.86434   0.11960   0.00000  Uiso   1.00
N46    N     0.88717   0.24878   0.12825   0.00000  Uiso   1.00
C47    C     0.99711   0.72238   0.17607   0.00000  Uiso   1.00
C48    C     0.03700   0.64491   0.13503   0.00000  Uiso   1.00
C49    C     0.08837   0.55134   0.14529   0.00000  Uiso   1.00
C50    C     0.11863   0.49147   0.10235   0.00000  Uiso   1.00
C51    C     0.18373   0.36626   0.04643   0.00000  Uiso   1.00
C52    C     0.03636   0.83468   0.16301   0.00000  Uiso   1.00
C53    C     0.08717   0.90066   0.19681   0.00000  Uiso   1.00
C54    C     0.11688   0.00053   0.17742   0.00000  Uiso   1.00
C55    C     0.18091   0.16996   0.16497   0.00000  Uiso   1.00
C56    C     0.89221   0.72871   0.16540   0.00000  Uiso   1.00
C57    C     0.82180   0.70562   0.20120   0.00000  Uiso   1.00
C58    C     0.73014   0.71630   0.18382   0.00000  Uiso   1.00
C59    C     0.57036   0.72120   0.17506   0.00000  Uiso   1.00
C60    C     0.95952   0.78244   0.08156   0.00000  Uiso   1.00
C61    C     0.01659   0.67754   0.08369   0.00000  Uiso   1.00
C62    C     0.04678   0.61780   0.04072   0.00000  Uiso   1.00
C63    C     0.09818   0.52415   0.05092   0.00000  Uiso   1.00
C64    C     0.01595   0.86730   0.11168   0.00000  Uiso   1.00
C65    C     0.04558   0.96711   0.09224   0.00000  Uiso   1.00
C66    C     0.09642   0.03322   0.12599   0.00000  Uiso   1.00
C67    C     0.87179   0.76133   0.11406   0.00000  Uiso   1.00
C68    C     0.78022   0.77206   0.09663   0.00000  Uiso   1.00
C69    C     0.70969   0.74899   0.13239   0.00000  Uiso   1.00
H70    H     0.01300   0.69698   0.21604   0.00000  Uiso   1.00
H71    H     0.10416   0.52613   0.18502   0.00000  Uiso   1.00
H72    H     0.10295   0.87539   0.23653   0.00000  Uiso   1.00
H73    H     0.83763   0.68038   0.24092   0.00000  Uiso   1.00
H74    H     0.19625   0.35112   0.12800   0.00000  Uiso   1.00
H75    H     0.19367   0.08757   0.23662   0.00000  Uiso   1.00
H76    H     0.63418   0.67634   0.24587   0.00000  Uiso   1.00
H77    H     0.94363   0.80784   0.04159   0.00000  Uiso   1.00
H78    H     0.03097   0.64306   0.00100   0.00000  Uiso   1.00
H79    H     0.02977   0.99233   0.05251   0.00000  Uiso   1.00
H80    H     0.76445   0.79731   0.05690   0.00000  Uiso   1.00
H81    H     0.13685   0.44603   0.97864   0.00000  Uiso   1.00
H82    H     0.13427   0.18248   0.08726   0.00000  Uiso   1.00
H83    H     0.57479   0.77125   0.09651   0.00000  Uiso   1.00
O84    O     0.22529   0.28819   0.02977   0.00000  Uiso   1.00
O85    O     0.22189   0.25440   0.17228   0.00000  Uiso   1.00
O86    O     0.48786   0.71487   0.18441   0.00000  Uiso   1.00
N87    N     0.17026   0.39605   0.09842   0.00000  Uiso   1.00
N88    N     0.16787   0.08459   0.19997   0.00000  Uiso   1.00
N89    N     0.64480   0.70015   0.20862   0.00000  Uiso   1.00
N90    N     0.13830   0.44712   0.01805   0.00000  Uiso   1.00
N91    N     0.13590   0.13566   0.11960   0.00000  Uiso   1.00
N92    N     0.61283   0.75122   0.12825   0.00000  Uiso   1.00
C93    C     0.49711   0.27762   0.32393   0.00000  Uiso   1.00
C94    C     0.53700   0.35509   0.36497   0.00000  Uiso   1.00
C95    C     0.58837   0.44866   0.35471   0.00000  Uiso   1.00
C96    C     0.61863   0.50853   0.39765   0.00000  Uiso   1.00
C97    C     0.68373   0.63374   0.45357   0.00000  Uiso   1.00
C98    C     0.53636   0.16532   0.33699   0.00000  Uiso   1.00
C99    C     0.58717   0.09934   0.30319   0.00000  Uiso   1.00
C100   C     0.61688   0.99947   0.32258   0.00000  Uiso   1.00
C101   C     0.68091   0.83004   0.33503   0.00000  Uiso   1.00
C102   C     0.39221   0.27129   0.33460   0.00000  Uiso   1.00
C103   C     0.32180   0.29438   0.29880   0.00000  Uiso   1.00
C104   C     0.23014   0.28370   0.31618   0.00000  Uiso   1.00
C105   C     0.07036   0.27880   0.32494   0.00000  Uiso   1.00
C106   C     0.45952   0.21756   0.41844   0.00000  Uiso   1.00
C107   C     0.51659   0.32246   0.41631   0.00000  Uiso   1.00
C108   C     0.54678   0.38220   0.45928   0.00000  Uiso   1.00
C109   C     0.59818   0.47585   0.44908   0.00000  Uiso   1.00
C110   C     0.51595   0.13270   0.38832   0.00000  Uiso   1.00
C111   C     0.54558   0.03289   0.40776   0.00000  Uiso   1.00
C112   C     0.59642   0.96678   0.37401   0.00000  Uiso   1.00
C113   C     0.37179   0.23867   0.38594   0.00000  Uiso   1.00
C114   C     0.28022   0.22794   0.40337   0.00000  Uiso   1.00
C115   C     0.20969   0.25101   0.36761   0.00000  Uiso   1.00
H116   H     0.51300   0.30302   0.28396   0.00000  Uiso   1.00
H117   H     0.60416   0.47387   0.31498   0.00000  Uiso   1.00
H118   H     0.60295   0.12461   0.26347   0.00000  Uiso   1.00
H119   H     0.33763   0.31962   0.25908   0.00000  Uiso   1.00
H120   H     0.69625   0.64888   0.37200   0.00000  Uiso   1.00
H121   H     0.69367   0.91243   0.26338   0.00000  Uiso   1.00
H122   H     0.13418   0.32366   0.25413   0.00000  Uiso   1.00
H123   H     0.44363   0.19216   0.45841   0.00000  Uiso   1.00
H124   H     0.53097   0.35694   0.49900   0.00000  Uiso   1.00
H125   H     0.52977   0.00767   0.44749   0.00000  Uiso   1.00
H126   H     0.26445   0.20269   0.44310   0.00000  Uiso   1.00
H127   H     0.63685   0.55397   0.52136   0.00000  Uiso   1.00
H128   H     0.63427   0.81752   0.41274   0.00000  Uiso   1.00
H129   H     0.07479   0.22875   0.40349   0.00000  Uiso   1.00
O130   O     0.72529   0.71181   0.47023   0.00000  Uiso   1.00
O131   O     0.72189   0.74560   0.32772   0.00000  Uiso   1.00
O132   O     0.98786   0.28513   0.31559   0.00000  Uiso   1.00
N133   N     0.67026   0.60395   0.40158   0.00000  Uiso   1.00
N134   N     0.66787   0.91541   0.30003   0.00000  Uiso   1.00
N135   N     0.14480   0.29985   0.29138   0.00000  Uiso   1.00
N136   N     0.63830   0.55288   0.48195   0.00000  Uiso   1.00
N137   N     0.63590   0.86434   0.38040   0.00000  Uiso   1.00
N138   N     0.11283   0.24878   0.37175   0.00000  Uiso   1.00
C139   C     0.00289   0.72238   0.32393   0.00000  Uiso   1.00
C140   C     0.96300   0.64491   0.36497   0.00000  Uiso   1.00
C141   C     0.91163   0.55134   0.35471   0.00000  Uiso   1.00
C142   C     0.88137   0.49147   0.39765   0.00000  Uiso   1.00
C143   C     0.81627   0.36626   0.45357   0.00000  Uiso   1.00
C144   C     0.96364   0.83468   0.33699   0.00000  Uiso   1.00
C145   C     0.91283   0.90066   0.30319   0.00000  Uiso   1.00
C146   C     0.88312   0.00053   0.32258   0.00000  Uiso   1.00
C147   C     0.81909   0.16996   0.33503   0.00000  Uiso   1.00
C148   C     0.10779   0.72871   0.33460   0.00000  Uiso   1.00
C149   C     0.17820   0.70562   0.29880   0.00000  Uiso   1.00
C150   C     0.26986   0.71630   0.31618   0.00000  Uiso   1.00
C151   C     0.42964   0.72120   0.32494   0.00000  Uiso   1.00
C152   C     0.04048   0.78244   0.41844   0.00000  Uiso   1.00
C153   C     0.98341   0.67754   0.41631   0.00000  Uiso   1.00
C154   C     0.95322   0.61780   0.45928   0.00000  Uiso   1.00
C155   C     0.90182   0.52415   0.44908   0.00000  Uiso   1.00
C156   C     0.98405   0.86730   0.38832   0.00000  Uiso   1.00
C157   C     0.95442   0.96711   0.40776   0.00000  Uiso   1.00
C158   C     0.90358   0.03322   0.37401   0.00000  Uiso   1.00
C159   C     0.12821   0.76133   0.38594   0.00000  Uiso   1.00
C160   C     0.21978   0.77206   0.40337   0.00000  Uiso   1.00
C161   C     0.29031   0.74899   0.36761   0.00000  Uiso   1.00
H162   H     0.98700   0.69698   0.28396   0.00000  Uiso   1.00
H163   H     0.89584   0.52613   0.31498   0.00000  Uiso   1.00
H164   H     0.89705   0.87539   0.26347   0.00000  Uiso   1.00
H165   H     0.16237   0.68038   0.25908   0.00000  Uiso   1.00
H166   H     0.80375   0.35112   0.37200   0.00000  Uiso   1.00
H167   H     0.80633   0.08757   0.26338   0.00000  Uiso   1.00
H168   H     0.36582   0.67634   0.25413   0.00000  Uiso   1.00
H169   H     0.05637   0.80784   0.45841   0.00000  Uiso   1.00
H170   H     0.96903   0.64306   0.49900   0.00000  Uiso   1.00
H171   H     0.97023   0.99233   0.44749   0.00000  Uiso   1.00
H172   H     0.23555   0.79731   0.44310   0.00000  Uiso   1.00
H173   H     0.86315   0.44603   0.52136   0.00000  Uiso   1.00
H174   H     0.86573   0.18248   0.41274   0.00000  Uiso   1.00
H175   H     0.42521   0.77125   0.40349   0.00000  Uiso   1.00
O176   O     0.77471   0.28819   0.47023   0.00000  Uiso   1.00
O177   O     0.77811   0.25440   0.32772   0.00000  Uiso   1.00
O178   O     0.51214   0.71487   0.31559   0.00000  Uiso   1.00
N179   N     0.82974   0.39605   0.40158   0.00000  Uiso   1.00
N180   N     0.83213   0.08459   0.30003   0.00000  Uiso   1.00
N181   N     0.35520   0.70015   0.29138   0.00000  Uiso   1.00
N182   N     0.86170   0.44712   0.48195   0.00000  Uiso   1.00
N183   N     0.86410   0.13566   0.38040   0.00000  Uiso   1.00
N184   N     0.38717   0.75122   0.37175   0.00000  Uiso   1.00
C185   C     0.49711   0.72238   0.82393   0.00000  Uiso   1.00
C186   C     0.53700   0.64491   0.86497   0.00000  Uiso   1.00
C187   C     0.58837   0.55134   0.85471   0.00000  Uiso   1.00
C188   C     0.61863   0.49147   0.89765   0.00000  Uiso   1.00
C189   C     0.68373   0.36626   0.95357   0.00000  Uiso   1.00
C190   C     0.53636   0.83468   0.83699   0.00000  Uiso   1.00
C191   C     0.58717   0.90066   0.80319   0.00000  Uiso   1.00
C192   C     0.61688   0.00053   0.82258   0.00000  Uiso   1.00
C193   C     0.68091   0.16996   0.83503   0.00000  Uiso   1.00
C194   C     0.39221   0.72871   0.83460   0.00000  Uiso   1.00
C195   C     0.32180   0.70562   0.79880   0.00000  Uiso   1.00
C196   C     0.23014   0.71630   0.81618   0.00000  Uiso   1.00
C197   C     0.07036   0.72120   0.82494   0.00000  Uiso   1.00
C198   C     0.45952   0.78244   0.91844   0.00000  Uiso   1.00
C199   C     0.51659   0.67754   0.91631   0.00000  Uiso   1.00
C200   C     0.54678   0.61780   0.95928   0.00000  Uiso   1.00
C201   C     0.59818   0.52415   0.94908   0.00000  Uiso   1.00
C202   C     0.51595   0.86730   0.88832   0.00000  Uiso   1.00
C203   C     0.54558   0.96711   0.90776   0.00000  Uiso   1.00
C204   C     0.59642   0.03322   0.87401   0.00000  Uiso   1.00
C205   C     0.37179   0.76133   0.88594   0.00000  Uiso   1.00
C206   C     0.28022   0.77206   0.90337   0.00000  Uiso   1.00
C207   C     0.20969   0.74899   0.86761   0.00000  Uiso   1.00
H208   H     0.51300   0.69698   0.78396   0.00000  Uiso   1.00
H209   H     0.60416   0.52613   0.81498   0.00000  Uiso   1.00
H210   H     0.60295   0.87539   0.76347   0.00000  Uiso   1.00
H211   H     0.33763   0.68038   0.75908   0.00000  Uiso   1.00
H212   H     0.69625   0.35112   0.87200   0.00000  Uiso   1.00
H213   H     0.69367   0.08757   0.76338   0.00000  Uiso   1.00
H214   H     0.13418   0.67634   0.75413   0.00000  Uiso   1.00
H215   H     0.44363   0.80784   0.95841   0.00000  Uiso   1.00
H216   H     0.53097   0.64306   0.99900   0.00000  Uiso   1.00
H217   H     0.52977   0.99233   0.94749   0.00000  Uiso   1.00
H218   H     0.26445   0.79731   0.94310   0.00000  Uiso   1.00
H219   H     0.63685   0.44603   0.02136   0.00000  Uiso   1.00
H220   H     0.63427   0.18248   0.91274   0.00000  Uiso   1.00
H221   H     0.07479   0.77125   0.90349   0.00000  Uiso   1.00
O222   O     0.72529   0.28819   0.97023   0.00000  Uiso   1.00
O223   O     0.72189   0.25440   0.82772   0.00000  Uiso   1.00
O224   O     0.98786   0.71487   0.81559   0.00000  Uiso   1.00
N225   N     0.67026   0.39605   0.90158   0.00000  Uiso   1.00
N226   N     0.66787   0.08459   0.80003   0.00000  Uiso   1.00
N227   N     0.14480   0.70015   0.79138   0.00000  Uiso   1.00
N228   N     0.63830   0.44712   0.98195   0.00000  Uiso   1.00
N229   N     0.63590   0.13566   0.88040   0.00000  Uiso   1.00
N230   N     0.11283   0.75122   0.87175   0.00000  Uiso   1.00
C231   C     0.00289   0.27762   0.82393   0.00000  Uiso   1.00
C232   C     0.96300   0.35509   0.86497   0.00000  Uiso   1.00
C233   C     0.91163   0.44866   0.85471   0.00000  Uiso   1.00
C234   C     0.88137   0.50853   0.89765   0.00000  Uiso   1.00
C235   C     0.81627   0.63374   0.95357   0.00000  Uiso   1.00
C236   C     0.96364   0.16532   0.83699   0.00000  Uiso   1.00
C237   C     0.91283   0.09934   0.80319   0.00000  Uiso   1.00
C238   C     0.88312   0.99947   0.82258   0.00000  Uiso   1.00
C239   C     0.81909   0.83004   0.83503   0.00000  Uiso   1.00
C240   C     0.10779   0.27129   0.83460   0.00000  Uiso   1.00
C241   C     0.17820   0.29438   0.79880   0.00000  Uiso   1.00
C242   C     0.26986   0.28370   0.81618   0.00000  Uiso   1.00
C243   C     0.42964   0.27880   0.82494   0.00000  Uiso   1.00
C244   C     0.04048   0.21756   0.91844   0.00000  Uiso   1.00
C245   C     0.98341   0.32246   0.91631   0.00000  Uiso   1.00
C246   C     0.95322   0.38220   0.95928   0.00000  Uiso   1.00
C247   C     0.90182   0.47585   0.94908   0.00000  Uiso   1.00
C248   C     0.98405   0.13270   0.88832   0.00000  Uiso   1.00
C249   C     0.95442   0.03289   0.90776   0.00000  Uiso   1.00
C250   C     0.90358   0.96678   0.87401   0.00000  Uiso   1.00
C251   C     0.12821   0.23867   0.88594   0.00000  Uiso   1.00
C252   C     0.21978   0.22794   0.90337   0.00000  Uiso   1.00
C253   C     0.29031   0.25101   0.86761   0.00000  Uiso   1.00
H254   H     0.98700   0.30302   0.78396   0.00000  Uiso   1.00
H255   H     0.89584   0.47387   0.81498   0.00000  Uiso   1.00
H256   H     0.89705   0.12461   0.76347   0.00000  Uiso   1.00
H257   H     0.16237   0.31962   0.75908   0.00000  Uiso   1.00
H258   H     0.80375   0.64888   0.87200   0.00000  Uiso   1.00
H259   H     0.80633   0.91243   0.76338   0.00000  Uiso   1.00
H260   H     0.36582   0.32366   0.75413   0.00000  Uiso   1.00
H261   H     0.05637   0.19216   0.95841   0.00000  Uiso   1.00
H262   H     0.96903   0.35694   0.99900   0.00000  Uiso   1.00
H263   H     0.97023   0.00767   0.94749   0.00000  Uiso   1.00
H264   H     0.23555   0.20269   0.94310   0.00000  Uiso   1.00
H265   H     0.86315   0.55397   0.02136   0.00000  Uiso   1.00
H266   H     0.86573   0.81752   0.91274   0.00000  Uiso   1.00
H267   H     0.42521   0.22875   0.90349   0.00000  Uiso   1.00
O268   O     0.77471   0.71181   0.97023   0.00000  Uiso   1.00
O269   O     0.77811   0.74560   0.82772   0.00000  Uiso   1.00
O270   O     0.51214   0.28513   0.81559   0.00000  Uiso   1.00
N271   N     0.82974   0.60395   0.90158   0.00000  Uiso   1.00
N272   N     0.83213   0.91541   0.80003   0.00000  Uiso   1.00
N273   N     0.35520   0.29985   0.79138   0.00000  Uiso   1.00
N274   N     0.86170   0.55288   0.98195   0.00000  Uiso   1.00
N275   N     0.86410   0.86434   0.88040   0.00000  Uiso   1.00
N276   N     0.38717   0.24878   0.87175   0.00000  Uiso   1.00
C277   C     0.50289   0.72238   0.67607   0.00000  Uiso   1.00
C278   C     0.46300   0.64491   0.63503   0.00000  Uiso   1.00
C279   C     0.41163   0.55134   0.64529   0.00000  Uiso   1.00
C280   C     0.38137   0.49147   0.60235   0.00000  Uiso   1.00
C281   C     0.31627   0.36626   0.54643   0.00000  Uiso   1.00
C282   C     0.46364   0.83468   0.66301   0.00000  Uiso   1.00
C283   C     0.41283   0.90066   0.69681   0.00000  Uiso   1.00
C284   C     0.38312   0.00053   0.67742   0.00000  Uiso   1.00
C285   C     0.31909   0.16996   0.66497   0.00000  Uiso   1.00
C286   C     0.60779   0.72871   0.66540   0.00000  Uiso   1.00
C287   C     0.67820   0.70562   0.70120   0.00000  Uiso   1.00
C288   C     0.76986   0.71630   0.68382   0.00000  Uiso   1.00
C289   C     0.92964   0.72120   0.67506   0.00000  Uiso   1.00
C290   C     0.54048   0.78244   0.58156   0.00000  Uiso   1.00
C291   C     0.48341   0.67754   0.58369   0.00000  Uiso   1.00
C292   C     0.45322   0.61780   0.54072   0.00000  Uiso   1.00
C293   C     0.40182   0.52415   0.55092   0.00000  Uiso   1.00
C294   C     0.48405   0.86730   0.61168   0.00000  Uiso   1.00
C295   C     0.45442   0.96711   0.59224   0.00000  Uiso   1.00
C296   C     0.40358   0.03322   0.62599   0.00000  Uiso   1.00
C297   C     0.62821   0.76133   0.61406   0.00000  Uiso   1.00
C298   C     0.71978   0.77206   0.59663   0.00000  Uiso   1.00
C299   C     0.79031   0.74899   0.63239   0.00000  Uiso   1.00
H300   H     0.48700   0.69698   0.71604   0.00000  Uiso   1.00
H301   H     0.39584   0.52613   0.68502   0.00000  Uiso   1.00
H302   H     0.39705   0.87539   0.73653   0.00000  Uiso   1.00
H303   H     0.66237   0.68038   0.74092   0.00000  Uiso   1.00
H304   H     0.30375   0.35112   0.62800   0.00000  Uiso   1.00
H305   H     0.30633   0.08757   0.73662   0.00000  Uiso   1.00
H306   H     0.86582   0.67634   0.74587   0.00000  Uiso   1.00
H307   H     0.55637   0.80784   0.54159   0.00000  Uiso   1.00
H308   H     0.46903   0.64306   0.50100   0.00000  Uiso   1.00
H309   H     0.47023   0.99233   0.55251   0.00000  Uiso   1.00
H310   H     0.73555   0.79731   0.55690   0.00000  Uiso   1.00
H311   H     0.36315   0.44603   0.47864   0.00000  Uiso   1.00
H312   H     0.36573   0.18248   0.58726   0.00000  Uiso   1.00
H313   H     0.92521   0.77125   0.59651   0.00000  Uiso   1.00
O314   O     0.27471   0.28819   0.52977   0.00000  Uiso   1.00
O315   O     0.27811   0.25440   0.67228   0.00000  Uiso   1.00
O316   O     0.01214   0.71487   0.68441   0.00000  Uiso   1.00
N317   N     0.32974   0.39605   0.59842   0.00000  Uiso   1.00
N318   N     0.33213   0.08459   0.69997   0.00000  Uiso   1.00
N319   N     0.85520   0.70015   0.70862   0.00000  Uiso   1.00
N320   N     0.36170   0.44712   0.51805   0.00000  Uiso   1.00
N321   N     0.36410   0.13566   0.61960   0.00000  Uiso   1.00
N322   N     0.88717   0.75122   0.62825   0.00000  Uiso   1.00
C323   C     0.99711   0.27762   0.67607   0.00000  Uiso   1.00
C324   C     0.03700   0.35509   0.63503   0.00000  Uiso   1.00
C325   C     0.08837   0.44866   0.64529   0.00000  Uiso   1.00
C326   C     0.11863   0.50853   0.60235   0.00000  Uiso   1.00
C327   C     0.18373   0.63374   0.54643   0.00000  Uiso   1.00
C328   C     0.03636   0.16532   0.66301   0.00000  Uiso   1.00
C329   C     0.08717   0.09934   0.69681   0.00000  Uiso   1.00
C330   C     0.11688   0.99947   0.67742   0.00000  Uiso   1.00
C331   C     0.18091   0.83004   0.66497   0.00000  Uiso   1.00
C332   C     0.89221   0.27129   0.66540   0.00000  Uiso   1.00
C333   C     0.82180   0.29438   0.70120   0.00000  Uiso   1.00
C334   C     0.73014   0.28370   0.68382   0.00000  Uiso   1.00
C335   C     0.57036   0.27880   0.67506   0.00000  Uiso   1.00
C336   C     0.95952   0.21756   0.58156   0.00000  Uiso   1.00
C337   C     0.01659   0.32246   0.58369   0.00000  Uiso   1.00
C338   C     0.04678   0.38220   0.54072   0.00000  Uiso   1.00
C339   C     0.09818   0.47585   0.55092   0.00000  Uiso   1.00
C340   C     0.01595   0.13270   0.61168   0.00000  Uiso   1.00
C341   C     0.04558   0.03289   0.59224   0.00000  Uiso   1.00
C342   C     0.09642   0.96678   0.62599   0.00000  Uiso   1.00
C343   C     0.87179   0.23867   0.61406   0.00000  Uiso   1.00
C344   C     0.78022   0.22794   0.59663   0.00000  Uiso   1.00
C345   C     0.70969   0.25101   0.63239   0.00000  Uiso   1.00
H346   H     0.01300   0.30302   0.71604   0.00000  Uiso   1.00
H347   H     0.10416   0.47387   0.68502   0.00000  Uiso   1.00
H348   H     0.10295   0.12461   0.73653   0.00000  Uiso   1.00
H349   H     0.83763   0.31962   0.74092   0.00000  Uiso   1.00
H350   H     0.19625   0.64888   0.62800   0.00000  Uiso   1.00
H351   H     0.19367   0.91243   0.73662   0.00000  Uiso   1.00
H352   H     0.63418   0.32366   0.74587   0.00000  Uiso   1.00
H353   H     0.94363   0.19216   0.54159   0.00000  Uiso   1.00
H354   H     0.03097   0.35694   0.50100   0.00000  Uiso   1.00
H355   H     0.02977   0.00767   0.55251   0.00000  Uiso   1.00
H356   H     0.76445   0.20269   0.55690   0.00000  Uiso   1.00
H357   H     0.13685   0.55397   0.47864   0.00000  Uiso   1.00
H358   H     0.13427   0.81752   0.58726   0.00000  Uiso   1.00
H359   H     0.57479   0.22875   0.59651   0.00000  Uiso   1.00
O360   O     0.22529   0.71181   0.52977   0.00000  Uiso   1.00
O361   O     0.22189   0.74560   0.67228   0.00000  Uiso   1.00
O362   O     0.48786   0.28513   0.68441   0.00000  Uiso   1.00
N363   N     0.17026   0.60395   0.59842   0.00000  Uiso   1.00
N364   N     0.16787   0.91541   0.69997   0.00000  Uiso   1.00
N365   N     0.64480   0.29985   0.70862   0.00000  Uiso   1.00
N366   N     0.13830   0.55288   0.51805   0.00000  Uiso   1.00
N367   N     0.13590   0.86434   0.61960   0.00000  Uiso   1.00
N368   N     0.61283   0.24878   0.62825   0.00000  Uiso   1.00
