data_job_05971
_audit_creation_date              2018-12-19
_audit_creation_method            'Materials Studio'
_symmetry_space_group_name_H-M    'P1'
_symmetry_Int_Tables_number       1
_symmetry_cell_setting            triclinic
loop_
_symmetry_equiv_pos_as_xyz
  x,y,z
_cell_length_a                    12.4586
_cell_length_b                    18.8803
_cell_length_c                    19.2613
_cell_angle_alpha                 115.4720
_cell_angle_beta                  76.4489
_cell_angle_gamma                 79.8712
loop_
_atom_site_label
_atom_site_type_symbol
_atom_site_fract_x
_atom_site_fract_y
_atom_site_fract_z
_atom_site_U_iso_or_equiv
_atom_site_adp_type
_atom_site_occupancy
C1     C     0.40910   0.32679   0.85799   0.00000  Uiso   1.00
C2     C     0.50729   0.26094   0.85180   0.00000  Uiso   1.00
C3     C     0.57827   0.27527   0.89887   0.00000  Uiso   1.00
C4     C     0.66312   0.20677   0.88384   0.00000  Uiso   1.00
C5     C     0.81361   0.11669   0.88332   0.00000  Uiso   1.00
C6     C     0.43670   0.31701   0.77232   0.00000  Uiso   1.00
C7     C     0.44832   0.37849   0.75256   0.00000  Uiso   1.00
C8     C     0.47374   0.35719   0.67062   0.00000  Uiso   1.00
C9     C     0.51455   0.35418   0.54671   0.00000  Uiso   1.00
C10    C     0.30007   0.30159   0.87422   0.00000  Uiso   1.00
C11    C     0.19679   0.35010   0.94013   0.00000  Uiso   1.00
C12    C     0.10716   0.31583   0.94398   0.00000  Uiso   1.00
C13    C     0.93584   0.28886   0.97828   0.00000  Uiso   1.00
C14    C     0.43356   0.17967   0.74762   0.00000  Uiso   1.00
C15    C     0.52058   0.18103   0.79185   0.00000  Uiso   1.00
C16    C     0.60534   0.11249   0.77675   0.00000  Uiso   1.00
C17    C     0.67643   0.12671   0.82379   0.00000  Uiso   1.00
C18    C     0.44999   0.23711   0.71236   0.00000  Uiso   1.00
C19    C     0.47539   0.21571   0.63044   0.00000  Uiso   1.00
C20    C     0.48705   0.27714   0.61056   0.00000  Uiso   1.00
C21    C     0.31336   0.22168   0.81427   0.00000  Uiso   1.00
C22    C     0.22387   0.18732   0.81801   0.00000  Uiso   1.00
C23    C     0.12048   0.23577   0.88392   0.00000  Uiso   1.00
H24    H     0.39875   0.38900   0.90466   0.00000  Uiso   1.00
H25    H     0.56797   0.33712   0.94525   0.00000  Uiso   1.00
H26    H     0.43802   0.44033   0.79897   0.00000  Uiso   1.00
H27    H     0.18654   0.41194   0.98651   0.00000  Uiso   1.00
H28    H     0.76146   0.24436   0.96379   0.00000  Uiso   1.00
H29    H     0.48743   0.46198   0.65535   0.00000  Uiso   1.00
H30    H     0.95713   0.40213   0.05081   0.00000  Uiso   1.00
H31    H     0.44391   0.11745   0.70094   0.00000  Uiso   1.00
H32    H     0.61560   0.05066   0.73035   0.00000  Uiso   1.00
H33    H     0.48566   0.15387   0.58407   0.00000  Uiso   1.00
H34    H     0.23418   0.12548   0.77161   0.00000  Uiso   1.00
H35    H     0.80013   0.01186   0.78937   0.00000  Uiso   1.00
H36    H     0.52609   0.22948   0.48092   0.00000  Uiso   1.00
H37    H     0.99579   0.16962   0.87639   0.00000  Uiso   1.00
O38    O     0.89295   0.08908   0.89958   0.00000  Uiso   1.00
O39    O     0.53340   0.37459   0.49492   0.00000  Uiso   1.00
O40    O     0.83767   0.29606   0.01377   0.00000  Uiso   1.00
N41    N     0.74698   0.19881   0.91872   0.00000  Uiso   1.00
N42    N     0.49080   0.40226   0.63034   0.00000  Uiso   1.00
N43    N     0.99500   0.34631   0.00005   0.00000  Uiso   1.00
N44    N     0.76779   0.07370   0.82486   0.00000  Uiso   1.00
N45    N     0.51160   0.27716   0.53648   0.00000  Uiso   1.00
N46    N     0.01580   0.22121   0.90620   0.00000  Uiso   1.00
C47    C     0.26651   0.14228   0.46566   0.00000  Uiso   1.00
C48    C     0.36081   0.15058   0.40565   0.00000  Uiso   1.00
C49    C     0.47797   0.10501   0.37188   0.00000  Uiso   1.00
C50    C     0.55027   0.12186   0.31824   0.00000  Uiso   1.00
C51    C     0.70332   0.12561   0.22799   0.00000  Uiso   1.00
C52    C     0.20935   0.22816   0.54091   0.00000  Uiso   1.00
C53    C     0.19915   0.24780   0.62087   0.00000  Uiso   1.00
C54    C     0.14394   0.32995   0.68109   0.00000  Uiso   1.00
C55    C     0.06177   0.45412   0.80084   0.00000  Uiso   1.00
C56    C     0.17458   0.12416   0.42630   0.00000  Uiso   1.00
C57    C     0.13511   0.05638   0.40992   0.00000  Uiso   1.00
C58    C     0.05059   0.05098   0.37366   0.00000  Uiso   1.00
C59    C     0.91442   0.01369   0.31548   0.00000  Uiso   1.00
C60    C     0.18657   0.25326   0.43044   0.00000  Uiso   1.00
C61    C     0.31739   0.21086   0.38652   0.00000  Uiso   1.00
C62    C     0.38953   0.22779   0.33291   0.00000  Uiso   1.00
C63    C     0.50677   0.18224   0.29907   0.00000  Uiso   1.00
C64    C     0.16593   0.28843   0.52178   0.00000  Uiso   1.00
C65    C     0.11071   0.37058   0.58189   0.00000  Uiso   1.00
C66    C     0.10044   0.39034   0.66192   0.00000  Uiso   1.00
C67    C     0.13115   0.18444   0.40717   0.00000  Uiso   1.00
C68    C     0.04667   0.17915   0.37094   0.00000  Uiso   1.00
C69    C     0.00709   0.11137   0.35450   0.00000  Uiso   1.00
H70    H     0.30031   0.09536   0.48057   0.00000  Uiso   1.00
H71    H     0.51154   0.05837   0.38671   0.00000  Uiso   1.00
H72    H     0.23275   0.20114   0.63566   0.00000  Uiso   1.00
H73    H     0.16873   0.00975   0.42473   0.00000  Uiso   1.00
H74    H     0.72659   0.04397   0.27424   0.00000  Uiso   1.00
H75    H     0.13872   0.34499   0.79916   0.00000  Uiso   1.00
H76    H     0.00370   0.94140   0.35439   0.00000  Uiso   1.00
H77    H     0.15276   0.30019   0.41554   0.00000  Uiso   1.00
H78    H     0.35590   0.27444   0.31811   0.00000  Uiso   1.00
H79    H     0.07712   0.41720   0.56706   0.00000  Uiso   1.00
H80    H     0.01309   0.22581   0.35614   0.00000  Uiso   1.00
H81    H     0.60027   0.21934   0.21857   0.00000  Uiso   1.00
H82    H     0.01239   0.52036   0.74349   0.00000  Uiso   1.00
H83    H     0.87738   0.11677   0.29872   0.00000  Uiso   1.00
O84    O     0.79973   0.11104   0.18351   0.00000  Uiso   1.00
O85    O     0.02845   0.50596   0.87219   0.00000  Uiso   1.00
O86    O     0.85132   0.97646   0.28866   0.00000  Uiso   1.00
N87    N     0.66898   0.08876   0.27450   0.00000  Uiso   1.00
N88    N     0.11937   0.37021   0.76527   0.00000  Uiso   1.00
N89    N     0.99312   0.99289   0.34946   0.00000  Uiso   1.00
N90    N     0.60101   0.18313   0.24454   0.00000  Uiso   1.00
N91    N     0.05140   0.46457   0.73531   0.00000  Uiso   1.00
N92    N     0.92515   0.08725   0.31951   0.00000  Uiso   1.00
C93    C     0.72775   0.53338   0.67648   0.00000  Uiso   1.00
C94    C     0.76208   0.59490   0.74301   0.00000  Uiso   1.00
C95    C     0.84723   0.63093   0.73010   0.00000  Uiso   1.00
C96    C     0.86560   0.68565   0.79901   0.00000  Uiso   1.00
C97    C     0.92877   0.77840   0.89030   0.00000  Uiso   1.00
C98    C     0.74231   0.45702   0.68689   0.00000  Uiso   1.00
C99    C     0.81083   0.37713   0.62679   0.00000  Uiso   1.00
C100   C     0.81254   0.31578   0.64846   0.00000  Uiso   1.00
C101   C     0.84495   0.19447   0.65261   0.00000  Uiso   1.00
C102   C     0.59744   0.57090   0.69915   0.00000  Uiso   1.00
C103   C     0.54414   0.58675   0.64935   0.00000  Uiso   1.00
C104   C     0.42388   0.62126   0.68134   0.00000  Uiso   1.00
C105   C     0.23135   0.67677   0.70451   0.00000  Uiso   1.00
C106   C     0.60894   0.56648   0.82184   0.00000  Uiso   1.00
C107   C     0.69755   0.61287   0.82196   0.00000  Uiso   1.00
C108   C     0.71579   0.66755   0.89092   0.00000  Uiso   1.00
C109   C     0.80095   0.70366   0.87811   0.00000  Uiso   1.00
C110   C     0.67778   0.47499   0.76584   0.00000  Uiso   1.00
C111   C     0.67939   0.41375   0.78761   0.00000  Uiso   1.00
C112   C     0.74789   0.33379   0.72756   0.00000  Uiso   1.00
C113   C     0.53291   0.58889   0.77810   0.00000  Uiso   1.00
C114   C     0.41270   0.62337   0.81017   0.00000  Uiso   1.00
C115   C     0.35923   0.63927   0.76043   0.00000  Uiso   1.00
H116   H     0.77799   0.51938   0.61501   0.00000  Uiso   1.00
H117   H     0.89716   0.61699   0.66899   0.00000  Uiso   1.00
H118   H     0.86075   0.36323   0.56570   0.00000  Uiso   1.00
H119   H     0.59411   0.57282   0.58825   0.00000  Uiso   1.00
H120   H     0.00086   0.73312   0.76364   0.00000  Uiso   1.00
H121   H     0.92405   0.19805   0.54584   0.00000  Uiso   1.00
H122   H     0.36178   0.64001   0.59340   0.00000  Uiso   1.00
H123   H     0.55870   0.58048   0.88330   0.00000  Uiso   1.00
H124   H     0.66584   0.68145   0.95201   0.00000  Uiso   1.00
H125   H     0.62943   0.42769   0.84871   0.00000  Uiso   1.00
H126   H     0.36279   0.63728   0.87127   0.00000  Uiso   1.00
H127   H     0.81312   0.78544   0.99335   0.00000  Uiso   1.00
H128   H     0.73631   0.25036   0.77554   0.00000  Uiso   1.00
H129   H     0.17404   0.69233   0.82311   0.00000  Uiso   1.00
O130   O     0.98145   0.82458   0.91885   0.00000  Uiso   1.00
O131   O     0.88067   0.12258   0.63309   0.00000  Uiso   1.00
O132   O     0.14299   0.70243   0.69549   0.00000  Uiso   1.00
N133   N     0.94195   0.73159   0.80828   0.00000  Uiso   1.00
N134   N     0.87016   0.23133   0.60465   0.00000  Uiso   1.00
N135   N     0.34448   0.64451   0.64911   0.00000  Uiso   1.00
N136   N     0.84093   0.75974   0.93188   0.00000  Uiso   1.00
N137   N     0.76914   0.25948   0.72825   0.00000  Uiso   1.00
N138   N     0.24346   0.67266   0.77271   0.00000  Uiso   1.00
C139   C     0.59090   0.67321   0.14201   0.00000  Uiso   1.00
C140   C     0.49271   0.73906   0.14820   0.00000  Uiso   1.00
C141   C     0.42173   0.72473   0.10113   0.00000  Uiso   1.00
C142   C     0.33688   0.79323   0.11616   0.00000  Uiso   1.00
C143   C     0.18639   0.88331   0.11668   0.00000  Uiso   1.00
C144   C     0.56330   0.68299   0.22768   0.00000  Uiso   1.00
C145   C     0.55168   0.62151   0.24744   0.00000  Uiso   1.00
C146   C     0.52626   0.64281   0.32938   0.00000  Uiso   1.00
C147   C     0.48545   0.64582   0.45329   0.00000  Uiso   1.00
C148   C     0.69993   0.69841   0.12578   0.00000  Uiso   1.00
C149   C     0.80321   0.64990   0.05987   0.00000  Uiso   1.00
C150   C     0.89284   0.68417   0.05602   0.00000  Uiso   1.00
C151   C     0.06416   0.71114   0.02172   0.00000  Uiso   1.00
C152   C     0.56644   0.82033   0.25238   0.00000  Uiso   1.00
C153   C     0.47942   0.81897   0.20815   0.00000  Uiso   1.00
C154   C     0.39466   0.88751   0.22325   0.00000  Uiso   1.00
C155   C     0.32357   0.87328   0.17621   0.00000  Uiso   1.00
C156   C     0.55001   0.76289   0.28763   0.00000  Uiso   1.00
C157   C     0.52461   0.78429   0.36956   0.00000  Uiso   1.00
C158   C     0.51295   0.72286   0.38944   0.00000  Uiso   1.00
C159   C     0.68664   0.77832   0.18573   0.00000  Uiso   1.00
C160   C     0.77613   0.81268   0.18199   0.00000  Uiso   1.00
C161   C     0.87952   0.76423   0.11608   0.00000  Uiso   1.00
H162   H     0.60125   0.61099   0.09534   0.00000  Uiso   1.00
H163   H     0.43203   0.66288   0.05475   0.00000  Uiso   1.00
H164   H     0.56198   0.55967   0.20103   0.00000  Uiso   1.00
H165   H     0.81346   0.58806   0.01349   0.00000  Uiso   1.00
H166   H     0.23854   0.75564   0.03621   0.00000  Uiso   1.00
H167   H     0.51257   0.53802   0.34465   0.00000  Uiso   1.00
H168   H     0.04287   0.59787   0.94919   0.00000  Uiso   1.00
H169   H     0.55609   0.88255   0.29906   0.00000  Uiso   1.00
H170   H     0.38440   0.94934   0.26965   0.00000  Uiso   1.00
H171   H     0.51434   0.84613   0.41593   0.00000  Uiso   1.00
H172   H     0.76582   0.87452   0.22839   0.00000  Uiso   1.00
H173   H     0.19987   0.98814   0.21063   0.00000  Uiso   1.00
H174   H     0.47391   0.77052   0.51908   0.00000  Uiso   1.00
H175   H     0.00421   0.83038   0.12361   0.00000  Uiso   1.00
O176   O     0.10705   0.91092   0.10042   0.00000  Uiso   1.00
O177   O     0.46660   0.62541   0.50508   0.00000  Uiso   1.00
O178   O     0.16233   0.70394   0.98623   0.00000  Uiso   1.00
N179   N     0.25302   0.80119   0.08128   0.00000  Uiso   1.00
N180   N     0.50920   0.59774   0.36966   0.00000  Uiso   1.00
N181   N     0.00500   0.65369   0.99995   0.00000  Uiso   1.00
N182   N     0.23221   0.92630   0.17514   0.00000  Uiso   1.00
N183   N     0.48840   0.72284   0.46352   0.00000  Uiso   1.00
N184   N     0.98420   0.77879   0.09380   0.00000  Uiso   1.00
C185   C     0.73349   0.85772   0.53434   0.00000  Uiso   1.00
C186   C     0.63919   0.84941   0.59435   0.00000  Uiso   1.00
C187   C     0.52203   0.89499   0.62812   0.00000  Uiso   1.00
C188   C     0.44973   0.87814   0.68176   0.00000  Uiso   1.00
C189   C     0.29668   0.87439   0.77201   0.00000  Uiso   1.00
C190   C     0.79065   0.77184   0.45909   0.00000  Uiso   1.00
C191   C     0.80085   0.75220   0.37913   0.00000  Uiso   1.00
C192   C     0.85606   0.67005   0.31891   0.00000  Uiso   1.00
C193   C     0.93823   0.54588   0.19916   0.00000  Uiso   1.00
C194   C     0.82542   0.87584   0.57370   0.00000  Uiso   1.00
C195   C     0.86489   0.94362   0.59008   0.00000  Uiso   1.00
C196   C     0.94941   0.94902   0.62634   0.00000  Uiso   1.00
C197   C     0.08558   0.98631   0.68452   0.00000  Uiso   1.00
C198   C     0.81343   0.74674   0.56956   0.00000  Uiso   1.00
C199   C     0.68261   0.78914   0.61348   0.00000  Uiso   1.00
C200   C     0.61047   0.77221   0.66709   0.00000  Uiso   1.00
C201   C     0.49323   0.81776   0.70093   0.00000  Uiso   1.00
C202   C     0.83407   0.71157   0.47822   0.00000  Uiso   1.00
C203   C     0.88929   0.62942   0.41811   0.00000  Uiso   1.00
C204   C     0.89956   0.60966   0.33808   0.00000  Uiso   1.00
C205   C     0.86885   0.81556   0.59283   0.00000  Uiso   1.00
C206   C     0.95333   0.82085   0.62906   0.00000  Uiso   1.00
C207   C     0.99291   0.88863   0.64550   0.00000  Uiso   1.00
H208   H     0.69969   0.90464   0.51943   0.00000  Uiso   1.00
H209   H     0.48846   0.94163   0.61329   0.00000  Uiso   1.00
H210   H     0.76725   0.79886   0.36434   0.00000  Uiso   1.00
H211   H     0.83127   0.99025   0.57527   0.00000  Uiso   1.00
H212   H     0.27341   0.95603   0.72576   0.00000  Uiso   1.00
H213   H     0.86128   0.65501   0.20084   0.00000  Uiso   1.00
H214   H     0.99630   0.05860   0.64561   0.00000  Uiso   1.00
H215   H     0.84724   0.69981   0.58446   0.00000  Uiso   1.00
H216   H     0.64410   0.72556   0.68189   0.00000  Uiso   1.00
H217   H     0.92288   0.58280   0.43294   0.00000  Uiso   1.00
H218   H     0.98691   0.77419   0.64386   0.00000  Uiso   1.00
H219   H     0.39973   0.78066   0.78143   0.00000  Uiso   1.00
H220   H     0.98761   0.47964   0.25651   0.00000  Uiso   1.00
H221   H     0.12262   0.88323   0.70128   0.00000  Uiso   1.00
O222   O     0.20027   0.88896   0.81649   0.00000  Uiso   1.00
O223   O     0.97155   0.49404   0.12781   0.00000  Uiso   1.00
O224   O     0.14868   0.02354   0.71134   0.00000  Uiso   1.00
N225   N     0.33102   0.91124   0.72550   0.00000  Uiso   1.00
N226   N     0.88063   0.62979   0.23473   0.00000  Uiso   1.00
N227   N     0.00688   0.00711   0.65054   0.00000  Uiso   1.00
N228   N     0.39899   0.81687   0.75546   0.00000  Uiso   1.00
N229   N     0.94860   0.53543   0.26469   0.00000  Uiso   1.00
N230   N     0.07485   0.91274   0.68049   0.00000  Uiso   1.00
C231   C     0.27225   0.46662   0.32352   0.00000  Uiso   1.00
C232   C     0.23792   0.40510   0.25699   0.00000  Uiso   1.00
C233   C     0.15277   0.36907   0.26990   0.00000  Uiso   1.00
C234   C     0.13440   0.31435   0.20099   0.00000  Uiso   1.00
C235   C     0.07123   0.22160   0.10970   0.00000  Uiso   1.00
C236   C     0.25769   0.54298   0.31311   0.00000  Uiso   1.00
C237   C     0.18917   0.62287   0.37321   0.00000  Uiso   1.00
C238   C     0.18746   0.68422   0.35154   0.00000  Uiso   1.00
C239   C     0.15505   0.80553   0.34739   0.00000  Uiso   1.00
C240   C     0.40256   0.42910   0.30085   0.00000  Uiso   1.00
C241   C     0.45586   0.41325   0.35065   0.00000  Uiso   1.00
C242   C     0.57613   0.37874   0.31866   0.00000  Uiso   1.00
C243   C     0.76865   0.32323   0.29549   0.00000  Uiso   1.00
C244   C     0.39106   0.43352   0.17816   0.00000  Uiso   1.00
C245   C     0.30245   0.38713   0.17804   0.00000  Uiso   1.00
C246   C     0.28421   0.33245   0.10908   0.00000  Uiso   1.00
C247   C     0.19905   0.29634   0.12189   0.00000  Uiso   1.00
C248   C     0.32222   0.52501   0.23416   0.00000  Uiso   1.00
C249   C     0.32061   0.58625   0.21239   0.00000  Uiso   1.00
C250   C     0.25211   0.66621   0.27244   0.00000  Uiso   1.00
C251   C     0.46709   0.41111   0.22190   0.00000  Uiso   1.00
C252   C     0.58730   0.37663   0.18983   0.00000  Uiso   1.00
C253   C     0.64077   0.36073   0.23957   0.00000  Uiso   1.00
H254   H     0.22201   0.48062   0.38499   0.00000  Uiso   1.00
H255   H     0.10284   0.38301   0.33101   0.00000  Uiso   1.00
H256   H     0.13925   0.63677   0.43430   0.00000  Uiso   1.00
H257   H     0.40589   0.42718   0.41175   0.00000  Uiso   1.00
H258   H     0.99914   0.26688   0.23636   0.00000  Uiso   1.00
H259   H     0.07595   0.80195   0.45416   0.00000  Uiso   1.00
H260   H     0.63822   0.35999   0.40660   0.00000  Uiso   1.00
H261   H     0.44130   0.41952   0.11670   0.00000  Uiso   1.00
H262   H     0.33416   0.31855   0.04799   0.00000  Uiso   1.00
H263   H     0.37057   0.57231   0.15129   0.00000  Uiso   1.00
H264   H     0.63721   0.36272   0.12873   0.00000  Uiso   1.00
H265   H     0.18688   0.21456   0.00665   0.00000  Uiso   1.00
H266   H     0.26369   0.74964   0.22446   0.00000  Uiso   1.00
H267   H     0.82596   0.30767   0.17689   0.00000  Uiso   1.00
O268   O     0.01855   0.17542   0.08115   0.00000  Uiso   1.00
O269   O     0.11933   0.87742   0.36691   0.00000  Uiso   1.00
O270   O     0.85701   0.29757   0.30451   0.00000  Uiso   1.00
N271   N     0.05805   0.26841   0.19172   0.00000  Uiso   1.00
N272   N     0.12984   0.76867   0.39535   0.00000  Uiso   1.00
N273   N     0.65552   0.35549   0.35089   0.00000  Uiso   1.00
N274   N     0.15907   0.24026   0.06812   0.00000  Uiso   1.00
N275   N     0.23086   0.74052   0.27175   0.00000  Uiso   1.00
N276   N     0.75654   0.32734   0.22729   0.00000  Uiso   1.00
