data_job_03582
_audit_creation_date              2018-12-19
_audit_creation_method            'Materials Studio'
_symmetry_space_group_name_H-M    'P1'
_symmetry_Int_Tables_number       1
_symmetry_cell_setting            triclinic
loop_
_symmetry_equiv_pos_as_xyz
  x,y,z
_cell_length_a                    9.6803
_cell_length_b                    17.6489
_cell_length_c                    13.6588
_cell_angle_alpha                 78.6319
_cell_angle_beta                  81.4917
_cell_angle_gamma                 86.2576
loop_
_atom_site_label
_atom_site_type_symbol
_atom_site_fract_x
_atom_site_fract_y
_atom_site_fract_z
_atom_site_U_iso_or_equiv
_atom_site_adp_type
_atom_site_occupancy
C1     C     0.37606   0.25832   0.72582   0.00000  Uiso   1.00
C2     C     0.29940   0.20326   0.68129   0.00000  Uiso   1.00
C3     C     0.27803   0.12579   0.72218   0.00000  Uiso   1.00
C4     C     0.20544   0.08528   0.67000   0.00000  Uiso   1.00
C5     C     0.09397   0.99435   0.61450   0.00000  Uiso   1.00
C6     C     0.49289   0.29074   0.64349   0.00000  Uiso   1.00
C7     C     0.63420   0.28682   0.65261   0.00000  Uiso   1.00
C8     C     0.72449   0.31996   0.56861   0.00000  Uiso   1.00
C9     C     0.91341   0.36488   0.45446   0.00000  Uiso   1.00
C10    C     0.27360   0.32606   0.73932   0.00000  Uiso   1.00
C11    C     0.23055   0.35186   0.82902   0.00000  Uiso   1.00
C12    C     0.13623   0.41475   0.82570   0.00000  Uiso   1.00
C13    C     0.98468   0.51452   0.86034   0.00000  Uiso   1.00
C14    C     0.28515   0.32414   0.56043   0.00000  Uiso   1.00
C15    C     0.25003   0.23902   0.59145   0.00000  Uiso   1.00
C16    C     0.17744   0.19862   0.53920   0.00000  Uiso   1.00
C17    C     0.15596   0.12110   0.58001   0.00000  Uiso   1.00
C18    C     0.44352   0.32649   0.55366   0.00000  Uiso   1.00
C19    C     0.53361   0.35964   0.46963   0.00000  Uiso   1.00
C20    C     0.67502   0.35578   0.47862   0.00000  Uiso   1.00
C21    C     0.22422   0.36181   0.64949   0.00000  Uiso   1.00
C22    C     0.12996   0.42468   0.64603   0.00000  Uiso   1.00
C23    C     0.08677   0.45057   0.73570   0.00000  Uiso   1.00
H24    H     0.41451   0.23049   0.79575   0.00000  Uiso   1.00
H25    H     0.31627   0.09814   0.79170   0.00000  Uiso   1.00
H26    H     0.67238   0.25916   0.72214   0.00000  Uiso   1.00
H27    H     0.26879   0.32418   0.89852   0.00000  Uiso   1.00
H28    H     0.18561   0.96718   0.74757   0.00000  Uiso   1.00
H29    H     0.93649   0.30670   0.60092   0.00000  Uiso   1.00
H30    H     0.08544   0.44383   0.97285   0.00000  Uiso   1.00
H31    H     0.24670   0.35198   0.49048   0.00000  Uiso   1.00
H32    H     0.13924   0.22630   0.46968   0.00000  Uiso   1.00
H33    H     0.49536   0.38731   0.40013   0.00000  Uiso   1.00
H34    H     0.09177   0.45234   0.57650   0.00000  Uiso   1.00
H35    H     0.04194   0.07119   0.48620   0.00000  Uiso   1.00
H36    H     0.79282   0.41072   0.33956   0.00000  Uiso   1.00
H37    H     0.94176   0.54784   0.71148   0.00000  Uiso   1.00
O38    O     0.04615   0.93431   0.60869   0.00000  Uiso   1.00
O39    O     0.03127   0.37977   0.41630   0.00000  Uiso   1.00
O40    O     0.91471   0.55967   0.90426   0.00000  Uiso   1.00
N41    N     0.16652   0.00891   0.68892   0.00000  Uiso   1.00
N42    N     0.86855   0.32633   0.55181   0.00000  Uiso   1.00
N43    N     0.07292   0.45455   0.89952   0.00000  Uiso   1.00
N44    N     0.08921   0.06488   0.54828   0.00000  Uiso   1.00
N45    N     0.79124   0.38230   0.41117   0.00000  Uiso   1.00
N46    N     0.99561   0.51052   0.75889   0.00000  Uiso   1.00
C47    C     0.62394   0.74168   0.27418   0.00000  Uiso   1.00
C48    C     0.70060   0.79674   0.31871   0.00000  Uiso   1.00
C49    C     0.72197   0.87421   0.27782   0.00000  Uiso   1.00
C50    C     0.79456   0.91472   0.33000   0.00000  Uiso   1.00
C51    C     0.90603   0.00565   0.38550   0.00000  Uiso   1.00
C52    C     0.50711   0.70926   0.35651   0.00000  Uiso   1.00
C53    C     0.36580   0.71318   0.34739   0.00000  Uiso   1.00
C54    C     0.27551   0.68004   0.43139   0.00000  Uiso   1.00
C55    C     0.08659   0.63512   0.54554   0.00000  Uiso   1.00
C56    C     0.72640   0.67394   0.26068   0.00000  Uiso   1.00
C57    C     0.76945   0.64814   0.17098   0.00000  Uiso   1.00
C58    C     0.86377   0.58525   0.17430   0.00000  Uiso   1.00
C59    C     0.01532   0.48548   0.13966   0.00000  Uiso   1.00
C60    C     0.71485   0.67586   0.43957   0.00000  Uiso   1.00
C61    C     0.74997   0.76098   0.40855   0.00000  Uiso   1.00
C62    C     0.82256   0.80138   0.46080   0.00000  Uiso   1.00
C63    C     0.84404   0.87890   0.41999   0.00000  Uiso   1.00
C64    C     0.55648   0.67351   0.44634   0.00000  Uiso   1.00
C65    C     0.46639   0.64036   0.53037   0.00000  Uiso   1.00
C66    C     0.32498   0.64422   0.52138   0.00000  Uiso   1.00
C67    C     0.77578   0.63819   0.35051   0.00000  Uiso   1.00
C68    C     0.87004   0.57532   0.35397   0.00000  Uiso   1.00
C69    C     0.91323   0.54943   0.26430   0.00000  Uiso   1.00
H70    H     0.58549   0.76951   0.20425   0.00000  Uiso   1.00
H71    H     0.68373   0.90186   0.20830   0.00000  Uiso   1.00
H72    H     0.32762   0.74084   0.27786   0.00000  Uiso   1.00
H73    H     0.73121   0.67582   0.10148   0.00000  Uiso   1.00
H74    H     0.81439   0.03282   0.25243   0.00000  Uiso   1.00
H75    H     0.06351   0.69330   0.39908   0.00000  Uiso   1.00
H76    H     0.91456   0.55617   0.02715   0.00000  Uiso   1.00
H77    H     0.75330   0.64802   0.50952   0.00000  Uiso   1.00
H78    H     0.86076   0.77370   0.53032   0.00000  Uiso   1.00
H79    H     0.50464   0.61269   0.59987   0.00000  Uiso   1.00
H80    H     0.90823   0.54766   0.42350   0.00000  Uiso   1.00
H81    H     0.95806   0.92881   0.51380   0.00000  Uiso   1.00
H82    H     0.20718   0.58928   0.66044   0.00000  Uiso   1.00
H83    H     0.05824   0.45216   0.28852   0.00000  Uiso   1.00
O84    O     0.95385   0.06569   0.39131   0.00000  Uiso   1.00
O85    O     0.96873   0.62023   0.58370   0.00000  Uiso   1.00
O86    O     0.08529   0.44033   0.09574   0.00000  Uiso   1.00
N87    N     0.83348   0.99109   0.31108   0.00000  Uiso   1.00
N88    N     0.13145   0.67367   0.44819   0.00000  Uiso   1.00
N89    N     0.92708   0.54545   0.10048   0.00000  Uiso   1.00
N90    N     0.91079   0.93512   0.45172   0.00000  Uiso   1.00
N91    N     0.20876   0.61770   0.58883   0.00000  Uiso   1.00
N92    N     0.00439   0.48948   0.24111   0.00000  Uiso   1.00
