data_job_02573
_audit_creation_date              2018-12-19
_audit_creation_method            'Materials Studio'
_symmetry_space_group_name_H-M    'P1'
_symmetry_Int_Tables_number       1
_symmetry_cell_setting            triclinic
loop_
_symmetry_equiv_pos_as_xyz
  x,y,z
_cell_length_a                    17.2727
_cell_length_b                    17.2727
_cell_length_c                    15.4054
_cell_angle_alpha                 90.0000
_cell_angle_beta                  90.0000
_cell_angle_gamma                 120.0000
loop_
_atom_site_label
_atom_site_type_symbol
_atom_site_fract_x
_atom_site_fract_y
_atom_site_fract_z
_atom_site_U_iso_or_equiv
_atom_site_adp_type
_atom_site_occupancy
C1     C     0.84048   0.23525   0.93624   0.00000  Uiso   1.00
C2     C     0.81579   0.21147   0.03142   0.00000  Uiso   1.00
C3     C     0.86926   0.25679   0.10202   0.00000  Uiso   1.00
C4     C     0.83457   0.22451   0.18392   0.00000  Uiso   1.00
C5     C     0.80919   0.19895   0.33006   0.00000  Uiso   1.00
C6     C     0.83166   0.15151   0.89366   0.00000  Uiso   1.00
C7     C     0.89847   0.14643   0.84843   0.00000  Uiso   1.00
C8     C     0.87712   0.06367   0.81435   0.00000  Uiso   1.00
C9     C     0.87636   0.94503   0.74657   0.00000  Uiso   1.00
C10    C     0.76662   0.24825   0.89727   0.00000  Uiso   1.00
C11    C     0.77874   0.32451   0.85505   0.00000  Uiso   1.00
C12    C     0.70263   0.32320   0.82399   0.00000  Uiso   1.00
C13    C     0.60089   0.35478   0.76182   0.00000  Uiso   1.00
C14    C     0.68378   0.09732   0.95613   0.00000  Uiso   1.00
C15    C     0.73068   0.13655   0.04222   0.00000  Uiso   1.00
C16    C     0.69589   0.10419   0.12403   0.00000  Uiso   1.00
C17    C     0.74930   0.14946   0.19475   0.00000  Uiso   1.00
C18    C     0.74655   0.07659   0.90447   0.00000  Uiso   1.00
C19    C     0.72509   0.99382   0.87044   0.00000  Uiso   1.00
C20    C     0.79185   0.98862   0.82517   0.00000  Uiso   1.00
C21    C     0.68150   0.17334   0.90808   0.00000  Uiso   1.00
C22    C     0.60536   0.17191   0.87707   0.00000  Uiso   1.00
C23    C     0.61736   0.24815   0.83482   0.00000  Uiso   1.00
H24    H     0.90675   0.29358   0.92783   0.00000  Uiso   1.00
H25    H     0.93513   0.31477   0.09364   0.00000  Uiso   1.00
H26    H     0.96432   0.20442   0.84007   0.00000  Uiso   1.00
H27    H     0.84461   0.38247   0.84670   0.00000  Uiso   1.00
H28    H     0.92907   0.30520   0.28223   0.00000  Uiso   1.00
H29    H     0.99062   0.07253   0.74756   0.00000  Uiso   1.00
H30    H     0.73819   0.44800   0.76153   0.00000  Uiso   1.00
H31    H     0.61751   0.03899   0.96454   0.00000  Uiso   1.00
H32    H     0.63002   0.04621   0.13237   0.00000  Uiso   1.00
H33    H     0.65921   0.93586   0.87881   0.00000  Uiso   1.00
H34    H     0.53950   0.11392   0.88544   0.00000  Uiso   1.00
H35    H     0.68143   0.08723   0.31367   0.00000  Uiso   1.00
H36    H     0.74298   0.85456   0.77899   0.00000  Uiso   1.00
H37    H     0.49055   0.23003   0.79297   0.00000  Uiso   1.00
O38    O     0.81871   0.20554   0.40769   0.00000  Uiso   1.00
O39    O     0.89946   0.90029   0.70620   0.00000  Uiso   1.00
O40    O     0.56827   0.39290   0.72455   0.00000  Uiso   1.00
N41    N     0.86907   0.25292   0.26660   0.00000  Uiso   1.00
N42    N     0.92662   0.03538   0.76672   0.00000  Uiso   1.00
N43    N     0.69062   0.38641   0.77977   0.00000  Uiso   1.00
N44    N     0.73581   0.13563   0.28352   0.00000  Uiso   1.00
N45    N     0.79336   0.91810   0.78364   0.00000  Uiso   1.00
N46    N     0.55736   0.26912   0.79668   0.00000  Uiso   1.00
C47    C     0.76475   0.60523   0.60291   0.00000  Uiso   1.00
C48    C     0.78853   0.60432   0.69809   0.00000  Uiso   1.00
C49    C     0.74321   0.61247   0.76869   0.00000  Uiso   1.00
C50    C     0.77549   0.61005   0.85059   0.00000  Uiso   1.00
C51    C     0.80105   0.61024   0.99673   0.00000  Uiso   1.00
C52    C     0.84849   0.68015   0.56033   0.00000  Uiso   1.00
C53    C     0.85357   0.75204   0.51510   0.00000  Uiso   1.00
C54    C     0.93633   0.81345   0.48102   0.00000  Uiso   1.00
C55    C     0.05497   0.93132   0.41323   0.00000  Uiso   1.00
C56    C     0.75175   0.51836   0.56394   0.00000  Uiso   1.00
C57    C     0.67549   0.45423   0.52172   0.00000  Uiso   1.00
C58    C     0.67680   0.37943   0.49066   0.00000  Uiso   1.00
C59    C     0.64522   0.24610   0.42848   0.00000  Uiso   1.00
C60    C     0.90268   0.58646   0.62280   0.00000  Uiso   1.00
C61    C     0.86345   0.59413   0.70889   0.00000  Uiso   1.00
C62    C     0.89581   0.59170   0.79070   0.00000  Uiso   1.00
C63    C     0.85054   0.59983   0.86141   0.00000  Uiso   1.00
C64    C     0.92341   0.66996   0.57113   0.00000  Uiso   1.00
C65    C     0.00618   0.73127   0.53711   0.00000  Uiso   1.00
C66    C     0.01138   0.80323   0.49184   0.00000  Uiso   1.00
C67    C     0.82666   0.50816   0.57474   0.00000  Uiso   1.00
C68    C     0.82809   0.43345   0.54373   0.00000  Uiso   1.00
C69    C     0.75185   0.36921   0.50148   0.00000  Uiso   1.00
H70    H     0.70642   0.61317   0.59449   0.00000  Uiso   1.00
H71    H     0.68523   0.62037   0.76030   0.00000  Uiso   1.00
H72    H     0.79558   0.75991   0.50674   0.00000  Uiso   1.00
H73    H     0.61753   0.46214   0.51337   0.00000  Uiso   1.00
H74    H     0.69480   0.62387   0.94890   0.00000  Uiso   1.00
H75    H     0.92747   0.91809   0.41422   0.00000  Uiso   1.00
H76    H     0.55200   0.29019   0.42820   0.00000  Uiso   1.00
H77    H     0.96101   0.57852   0.63121   0.00000  Uiso   1.00
H78    H     0.95379   0.58380   0.79904   0.00000  Uiso   1.00
H79    H     0.06414   0.72335   0.54548   0.00000  Uiso   1.00
H80    H     0.88608   0.42558   0.55211   0.00000  Uiso   1.00
H81    H     0.91277   0.59421   0.98034   0.00000  Uiso   1.00
H82    H     0.14544   0.88842   0.44566   0.00000  Uiso   1.00
H83    H     0.76997   0.26052   0.45964   0.00000  Uiso   1.00
O84    O     0.79446   0.61317   0.07436   0.00000  Uiso   1.00
O85    O     0.09971   0.99916   0.37287   0.00000  Uiso   1.00
O86    O     0.60710   0.17537   0.39121   0.00000  Uiso   1.00
N87    N     0.74708   0.61615   0.93326   0.00000  Uiso   1.00
N88    N     0.96462   0.89123   0.43339   0.00000  Uiso   1.00
N89    N     0.61359   0.30421   0.44643   0.00000  Uiso   1.00
N90    N     0.86437   0.60018   0.95018   0.00000  Uiso   1.00
N91    N     0.08190   0.87527   0.45031   0.00000  Uiso   1.00
N92    N     0.73088   0.28824   0.46335   0.00000  Uiso   1.00
C93    C     0.39477   0.15952   0.26958   0.00000  Uiso   1.00
C94    C     0.39568   0.18421   0.36475   0.00000  Uiso   1.00
C95    C     0.38753   0.13074   0.43536   0.00000  Uiso   1.00
C96    C     0.38995   0.16543   0.51725   0.00000  Uiso   1.00
C97    C     0.38976   0.19081   0.66340   0.00000  Uiso   1.00
C98    C     0.31985   0.16834   0.22700   0.00000  Uiso   1.00
C99    C     0.24796   0.10153   0.18176   0.00000  Uiso   1.00
C100   C     0.18655   0.12288   0.14768   0.00000  Uiso   1.00
C101   C     0.06868   0.12364   0.07990   0.00000  Uiso   1.00
C102   C     0.48164   0.23338   0.23061   0.00000  Uiso   1.00
C103   C     0.54577   0.22126   0.18839   0.00000  Uiso   1.00
C104   C     0.62057   0.29737   0.15733   0.00000  Uiso   1.00
C105   C     0.75390   0.39911   0.09515   0.00000  Uiso   1.00
C106   C     0.41354   0.31622   0.28947   0.00000  Uiso   1.00
C107   C     0.40587   0.26932   0.37556   0.00000  Uiso   1.00
C108   C     0.40830   0.30411   0.45737   0.00000  Uiso   1.00
C109   C     0.40017   0.25070   0.52808   0.00000  Uiso   1.00
C110   C     0.33004   0.25345   0.23780   0.00000  Uiso   1.00
C111   C     0.26873   0.27491   0.20377   0.00000  Uiso   1.00
C112   C     0.19677   0.20815   0.15851   0.00000  Uiso   1.00
C113   C     0.49184   0.31850   0.24141   0.00000  Uiso   1.00
C114   C     0.56655   0.39464   0.21040   0.00000  Uiso   1.00
C115   C     0.63079   0.38264   0.16815   0.00000  Uiso   1.00
H116   H     0.38683   0.09325   0.26116   0.00000  Uiso   1.00
H117   H     0.37963   0.06487   0.42697   0.00000  Uiso   1.00
H118   H     0.24009   0.03568   0.17341   0.00000  Uiso   1.00
H119   H     0.53786   0.15539   0.18004   0.00000  Uiso   1.00
H120   H     0.37613   0.07093   0.61556   0.00000  Uiso   1.00
H121   H     0.08191   0.00938   0.08089   0.00000  Uiso   1.00
H122   H     0.70981   0.26181   0.09486   0.00000  Uiso   1.00
H123   H     0.42148   0.38249   0.29788   0.00000  Uiso   1.00
H124   H     0.41620   0.36998   0.46571   0.00000  Uiso   1.00
H125   H     0.27665   0.34079   0.21214   0.00000  Uiso   1.00
H126   H     0.57442   0.46050   0.21877   0.00000  Uiso   1.00
H127   H     0.40579   0.31857   0.64700   0.00000  Uiso   1.00
H128   H     0.11158   0.25702   0.11232   0.00000  Uiso   1.00
H129   H     0.73948   0.50945   0.12631   0.00000  Uiso   1.00
O130   O     0.38683   0.18129   0.74102   0.00000  Uiso   1.00
O131   O     0.00084   0.10054   0.03954   0.00000  Uiso   1.00
O132   O     0.82463   0.43173   0.05788   0.00000  Uiso   1.00
N133   N     0.38385   0.13093   0.59993   0.00000  Uiso   1.00
N134   N     0.10877   0.07338   0.10005   0.00000  Uiso   1.00
N135   N     0.69579   0.30938   0.11310   0.00000  Uiso   1.00
N136   N     0.39982   0.26419   0.61685   0.00000  Uiso   1.00
N137   N     0.12473   0.20664   0.11697   0.00000  Uiso   1.00
N138   N     0.71176   0.44264   0.13002   0.00000  Uiso   1.00
C139   C     0.15952   0.76475   0.93624   0.00000  Uiso   1.00
C140   C     0.18421   0.78853   0.03142   0.00000  Uiso   1.00
C141   C     0.13074   0.74321   0.10202   0.00000  Uiso   1.00
C142   C     0.16543   0.77549   0.18392   0.00000  Uiso   1.00
C143   C     0.19081   0.80105   0.33006   0.00000  Uiso   1.00
C144   C     0.16834   0.84849   0.89366   0.00000  Uiso   1.00
C145   C     0.10153   0.85357   0.84843   0.00000  Uiso   1.00
C146   C     0.12288   0.93633   0.81435   0.00000  Uiso   1.00
C147   C     0.12364   0.05497   0.74657   0.00000  Uiso   1.00
C148   C     0.23338   0.75175   0.89727   0.00000  Uiso   1.00
C149   C     0.22126   0.67549   0.85505   0.00000  Uiso   1.00
C150   C     0.29737   0.67680   0.82399   0.00000  Uiso   1.00
C151   C     0.39911   0.64522   0.76182   0.00000  Uiso   1.00
C152   C     0.31622   0.90268   0.95613   0.00000  Uiso   1.00
C153   C     0.26932   0.86345   0.04222   0.00000  Uiso   1.00
C154   C     0.30411   0.89581   0.12403   0.00000  Uiso   1.00
C155   C     0.25070   0.85054   0.19475   0.00000  Uiso   1.00
C156   C     0.25345   0.92341   0.90447   0.00000  Uiso   1.00
C157   C     0.27491   0.00618   0.87044   0.00000  Uiso   1.00
C158   C     0.20815   0.01138   0.82517   0.00000  Uiso   1.00
C159   C     0.31850   0.82666   0.90808   0.00000  Uiso   1.00
C160   C     0.39464   0.82809   0.87707   0.00000  Uiso   1.00
C161   C     0.38264   0.75185   0.83482   0.00000  Uiso   1.00
H162   H     0.09325   0.70642   0.92783   0.00000  Uiso   1.00
H163   H     0.06487   0.68523   0.09364   0.00000  Uiso   1.00
H164   H     0.03568   0.79558   0.84007   0.00000  Uiso   1.00
H165   H     0.15539   0.61753   0.84670   0.00000  Uiso   1.00
H166   H     0.07093   0.69480   0.28223   0.00000  Uiso   1.00
H167   H     0.00938   0.92747   0.74756   0.00000  Uiso   1.00
H168   H     0.26181   0.55200   0.76153   0.00000  Uiso   1.00
H169   H     0.38249   0.96101   0.96454   0.00000  Uiso   1.00
H170   H     0.36998   0.95379   0.13237   0.00000  Uiso   1.00
H171   H     0.34079   0.06414   0.87881   0.00000  Uiso   1.00
H172   H     0.46050   0.88608   0.88544   0.00000  Uiso   1.00
H173   H     0.31857   0.91277   0.31367   0.00000  Uiso   1.00
H174   H     0.25702   0.14544   0.77899   0.00000  Uiso   1.00
H175   H     0.50945   0.76997   0.79297   0.00000  Uiso   1.00
O176   O     0.18129   0.79446   0.40769   0.00000  Uiso   1.00
O177   O     0.10054   0.09971   0.70620   0.00000  Uiso   1.00
O178   O     0.43173   0.60710   0.72455   0.00000  Uiso   1.00
N179   N     0.13093   0.74708   0.26660   0.00000  Uiso   1.00
N180   N     0.07338   0.96462   0.76672   0.00000  Uiso   1.00
N181   N     0.30938   0.61359   0.77977   0.00000  Uiso   1.00
N182   N     0.26419   0.86437   0.28352   0.00000  Uiso   1.00
N183   N     0.20664   0.08190   0.78364   0.00000  Uiso   1.00
N184   N     0.44264   0.73088   0.79668   0.00000  Uiso   1.00
C185   C     0.23525   0.39477   0.60291   0.00000  Uiso   1.00
C186   C     0.21147   0.39568   0.69809   0.00000  Uiso   1.00
C187   C     0.25679   0.38753   0.76869   0.00000  Uiso   1.00
C188   C     0.22451   0.38995   0.85059   0.00000  Uiso   1.00
C189   C     0.19895   0.38976   0.99673   0.00000  Uiso   1.00
C190   C     0.15151   0.31985   0.56033   0.00000  Uiso   1.00
C191   C     0.14643   0.24796   0.51510   0.00000  Uiso   1.00
C192   C     0.06367   0.18655   0.48102   0.00000  Uiso   1.00
C193   C     0.94503   0.06868   0.41323   0.00000  Uiso   1.00
C194   C     0.24825   0.48164   0.56394   0.00000  Uiso   1.00
C195   C     0.32451   0.54577   0.52172   0.00000  Uiso   1.00
C196   C     0.32320   0.62057   0.49066   0.00000  Uiso   1.00
C197   C     0.35478   0.75390   0.42848   0.00000  Uiso   1.00
C198   C     0.09732   0.41354   0.62280   0.00000  Uiso   1.00
C199   C     0.13655   0.40587   0.70889   0.00000  Uiso   1.00
C200   C     0.10419   0.40830   0.79070   0.00000  Uiso   1.00
C201   C     0.14946   0.40017   0.86141   0.00000  Uiso   1.00
C202   C     0.07659   0.33004   0.57113   0.00000  Uiso   1.00
C203   C     0.99382   0.26873   0.53711   0.00000  Uiso   1.00
C204   C     0.98862   0.19677   0.49184   0.00000  Uiso   1.00
C205   C     0.17334   0.49184   0.57474   0.00000  Uiso   1.00
C206   C     0.17191   0.56655   0.54373   0.00000  Uiso   1.00
C207   C     0.24815   0.63079   0.50148   0.00000  Uiso   1.00
H208   H     0.29358   0.38683   0.59449   0.00000  Uiso   1.00
H209   H     0.31477   0.37963   0.76030   0.00000  Uiso   1.00
H210   H     0.20442   0.24009   0.50674   0.00000  Uiso   1.00
H211   H     0.38247   0.53786   0.51337   0.00000  Uiso   1.00
H212   H     0.30520   0.37613   0.94890   0.00000  Uiso   1.00
H213   H     0.07253   0.08191   0.41422   0.00000  Uiso   1.00
H214   H     0.44800   0.70981   0.42820   0.00000  Uiso   1.00
H215   H     0.03899   0.42148   0.63121   0.00000  Uiso   1.00
H216   H     0.04621   0.41620   0.79904   0.00000  Uiso   1.00
H217   H     0.93586   0.27665   0.54548   0.00000  Uiso   1.00
H218   H     0.11392   0.57442   0.55211   0.00000  Uiso   1.00
H219   H     0.08723   0.40579   0.98034   0.00000  Uiso   1.00
H220   H     0.85456   0.11158   0.44566   0.00000  Uiso   1.00
H221   H     0.23003   0.73948   0.45964   0.00000  Uiso   1.00
O222   O     0.20554   0.38683   0.07436   0.00000  Uiso   1.00
O223   O     0.90029   0.00084   0.37287   0.00000  Uiso   1.00
O224   O     0.39290   0.82463   0.39121   0.00000  Uiso   1.00
N225   N     0.25292   0.38385   0.93326   0.00000  Uiso   1.00
N226   N     0.03538   0.10877   0.43339   0.00000  Uiso   1.00
N227   N     0.38641   0.69579   0.44643   0.00000  Uiso   1.00
N228   N     0.13563   0.39982   0.95018   0.00000  Uiso   1.00
N229   N     0.91810   0.12473   0.45031   0.00000  Uiso   1.00
N230   N     0.26912   0.71176   0.46335   0.00000  Uiso   1.00
C231   C     0.60523   0.84048   0.26958   0.00000  Uiso   1.00
C232   C     0.60432   0.81579   0.36475   0.00000  Uiso   1.00
C233   C     0.61247   0.86926   0.43536   0.00000  Uiso   1.00
C234   C     0.61005   0.83457   0.51725   0.00000  Uiso   1.00
C235   C     0.61024   0.80919   0.66340   0.00000  Uiso   1.00
C236   C     0.68015   0.83166   0.22700   0.00000  Uiso   1.00
C237   C     0.75204   0.89847   0.18176   0.00000  Uiso   1.00
C238   C     0.81345   0.87712   0.14768   0.00000  Uiso   1.00
C239   C     0.93132   0.87636   0.07990   0.00000  Uiso   1.00
C240   C     0.51836   0.76662   0.23061   0.00000  Uiso   1.00
C241   C     0.45423   0.77874   0.18839   0.00000  Uiso   1.00
C242   C     0.37943   0.70263   0.15733   0.00000  Uiso   1.00
C243   C     0.24610   0.60089   0.09515   0.00000  Uiso   1.00
C244   C     0.58646   0.68378   0.28947   0.00000  Uiso   1.00
C245   C     0.59413   0.73068   0.37556   0.00000  Uiso   1.00
C246   C     0.59170   0.69589   0.45737   0.00000  Uiso   1.00
C247   C     0.59983   0.74930   0.52808   0.00000  Uiso   1.00
C248   C     0.66996   0.74655   0.23780   0.00000  Uiso   1.00
C249   C     0.73127   0.72509   0.20377   0.00000  Uiso   1.00
C250   C     0.80323   0.79185   0.15851   0.00000  Uiso   1.00
C251   C     0.50816   0.68150   0.24141   0.00000  Uiso   1.00
C252   C     0.43345   0.60536   0.21040   0.00000  Uiso   1.00
C253   C     0.36921   0.61736   0.16815   0.00000  Uiso   1.00
H254   H     0.61317   0.90675   0.26116   0.00000  Uiso   1.00
H255   H     0.62037   0.93513   0.42697   0.00000  Uiso   1.00
H256   H     0.75991   0.96432   0.17341   0.00000  Uiso   1.00
H257   H     0.46214   0.84461   0.18004   0.00000  Uiso   1.00
H258   H     0.62387   0.92907   0.61556   0.00000  Uiso   1.00
H259   H     0.91809   0.99062   0.08089   0.00000  Uiso   1.00
H260   H     0.29019   0.73819   0.09486   0.00000  Uiso   1.00
H261   H     0.57852   0.61751   0.29788   0.00000  Uiso   1.00
H262   H     0.58380   0.63002   0.46571   0.00000  Uiso   1.00
H263   H     0.72335   0.65921   0.21214   0.00000  Uiso   1.00
H264   H     0.42558   0.53950   0.21877   0.00000  Uiso   1.00
H265   H     0.59421   0.68143   0.64700   0.00000  Uiso   1.00
H266   H     0.88842   0.74298   0.11232   0.00000  Uiso   1.00
H267   H     0.26052   0.49055   0.12631   0.00000  Uiso   1.00
O268   O     0.61317   0.81871   0.74102   0.00000  Uiso   1.00
O269   O     0.99916   0.89946   0.03954   0.00000  Uiso   1.00
O270   O     0.17537   0.56827   0.05788   0.00000  Uiso   1.00
N271   N     0.61615   0.86907   0.59993   0.00000  Uiso   1.00
N272   N     0.89123   0.92662   0.10005   0.00000  Uiso   1.00
N273   N     0.30421   0.69062   0.11310   0.00000  Uiso   1.00
N274   N     0.60018   0.73581   0.61685   0.00000  Uiso   1.00
N275   N     0.87527   0.79336   0.11697   0.00000  Uiso   1.00
N276   N     0.28824   0.55736   0.13002   0.00000  Uiso   1.00
