data_job_06153
_audit_creation_date              2018-12-19
_audit_creation_method            'Materials Studio'
_symmetry_space_group_name_H-M    'P1'
_symmetry_Int_Tables_number       1
_symmetry_cell_setting            triclinic
loop_
_symmetry_equiv_pos_as_xyz
  x,y,z
_cell_length_a                    8.4922
_cell_length_b                    22.9808
_cell_length_c                    23.4764
_cell_angle_alpha                 118.4300
_cell_angle_beta                  81.0965
_cell_angle_gamma                 87.2012
loop_
_atom_site_label
_atom_site_type_symbol
_atom_site_fract_x
_atom_site_fract_y
_atom_site_fract_z
_atom_site_U_iso_or_equiv
_atom_site_adp_type
_atom_site_occupancy
C1     C     0.94392   0.67560   0.04034   0.00000  Uiso   1.00
C2     C     0.82500   0.64326   0.06804   0.00000  Uiso   1.00
C3     C     0.85912   0.61077   0.10256   0.00000  Uiso   1.00
C4     C     0.73387   0.58452   0.12376   0.00000  Uiso   1.00
C5     C     0.57263   0.53335   0.16870   0.00000  Uiso   1.00
C6     C     0.94388   0.64300   0.96657   0.00000  Uiso   1.00
C7     C     0.07796   0.61030   0.91578   0.00000  Uiso   1.00
C8     C     0.05278   0.58384   0.85156   0.00000  Uiso   1.00
C9     C     0.07612   0.53232   0.73897   0.00000  Uiso   1.00
C10    C     0.86887   0.74819   0.07014   0.00000  Uiso   1.00
C11    C     0.93990   0.80393   0.10642   0.00000  Uiso   1.00
C12    C     0.85157   0.86604   0.12940   0.00000  Uiso   1.00
C13    C     0.75845   0.97784   0.17763   0.00000  Uiso   1.00
C14    C     0.66079   0.68677   0.01661   0.00000  Uiso   1.00
C15    C     0.67121   0.64932   0.05515   0.00000  Uiso   1.00
C16    C     0.54587   0.62312   0.07631   0.00000  Uiso   1.00
C17    C     0.57980   0.59060   0.11086   0.00000  Uiso   1.00
C18    C     0.79010   0.64906   0.95368   0.00000  Uiso   1.00
C19    C     0.76471   0.62266   0.88953   0.00000  Uiso   1.00
C20    C     0.89872   0.58992   0.83865   0.00000  Uiso   1.00
C21    C     0.71508   0.75425   0.05726   0.00000  Uiso   1.00
C22    C     0.62663   0.81629   0.08018   0.00000  Uiso   1.00
C23    C     0.69751   0.87212   0.11649   0.00000  Uiso   1.00
H24    H     0.06366   0.67087   0.05037   0.00000  Uiso   1.00
H25    H     0.97816   0.60608   0.11251   0.00000  Uiso   1.00
H26    H     0.19696   0.60562   0.92576   0.00000  Uiso   1.00
H27    H     0.05891   0.79922   0.11638   0.00000  Uiso   1.00
H28    H     0.81557   0.53689   0.17571   0.00000  Uiso   1.00
H29    H     0.27693   0.53594   0.78194   0.00000  Uiso   1.00
H30    H     0.98583   0.94419   0.18390   0.00000  Uiso   1.00
H31    H     0.54105   0.69149   0.00658   0.00000  Uiso   1.00
H32    H     0.42687   0.62782   0.06633   0.00000  Uiso   1.00
H33    H     0.64568   0.62736   0.87957   0.00000  Uiso   1.00
H34    H     0.50763   0.82096   0.07020   0.00000  Uiso   1.00
H35    H     0.36812   0.55454   0.13822   0.00000  Uiso   1.00
H36    H     0.82949   0.55359   0.74445   0.00000  Uiso   1.00
H37    H     0.53839   0.96184   0.14641   0.00000  Uiso   1.00
O38    O     0.52618   0.50345   0.19705   0.00000  Uiso   1.00
O39    O     0.13148   0.50221   0.68043   0.00000  Uiso   1.00
O40    O     0.74955   0.03782   0.20779   0.00000  Uiso   1.00
N41    N     0.72592   0.54980   0.15870   0.00000  Uiso   1.00
N42    N     0.15727   0.54890   0.79054   0.00000  Uiso   1.00
N43    N     0.88513   0.93058   0.16633   0.00000  Uiso   1.00
N44    N     0.48515   0.55929   0.13853   0.00000  Uiso   1.00
N45    N     0.91650   0.55839   0.77037   0.00000  Uiso   1.00
N46    N     0.64436   0.94007   0.14616   0.00000  Uiso   1.00
C47    C     0.98794   0.96084   0.63492   0.00000  Uiso   1.00
C48    C     0.89986   0.93139   0.57754   0.00000  Uiso   1.00
C49    C     0.97180   0.89785   0.51088   0.00000  Uiso   1.00
C50    C     0.87028   0.87472   0.46602   0.00000  Uiso   1.00
C51    C     0.75897   0.82750   0.37371   0.00000  Uiso   1.00
C52    C     0.91826   0.03464   0.67623   0.00000  Uiso   1.00
C53    C     0.00567   0.08790   0.69255   0.00000  Uiso   1.00
C54    C     0.91963   0.15168   0.73077   0.00000  Uiso   1.00
C55    C     0.83689   0.26475   0.79171   0.00000  Uiso   1.00
C56    C     0.93448   0.92921   0.67764   0.00000  Uiso   1.00
C57    C     0.03554   0.89384   0.69517   0.00000  Uiso   1.00
C58    C     0.96315   0.86888   0.73460   0.00000  Uiso   1.00
C59    C     0.90561   0.81826   0.79773   0.00000  Uiso   1.00
C60    C     0.67970   0.97941   0.67380   0.00000  Uiso   1.00
C61    C     0.73243   0.94149   0.59866   0.00000  Uiso   1.00
C62    C     0.63077   0.91840   0.55389   0.00000  Uiso   1.00
C63    C     0.70255   0.88483   0.48718   0.00000  Uiso   1.00
C64    C     0.75084   0.04473   0.69734   0.00000  Uiso   1.00
C65    C     0.66464   0.10845   0.73556   0.00000  Uiso   1.00
C66    C     0.75190   0.16179   0.75193   0.00000  Uiso   1.00
C67    C     0.76705   0.93930   0.69875   0.00000  Uiso   1.00
C68    C     0.69450   0.91439   0.73817   0.00000  Uiso   1.00
C69    C     0.79542   0.87899   0.75575   0.00000  Uiso   1.00
H70    H     0.11829   0.95298   0.61848   0.00000  Uiso   1.00
H71    H     0.10138   0.89006   0.49456   0.00000  Uiso   1.00
H72    H     0.13524   0.08007   0.67620   0.00000  Uiso   1.00
H73    H     0.16509   0.88605   0.67882   0.00000  Uiso   1.00
H74    H     0.00879   0.82476   0.36648   0.00000  Uiso   1.00
H75    H     0.08019   0.22542   0.74950   0.00000  Uiso   1.00
H76    H     0.14315   0.81628   0.75501   0.00000  Uiso   1.00
H77    H     0.54935   0.98727   0.69024   0.00000  Uiso   1.00
H78    H     0.50121   0.92622   0.57025   0.00000  Uiso   1.00
H79    H     0.53508   0.11624   0.75189   0.00000  Uiso   1.00
H80    H     0.56493   0.92221   0.75450   0.00000  Uiso   1.00
H81    H     0.52167   0.85411   0.42791   0.00000  Uiso   1.00
H82    H     0.59308   0.25477   0.81094   0.00000  Uiso   1.00
H83    H     0.65603   0.84563   0.81644   0.00000  Uiso   1.00
O84    O     0.74383   0.79868   0.31696   0.00000  Uiso   1.00
O85    O     0.83752   0.32432   0.81949   0.00000  Uiso   1.00
O86    O     0.92011   0.78754   0.82671   0.00000  Uiso   1.00
N87    N     0.90075   0.84003   0.39740   0.00000  Uiso   1.00
N88    N     0.96751   0.21463   0.75550   0.00000  Uiso   1.00
N89    N     0.02637   0.83213   0.76067   0.00000  Uiso   1.00
N90    N     0.63864   0.85583   0.43046   0.00000  Uiso   1.00
N91    N     0.70540   0.23042   0.78855   0.00000  Uiso   1.00
N92    N     0.76426   0.84792   0.79372   0.00000  Uiso   1.00
C93    C     0.62205   0.36572   0.32481   0.00000  Uiso   1.00
C94    C     0.48013   0.42161   0.35429   0.00000  Uiso   1.00
C95    C     0.48968   0.48960   0.38650   0.00000  Uiso   1.00
C96    C     0.34603   0.53272   0.40994   0.00000  Uiso   1.00
C97    C     0.14814   0.62316   0.45704   0.00000  Uiso   1.00
C98    C     0.58523   0.32272   0.35722   0.00000  Uiso   1.00
C99    C     0.68317   0.30755   0.39187   0.00000  Uiso   1.00
C100   C     0.62801   0.26742   0.41776   0.00000  Uiso   1.00
C101   C     0.59335   0.20429   0.46936   0.00000  Uiso   1.00
C102   C     0.61433   0.32246   0.25221   0.00000  Uiso   1.00
C103   C     0.73674   0.30705   0.19857   0.00000  Uiso   1.00
C104   C     0.70609   0.26668   0.13606   0.00000  Uiso   1.00
C105   C     0.71661   0.20314   0.02462   0.00000  Uiso   1.00
C106   C     0.34997   0.32139   0.30917   0.00000  Uiso   1.00
C107   C     0.33234   0.39753   0.34580   0.00000  Uiso   1.00
C108   C     0.18865   0.44056   0.36919   0.00000  Uiso   1.00
C109   C     0.19798   0.50860   0.40143   0.00000  Uiso   1.00
C110   C     0.43745   0.29864   0.34872   0.00000  Uiso   1.00
C111   C     0.38214   0.25851   0.37456   0.00000  Uiso   1.00
C112   C     0.47996   0.24330   0.40925   0.00000  Uiso   1.00
C113   C     0.46654   0.29838   0.24371   0.00000  Uiso   1.00
C114   C     0.43570   0.25801   0.18127   0.00000  Uiso   1.00
C115   C     0.55804   0.24255   0.12754   0.00000  Uiso   1.00
H116   H     0.73711   0.38446   0.33143   0.00000  Uiso   1.00
H117   H     0.60407   0.50821   0.39307   0.00000  Uiso   1.00
H118   H     0.79753   0.32619   0.39843   0.00000  Uiso   1.00
H119   H     0.85109   0.32569   0.20517   0.00000  Uiso   1.00
H120   H     0.39139   0.63479   0.45769   0.00000  Uiso   1.00
H121   H     0.79935   0.25097   0.46898   0.00000  Uiso   1.00
H122   H     0.91229   0.24992   0.06144   0.00000  Uiso   1.00
H123   H     0.23490   0.30265   0.30255   0.00000  Uiso   1.00
H124   H     0.07430   0.42191   0.36261   0.00000  Uiso   1.00
H125   H     0.26777   0.23989   0.36797   0.00000  Uiso   1.00
H126   H     0.32133   0.23939   0.17471   0.00000  Uiso   1.00
H127   H     0.96141   0.56475   0.43296   0.00000  Uiso   1.00
H128   H     0.36938   0.18092   0.44425   0.00000  Uiso   1.00
H129   H     0.48231   0.17987   0.03671   0.00000  Uiso   1.00
O130   O     0.07980   0.67970   0.48537   0.00000  Uiso   1.00
O131   O     0.61505   0.17613   0.50017   0.00000  Uiso   1.00
O132   O     0.76322   0.17475   0.96549   0.00000  Uiso   1.00
N133   N     0.31224   0.60194   0.44361   0.00000  Uiso   1.00
N134   N     0.69365   0.24310   0.45418   0.00000  Uiso   1.00
N135   N     0.79925   0.24210   0.07317   0.00000  Uiso   1.00
N136   N     0.08087   0.56425   0.43031   0.00000  Uiso   1.00
N137   N     0.46228   0.20541   0.44088   0.00000  Uiso   1.00
N138   N     0.56788   0.20441   0.05986   0.00000  Uiso   1.00
C139   C     0.05608   0.32440   0.95966   0.00000  Uiso   1.00
C140   C     0.17500   0.35674   0.93196   0.00000  Uiso   1.00
C141   C     0.14088   0.38923   0.89744   0.00000  Uiso   1.00
C142   C     0.26613   0.41548   0.87624   0.00000  Uiso   1.00
C143   C     0.42737   0.46665   0.83130   0.00000  Uiso   1.00
C144   C     0.05612   0.35700   0.03343   0.00000  Uiso   1.00
C145   C     0.92204   0.38970   0.08422   0.00000  Uiso   1.00
C146   C     0.94722   0.41616   0.14844   0.00000  Uiso   1.00
C147   C     0.92388   0.46768   0.26103   0.00000  Uiso   1.00
C148   C     0.13113   0.25181   0.92986   0.00000  Uiso   1.00
C149   C     0.06010   0.19607   0.89358   0.00000  Uiso   1.00
C150   C     0.14843   0.13396   0.87060   0.00000  Uiso   1.00
C151   C     0.24155   0.02216   0.82237   0.00000  Uiso   1.00
C152   C     0.33921   0.31323   0.98339   0.00000  Uiso   1.00
C153   C     0.32879   0.35068   0.94485   0.00000  Uiso   1.00
C154   C     0.45413   0.37688   0.92369   0.00000  Uiso   1.00
C155   C     0.42020   0.40940   0.88914   0.00000  Uiso   1.00
C156   C     0.20990   0.35094   0.04632   0.00000  Uiso   1.00
C157   C     0.23529   0.37734   0.11047   0.00000  Uiso   1.00
C158   C     0.10128   0.41008   0.16135   0.00000  Uiso   1.00
C159   C     0.28492   0.24575   0.94274   0.00000  Uiso   1.00
C160   C     0.37336   0.18371   0.91982   0.00000  Uiso   1.00
C161   C     0.30249   0.12788   0.88351   0.00000  Uiso   1.00
H162   H     0.93634   0.32913   0.94963   0.00000  Uiso   1.00
H163   H     0.02184   0.39392   0.88748   0.00000  Uiso   1.00
H164   H     0.80304   0.39438   0.07424   0.00000  Uiso   1.00
H165   H     0.94109   0.20078   0.88361   0.00000  Uiso   1.00
H166   H     0.18443   0.46311   0.82429   0.00000  Uiso   1.00
H167   H     0.72307   0.46406   0.21806   0.00000  Uiso   1.00
H168   H     0.01417   0.05581   0.81610   0.00000  Uiso   1.00
H169   H     0.45895   0.30851   0.99342   0.00000  Uiso   1.00
H170   H     0.57313   0.37218   0.93367   0.00000  Uiso   1.00
H171   H     0.35432   0.37264   0.12043   0.00000  Uiso   1.00
H172   H     0.49237   0.17904   0.92980   0.00000  Uiso   1.00
H173   H     0.63188   0.44546   0.86178   0.00000  Uiso   1.00
H174   H     0.17051   0.44641   0.25555   0.00000  Uiso   1.00
H175   H     0.46161   0.03816   0.85359   0.00000  Uiso   1.00
O176   O     0.47382   0.49655   0.80295   0.00000  Uiso   1.00
O177   O     0.86852   0.49779   0.31957   0.00000  Uiso   1.00
O178   O     0.25045   0.96218   0.79220   0.00000  Uiso   1.00
N179   N     0.27408   0.45021   0.84130   0.00000  Uiso   1.00
N180   N     0.84273   0.45110   0.20946   0.00000  Uiso   1.00
N181   N     0.11487   0.06942   0.83367   0.00000  Uiso   1.00
N182   N     0.51485   0.44071   0.86147   0.00000  Uiso   1.00
N183   N     0.08350   0.44161   0.22963   0.00000  Uiso   1.00
N184   N     0.35564   0.05993   0.85384   0.00000  Uiso   1.00
C185   C     0.01206   0.03916   0.36508   0.00000  Uiso   1.00
C186   C     0.10014   0.06861   0.42246   0.00000  Uiso   1.00
C187   C     0.02820   0.10215   0.48912   0.00000  Uiso   1.00
C188   C     0.12972   0.12528   0.53398   0.00000  Uiso   1.00
C189   C     0.24103   0.17250   0.62629   0.00000  Uiso   1.00
C190   C     0.08174   0.96536   0.32377   0.00000  Uiso   1.00
C191   C     0.99433   0.91210   0.30745   0.00000  Uiso   1.00
C192   C     0.08037   0.84832   0.26923   0.00000  Uiso   1.00
C193   C     0.16311   0.73525   0.20829   0.00000  Uiso   1.00
C194   C     0.06552   0.07079   0.32236   0.00000  Uiso   1.00
C195   C     0.96446   0.10616   0.30483   0.00000  Uiso   1.00
C196   C     0.03685   0.13112   0.26540   0.00000  Uiso   1.00
C197   C     0.09439   0.18174   0.20227   0.00000  Uiso   1.00
C198   C     0.32030   0.02059   0.32620   0.00000  Uiso   1.00
C199   C     0.26757   0.05851   0.40134   0.00000  Uiso   1.00
C200   C     0.36923   0.08160   0.44611   0.00000  Uiso   1.00
C201   C     0.29745   0.11517   0.51282   0.00000  Uiso   1.00
C202   C     0.24916   0.95527   0.30266   0.00000  Uiso   1.00
C203   C     0.33536   0.89155   0.26444   0.00000  Uiso   1.00
C204   C     0.24810   0.83821   0.24807   0.00000  Uiso   1.00
C205   C     0.23295   0.06070   0.30125   0.00000  Uiso   1.00
C206   C     0.30550   0.08561   0.26183   0.00000  Uiso   1.00
C207   C     0.20458   0.12101   0.24425   0.00000  Uiso   1.00
H208   H     0.88171   0.04702   0.38151   0.00000  Uiso   1.00
H209   H     0.89862   0.10994   0.50544   0.00000  Uiso   1.00
H210   H     0.86476   0.91993   0.32380   0.00000  Uiso   1.00
H211   H     0.83491   0.11395   0.32118   0.00000  Uiso   1.00
H212   H     0.99121   0.17524   0.63352   0.00000  Uiso   1.00
H213   H     0.91981   0.77458   0.25050   0.00000  Uiso   1.00
H214   H     0.85685   0.18372   0.24499   0.00000  Uiso   1.00
H215   H     0.45065   0.01273   0.30976   0.00000  Uiso   1.00
H216   H     0.49879   0.07378   0.42975   0.00000  Uiso   1.00
H217   H     0.46492   0.88376   0.24811   0.00000  Uiso   1.00
H218   H     0.43507   0.07779   0.24550   0.00000  Uiso   1.00
H219   H     0.47833   0.14589   0.57209   0.00000  Uiso   1.00
H220   H     0.40692   0.74523   0.18906   0.00000  Uiso   1.00
H221   H     0.34397   0.15437   0.18356   0.00000  Uiso   1.00
O222   O     0.25617   0.20132   0.68304   0.00000  Uiso   1.00
O223   O     0.16248   0.67568   0.18051   0.00000  Uiso   1.00
O224   O     0.07989   0.21246   0.17329   0.00000  Uiso   1.00
N225   N     0.09925   0.15997   0.60260   0.00000  Uiso   1.00
N226   N     0.03249   0.78537   0.24450   0.00000  Uiso   1.00
N227   N     0.97363   0.16787   0.23933   0.00000  Uiso   1.00
N228   N     0.36136   0.14417   0.56954   0.00000  Uiso   1.00
N229   N     0.29460   0.76958   0.21145   0.00000  Uiso   1.00
N230   N     0.23574   0.15208   0.20628   0.00000  Uiso   1.00
C231   C     0.37795   0.63428   0.67519   0.00000  Uiso   1.00
C232   C     0.51987   0.57839   0.64571   0.00000  Uiso   1.00
C233   C     0.51032   0.51040   0.61350   0.00000  Uiso   1.00
C234   C     0.65397   0.46728   0.59006   0.00000  Uiso   1.00
C235   C     0.85186   0.37684   0.54296   0.00000  Uiso   1.00
C236   C     0.41477   0.67728   0.64278   0.00000  Uiso   1.00
C237   C     0.31683   0.69245   0.60813   0.00000  Uiso   1.00
C238   C     0.37199   0.73258   0.58224   0.00000  Uiso   1.00
C239   C     0.40665   0.79571   0.53064   0.00000  Uiso   1.00
C240   C     0.38567   0.67754   0.74779   0.00000  Uiso   1.00
C241   C     0.26326   0.69295   0.80143   0.00000  Uiso   1.00
C242   C     0.29391   0.73332   0.86394   0.00000  Uiso   1.00
C243   C     0.28339   0.79686   0.97538   0.00000  Uiso   1.00
C244   C     0.65003   0.67861   0.69083   0.00000  Uiso   1.00
C245   C     0.66766   0.60247   0.65420   0.00000  Uiso   1.00
C246   C     0.81135   0.55944   0.63081   0.00000  Uiso   1.00
C247   C     0.80202   0.49140   0.59857   0.00000  Uiso   1.00
C248   C     0.56255   0.70136   0.65128   0.00000  Uiso   1.00
C249   C     0.61786   0.74149   0.62544   0.00000  Uiso   1.00
C250   C     0.52004   0.75670   0.59075   0.00000  Uiso   1.00
C251   C     0.53346   0.70162   0.75629   0.00000  Uiso   1.00
C252   C     0.56430   0.74199   0.81873   0.00000  Uiso   1.00
C253   C     0.44196   0.75745   0.87245   0.00000  Uiso   1.00
H254   H     0.26289   0.61554   0.66857   0.00000  Uiso   1.00
H255   H     0.39593   0.49179   0.60693   0.00000  Uiso   1.00
H256   H     0.20247   0.67381   0.60157   0.00000  Uiso   1.00
H257   H     0.14891   0.67431   0.79483   0.00000  Uiso   1.00
H258   H     0.60861   0.36521   0.54231   0.00000  Uiso   1.00
H259   H     0.20065   0.74903   0.53102   0.00000  Uiso   1.00
H260   H     0.08771   0.75008   0.93856   0.00000  Uiso   1.00
H261   H     0.76510   0.69735   0.69745   0.00000  Uiso   1.00
H262   H     0.92570   0.57809   0.63739   0.00000  Uiso   1.00
H263   H     0.73223   0.76011   0.63202   0.00000  Uiso   1.00
H264   H     0.67867   0.76061   0.82529   0.00000  Uiso   1.00
H265   H     0.03859   0.43525   0.56703   0.00000  Uiso   1.00
H266   H     0.63062   0.81908   0.55575   0.00000  Uiso   1.00
H267   H     0.51769   0.82013   0.96328   0.00000  Uiso   1.00
O268   O     0.92020   0.32030   0.51463   0.00000  Uiso   1.00
O269   O     0.38495   0.82387   0.49983   0.00000  Uiso   1.00
O270   O     0.23678   0.82525   0.03451   0.00000  Uiso   1.00
N271   N     0.68776   0.39806   0.55638   0.00000  Uiso   1.00
N272   N     0.30635   0.75690   0.54582   0.00000  Uiso   1.00
N273   N     0.20075   0.75790   0.92683   0.00000  Uiso   1.00
N274   N     0.91913   0.43575   0.56969   0.00000  Uiso   1.00
N275   N     0.53772   0.79459   0.55912   0.00000  Uiso   1.00
N276   N     0.43212   0.79559   0.94014   0.00000  Uiso   1.00
