data_job_03379
_audit_creation_date              2018-12-19
_audit_creation_method            'Materials Studio'
_symmetry_space_group_name_H-M    'P1'
_symmetry_Int_Tables_number       1
_symmetry_cell_setting            triclinic
loop_
_symmetry_equiv_pos_as_xyz
  x,y,z
_cell_length_a                    31.2640
_cell_length_b                    19.2010
_cell_length_c                    9.6079
_cell_angle_alpha                 90.0000
_cell_angle_beta                  90.0000
_cell_angle_gamma                 90.0000
loop_
_atom_site_label
_atom_site_type_symbol
_atom_site_fract_x
_atom_site_fract_y
_atom_site_fract_z
_atom_site_U_iso_or_equiv
_atom_site_adp_type
_atom_site_occupancy
C1     C     0.12301   0.76088   0.31528   0.00000  Uiso   1.00
C2     C     0.10355   0.71005   0.41948   0.00000  Uiso   1.00
C3     C     0.10495   0.71647   0.56327   0.00000  Uiso   1.00
C4     C     0.08524   0.66445   0.64046   0.00000  Uiso   1.00
C5     C     0.05813   0.59408   0.81206   0.00000  Uiso   1.00
C6     C     0.15329   0.71805   0.22494   0.00000  Uiso   1.00
C7     C     0.19651   0.73122   0.20516   0.00000  Uiso   1.00
C8     C     0.21867   0.68595   0.11857   0.00000  Uiso   1.00
C9     C     0.26877   0.62804   0.98806   0.00000  Uiso   1.00
C10    C     0.08651   0.78340   0.22013   0.00000  Uiso   1.00
C11    C     0.07359   0.85151   0.19627   0.00000  Uiso   1.00
C12    C     0.03953   0.86124   0.10560   0.00000  Uiso   1.00
C13    C     0.98595   0.90478   0.96763   0.00000  Uiso   1.00
C14    C     0.08551   0.65706   0.19666   0.00000  Uiso   1.00
C15    C     0.08318   0.65366   0.35504   0.00000  Uiso   1.00
C16    C     0.06346   0.60161   0.43204   0.00000  Uiso   1.00
C17    C     0.06483   0.60796   0.57592   0.00000  Uiso   1.00
C18    C     0.13292   0.66167   0.16051   0.00000  Uiso   1.00
C19    C     0.15501   0.61636   0.07392   0.00000  Uiso   1.00
C20    C     0.19826   0.62945   0.05402   0.00000  Uiso   1.00
C21    C     0.06613   0.72701   0.15570   0.00000  Uiso   1.00
C22    C     0.03209   0.73664   0.06504   0.00000  Uiso   1.00
C23    C     0.01912   0.80475   0.04106   0.00000  Uiso   1.00
H24    H     0.13888   0.80478   0.36543   0.00000  Uiso   1.00
H25    H     0.12073   0.76012   0.61309   0.00000  Uiso   1.00
H26    H     0.21227   0.77487   0.25502   0.00000  Uiso   1.00
H27    H     0.08936   0.89513   0.24615   0.00000  Uiso   1.00
H28    H     0.09163   0.68572   0.85926   0.00000  Uiso   1.00
H29    H     0.28465   0.71684   0.10420   0.00000  Uiso   1.00
H30    H     0.02548   0.97043   0.08549   0.00000  Uiso   1.00
H31    H     0.06965   0.61316   0.14649   0.00000  Uiso   1.00
H32    H     0.04769   0.55798   0.38215   0.00000  Uiso   1.00
H33    H     0.13924   0.57273   0.02407   0.00000  Uiso   1.00
H34    H     0.01633   0.69299   0.01520   0.00000  Uiso   1.00
H35    H     0.03236   0.52165   0.67182   0.00000  Uiso   1.00
H36    H     0.22537   0.55277   0.91675   0.00000  Uiso   1.00
H37    H     0.96620   0.80637   0.89804   0.00000  Uiso   1.00
O38    O     0.04881   0.57083   0.92451   0.00000  Uiso   1.00
O39    O     0.30204   0.61167   0.93388   0.00000  Uiso   1.00
O40    O     0.96202   0.94438   0.90934   0.00000  Uiso   1.00
N41    N     0.08068   0.65469   0.78280   0.00000  Uiso   1.00
N42    N     0.26115   0.68377   0.07689   0.00000  Uiso   1.00
N43    N     0.01885   0.92087   0.05936   0.00000  Uiso   1.00
N44    N     0.04879   0.56640   0.68194   0.00000  Uiso   1.00
N45    N     0.22925   0.59549   0.97603   0.00000  Uiso   1.00
N46    N     0.98696   0.83258   0.95850   0.00000  Uiso   1.00
C47    C     0.37699   0.73912   0.81528   0.00000  Uiso   1.00
C48    C     0.39645   0.78995   0.91948   0.00000  Uiso   1.00
C49    C     0.39505   0.78353   0.06327   0.00000  Uiso   1.00
C50    C     0.41476   0.83555   0.14046   0.00000  Uiso   1.00
C51    C     0.44187   0.90592   0.31206   0.00000  Uiso   1.00
C52    C     0.34671   0.78195   0.72494   0.00000  Uiso   1.00
C53    C     0.30349   0.76878   0.70516   0.00000  Uiso   1.00
C54    C     0.28133   0.81405   0.61857   0.00000  Uiso   1.00
C55    C     0.23123   0.87196   0.48806   0.00000  Uiso   1.00
C56    C     0.41349   0.71660   0.72013   0.00000  Uiso   1.00
C57    C     0.42641   0.64849   0.69627   0.00000  Uiso   1.00
C58    C     0.46047   0.63876   0.60560   0.00000  Uiso   1.00
C59    C     0.51405   0.59522   0.46763   0.00000  Uiso   1.00
C60    C     0.41449   0.84294   0.69666   0.00000  Uiso   1.00
C61    C     0.41682   0.84634   0.85504   0.00000  Uiso   1.00
C62    C     0.43654   0.89839   0.93204   0.00000  Uiso   1.00
C63    C     0.43517   0.89204   0.07592   0.00000  Uiso   1.00
C64    C     0.36708   0.83833   0.66051   0.00000  Uiso   1.00
C65    C     0.34499   0.88364   0.57392   0.00000  Uiso   1.00
C66    C     0.30174   0.87055   0.55402   0.00000  Uiso   1.00
C67    C     0.43387   0.77299   0.65570   0.00000  Uiso   1.00
C68    C     0.46791   0.76336   0.56504   0.00000  Uiso   1.00
C69    C     0.48088   0.69525   0.54106   0.00000  Uiso   1.00
H70    H     0.36112   0.69522   0.86543   0.00000  Uiso   1.00
H71    H     0.37927   0.73988   0.11309   0.00000  Uiso   1.00
H72    H     0.28773   0.72513   0.75502   0.00000  Uiso   1.00
H73    H     0.41064   0.60487   0.74615   0.00000  Uiso   1.00
H74    H     0.40837   0.81428   0.35926   0.00000  Uiso   1.00
H75    H     0.21535   0.78316   0.60420   0.00000  Uiso   1.00
H76    H     0.47452   0.52957   0.58549   0.00000  Uiso   1.00
H77    H     0.43035   0.88684   0.64649   0.00000  Uiso   1.00
H78    H     0.45231   0.94202   0.88215   0.00000  Uiso   1.00
H79    H     0.36076   0.92727   0.52407   0.00000  Uiso   1.00
H80    H     0.48367   0.80701   0.51520   0.00000  Uiso   1.00
H81    H     0.46764   0.97835   0.17182   0.00000  Uiso   1.00
H82    H     0.27463   0.94723   0.41675   0.00000  Uiso   1.00
H83    H     0.53380   0.69363   0.39804   0.00000  Uiso   1.00
O84    O     0.45119   0.92917   0.42451   0.00000  Uiso   1.00
O85    O     0.19796   0.88833   0.43388   0.00000  Uiso   1.00
O86    O     0.53798   0.55562   0.40934   0.00000  Uiso   1.00
N87    N     0.41932   0.84531   0.28280   0.00000  Uiso   1.00
N88    N     0.23885   0.81623   0.57689   0.00000  Uiso   1.00
N89    N     0.48115   0.57913   0.55936   0.00000  Uiso   1.00
N90    N     0.45121   0.93360   0.18194   0.00000  Uiso   1.00
N91    N     0.27075   0.90451   0.47603   0.00000  Uiso   1.00
N92    N     0.51304   0.66742   0.45850   0.00000  Uiso   1.00
C93    C     0.87699   0.76088   0.18472   0.00000  Uiso   1.00
C94    C     0.89645   0.71005   0.08052   0.00000  Uiso   1.00
C95    C     0.89505   0.71647   0.93673   0.00000  Uiso   1.00
C96    C     0.91476   0.66445   0.85954   0.00000  Uiso   1.00
C97    C     0.94187   0.59408   0.68794   0.00000  Uiso   1.00
C98    C     0.84671   0.71805   0.27506   0.00000  Uiso   1.00
C99    C     0.80349   0.73122   0.29484   0.00000  Uiso   1.00
C100   C     0.78133   0.68595   0.38143   0.00000  Uiso   1.00
C101   C     0.73123   0.62804   0.51194   0.00000  Uiso   1.00
C102   C     0.91349   0.78340   0.27987   0.00000  Uiso   1.00
C103   C     0.92641   0.85151   0.30373   0.00000  Uiso   1.00
C104   C     0.96047   0.86124   0.39440   0.00000  Uiso   1.00
C105   C     0.01405   0.90478   0.53237   0.00000  Uiso   1.00
C106   C     0.91449   0.65706   0.30334   0.00000  Uiso   1.00
C107   C     0.91682   0.65366   0.14496   0.00000  Uiso   1.00
C108   C     0.93654   0.60161   0.06796   0.00000  Uiso   1.00
C109   C     0.93517   0.60796   0.92408   0.00000  Uiso   1.00
C110   C     0.86708   0.66167   0.33949   0.00000  Uiso   1.00
C111   C     0.84499   0.61636   0.42608   0.00000  Uiso   1.00
C112   C     0.80174   0.62945   0.44598   0.00000  Uiso   1.00
C113   C     0.93387   0.72701   0.34430   0.00000  Uiso   1.00
C114   C     0.96791   0.73664   0.43496   0.00000  Uiso   1.00
C115   C     0.98088   0.80475   0.45894   0.00000  Uiso   1.00
H116   H     0.86112   0.80478   0.13457   0.00000  Uiso   1.00
H117   H     0.87927   0.76012   0.88691   0.00000  Uiso   1.00
H118   H     0.78773   0.77487   0.24498   0.00000  Uiso   1.00
H119   H     0.91064   0.89513   0.25385   0.00000  Uiso   1.00
H120   H     0.90837   0.68572   0.64074   0.00000  Uiso   1.00
H121   H     0.71535   0.71684   0.39580   0.00000  Uiso   1.00
H122   H     0.97452   0.97043   0.41451   0.00000  Uiso   1.00
H123   H     0.93035   0.61316   0.35351   0.00000  Uiso   1.00
H124   H     0.95231   0.55798   0.11785   0.00000  Uiso   1.00
H125   H     0.86076   0.57273   0.47593   0.00000  Uiso   1.00
H126   H     0.98367   0.69299   0.48480   0.00000  Uiso   1.00
H127   H     0.96764   0.52165   0.82818   0.00000  Uiso   1.00
H128   H     0.77463   0.55277   0.58325   0.00000  Uiso   1.00
H129   H     0.03380   0.80637   0.60196   0.00000  Uiso   1.00
O130   O     0.95119   0.57083   0.57549   0.00000  Uiso   1.00
O131   O     0.69796   0.61167   0.56612   0.00000  Uiso   1.00
O132   O     0.03798   0.94438   0.59066   0.00000  Uiso   1.00
N133   N     0.91932   0.65469   0.71720   0.00000  Uiso   1.00
N134   N     0.73885   0.68377   0.42311   0.00000  Uiso   1.00
N135   N     0.98115   0.92087   0.44064   0.00000  Uiso   1.00
N136   N     0.95121   0.56640   0.81806   0.00000  Uiso   1.00
N137   N     0.77075   0.59549   0.52397   0.00000  Uiso   1.00
N138   N     0.01304   0.83258   0.54150   0.00000  Uiso   1.00
C139   C     0.62301   0.73912   0.68472   0.00000  Uiso   1.00
C140   C     0.60355   0.78995   0.58052   0.00000  Uiso   1.00
C141   C     0.60495   0.78353   0.43673   0.00000  Uiso   1.00
C142   C     0.58524   0.83555   0.35954   0.00000  Uiso   1.00
C143   C     0.55813   0.90592   0.18794   0.00000  Uiso   1.00
C144   C     0.65329   0.78195   0.77506   0.00000  Uiso   1.00
C145   C     0.69651   0.76878   0.79484   0.00000  Uiso   1.00
C146   C     0.71867   0.81405   0.88143   0.00000  Uiso   1.00
C147   C     0.76877   0.87196   0.01194   0.00000  Uiso   1.00
C148   C     0.58651   0.71660   0.77987   0.00000  Uiso   1.00
C149   C     0.57359   0.64849   0.80373   0.00000  Uiso   1.00
C150   C     0.53953   0.63876   0.89440   0.00000  Uiso   1.00
C151   C     0.48595   0.59522   0.03237   0.00000  Uiso   1.00
C152   C     0.58551   0.84294   0.80334   0.00000  Uiso   1.00
C153   C     0.58318   0.84634   0.64496   0.00000  Uiso   1.00
C154   C     0.56346   0.89839   0.56796   0.00000  Uiso   1.00
C155   C     0.56483   0.89204   0.42408   0.00000  Uiso   1.00
C156   C     0.63292   0.83833   0.83949   0.00000  Uiso   1.00
C157   C     0.65501   0.88364   0.92608   0.00000  Uiso   1.00
C158   C     0.69826   0.87055   0.94598   0.00000  Uiso   1.00
C159   C     0.56613   0.77299   0.84430   0.00000  Uiso   1.00
C160   C     0.53209   0.76336   0.93496   0.00000  Uiso   1.00
C161   C     0.51912   0.69525   0.95894   0.00000  Uiso   1.00
H162   H     0.63888   0.69522   0.63457   0.00000  Uiso   1.00
H163   H     0.62073   0.73988   0.38691   0.00000  Uiso   1.00
H164   H     0.71227   0.72513   0.74498   0.00000  Uiso   1.00
H165   H     0.58936   0.60487   0.75385   0.00000  Uiso   1.00
H166   H     0.59163   0.81428   0.14074   0.00000  Uiso   1.00
H167   H     0.78465   0.78316   0.89580   0.00000  Uiso   1.00
H168   H     0.52548   0.52957   0.91451   0.00000  Uiso   1.00
H169   H     0.56965   0.88684   0.85351   0.00000  Uiso   1.00
H170   H     0.54769   0.94202   0.61785   0.00000  Uiso   1.00
H171   H     0.63924   0.92727   0.97593   0.00000  Uiso   1.00
H172   H     0.51633   0.80701   0.98480   0.00000  Uiso   1.00
H173   H     0.53236   0.97835   0.32818   0.00000  Uiso   1.00
H174   H     0.72537   0.94723   0.08325   0.00000  Uiso   1.00
H175   H     0.46620   0.69363   0.10196   0.00000  Uiso   1.00
O176   O     0.54881   0.92917   0.07549   0.00000  Uiso   1.00
O177   O     0.80204   0.88833   0.06612   0.00000  Uiso   1.00
O178   O     0.46202   0.55562   0.09066   0.00000  Uiso   1.00
N179   N     0.58068   0.84531   0.21720   0.00000  Uiso   1.00
N180   N     0.76115   0.81623   0.92311   0.00000  Uiso   1.00
N181   N     0.51885   0.57913   0.94064   0.00000  Uiso   1.00
N182   N     0.54879   0.93360   0.31806   0.00000  Uiso   1.00
N183   N     0.72925   0.90451   0.02397   0.00000  Uiso   1.00
N184   N     0.48696   0.66742   0.04150   0.00000  Uiso   1.00
C185   C     0.87699   0.23912   0.68472   0.00000  Uiso   1.00
C186   C     0.89645   0.28995   0.58052   0.00000  Uiso   1.00
C187   C     0.89505   0.28353   0.43673   0.00000  Uiso   1.00
C188   C     0.91476   0.33555   0.35954   0.00000  Uiso   1.00
C189   C     0.94187   0.40592   0.18794   0.00000  Uiso   1.00
C190   C     0.84671   0.28195   0.77506   0.00000  Uiso   1.00
C191   C     0.80349   0.26878   0.79484   0.00000  Uiso   1.00
C192   C     0.78133   0.31405   0.88143   0.00000  Uiso   1.00
C193   C     0.73123   0.37196   0.01194   0.00000  Uiso   1.00
C194   C     0.91349   0.21660   0.77987   0.00000  Uiso   1.00
C195   C     0.92641   0.14849   0.80373   0.00000  Uiso   1.00
C196   C     0.96047   0.13876   0.89440   0.00000  Uiso   1.00
C197   C     0.01405   0.09522   0.03237   0.00000  Uiso   1.00
C198   C     0.91449   0.34294   0.80334   0.00000  Uiso   1.00
C199   C     0.91682   0.34634   0.64496   0.00000  Uiso   1.00
C200   C     0.93654   0.39839   0.56796   0.00000  Uiso   1.00
C201   C     0.93517   0.39204   0.42408   0.00000  Uiso   1.00
C202   C     0.86708   0.33833   0.83949   0.00000  Uiso   1.00
C203   C     0.84499   0.38364   0.92608   0.00000  Uiso   1.00
C204   C     0.80174   0.37055   0.94598   0.00000  Uiso   1.00
C205   C     0.93387   0.27299   0.84430   0.00000  Uiso   1.00
C206   C     0.96791   0.26336   0.93496   0.00000  Uiso   1.00
C207   C     0.98088   0.19525   0.95894   0.00000  Uiso   1.00
H208   H     0.86112   0.19522   0.63457   0.00000  Uiso   1.00
H209   H     0.87927   0.23988   0.38691   0.00000  Uiso   1.00
H210   H     0.78773   0.22513   0.74498   0.00000  Uiso   1.00
H211   H     0.91064   0.10487   0.75385   0.00000  Uiso   1.00
H212   H     0.90837   0.31428   0.14074   0.00000  Uiso   1.00
H213   H     0.71535   0.28316   0.89580   0.00000  Uiso   1.00
H214   H     0.97452   0.02957   0.91451   0.00000  Uiso   1.00
H215   H     0.93035   0.38684   0.85351   0.00000  Uiso   1.00
H216   H     0.95231   0.44202   0.61785   0.00000  Uiso   1.00
H217   H     0.86076   0.42727   0.97593   0.00000  Uiso   1.00
H218   H     0.98367   0.30701   0.98480   0.00000  Uiso   1.00
H219   H     0.96764   0.47835   0.32818   0.00000  Uiso   1.00
H220   H     0.77463   0.44723   0.08325   0.00000  Uiso   1.00
H221   H     0.03380   0.19363   0.10196   0.00000  Uiso   1.00
O222   O     0.95119   0.42917   0.07549   0.00000  Uiso   1.00
O223   O     0.69796   0.38833   0.06612   0.00000  Uiso   1.00
O224   O     0.03798   0.05562   0.09066   0.00000  Uiso   1.00
N225   N     0.91932   0.34531   0.21720   0.00000  Uiso   1.00
N226   N     0.73885   0.31623   0.92311   0.00000  Uiso   1.00
N227   N     0.98115   0.07913   0.94064   0.00000  Uiso   1.00
N228   N     0.95121   0.43360   0.31806   0.00000  Uiso   1.00
N229   N     0.77075   0.40451   0.02397   0.00000  Uiso   1.00
N230   N     0.01304   0.16742   0.04150   0.00000  Uiso   1.00
C231   C     0.62301   0.26088   0.18472   0.00000  Uiso   1.00
C232   C     0.60355   0.21005   0.08052   0.00000  Uiso   1.00
C233   C     0.60495   0.21647   0.93673   0.00000  Uiso   1.00
C234   C     0.58524   0.16445   0.85954   0.00000  Uiso   1.00
C235   C     0.55813   0.09408   0.68794   0.00000  Uiso   1.00
C236   C     0.65329   0.21805   0.27506   0.00000  Uiso   1.00
C237   C     0.69651   0.23122   0.29484   0.00000  Uiso   1.00
C238   C     0.71867   0.18595   0.38143   0.00000  Uiso   1.00
C239   C     0.76877   0.12804   0.51194   0.00000  Uiso   1.00
C240   C     0.58651   0.28340   0.27987   0.00000  Uiso   1.00
C241   C     0.57359   0.35151   0.30373   0.00000  Uiso   1.00
C242   C     0.53953   0.36124   0.39440   0.00000  Uiso   1.00
C243   C     0.48595   0.40478   0.53237   0.00000  Uiso   1.00
C244   C     0.58551   0.15706   0.30334   0.00000  Uiso   1.00
C245   C     0.58318   0.15366   0.14496   0.00000  Uiso   1.00
C246   C     0.56346   0.10161   0.06796   0.00000  Uiso   1.00
C247   C     0.56483   0.10796   0.92408   0.00000  Uiso   1.00
C248   C     0.63292   0.16167   0.33949   0.00000  Uiso   1.00
C249   C     0.65501   0.11636   0.42608   0.00000  Uiso   1.00
C250   C     0.69826   0.12945   0.44598   0.00000  Uiso   1.00
C251   C     0.56613   0.22701   0.34430   0.00000  Uiso   1.00
C252   C     0.53209   0.23664   0.43496   0.00000  Uiso   1.00
C253   C     0.51912   0.30475   0.45894   0.00000  Uiso   1.00
H254   H     0.63888   0.30478   0.13457   0.00000  Uiso   1.00
H255   H     0.62073   0.26012   0.88691   0.00000  Uiso   1.00
H256   H     0.71227   0.27487   0.24498   0.00000  Uiso   1.00
H257   H     0.58936   0.39513   0.25385   0.00000  Uiso   1.00
H258   H     0.59163   0.18572   0.64074   0.00000  Uiso   1.00
H259   H     0.78465   0.21684   0.39580   0.00000  Uiso   1.00
H260   H     0.52548   0.47043   0.41451   0.00000  Uiso   1.00
H261   H     0.56965   0.11316   0.35351   0.00000  Uiso   1.00
H262   H     0.54769   0.05798   0.11785   0.00000  Uiso   1.00
H263   H     0.63924   0.07273   0.47593   0.00000  Uiso   1.00
H264   H     0.51633   0.19299   0.48480   0.00000  Uiso   1.00
H265   H     0.53236   0.02165   0.82818   0.00000  Uiso   1.00
H266   H     0.72537   0.05277   0.58325   0.00000  Uiso   1.00
H267   H     0.46620   0.30637   0.60196   0.00000  Uiso   1.00
O268   O     0.54881   0.07083   0.57549   0.00000  Uiso   1.00
O269   O     0.80204   0.11167   0.56612   0.00000  Uiso   1.00
O270   O     0.46202   0.44438   0.59066   0.00000  Uiso   1.00
N271   N     0.58068   0.15469   0.71720   0.00000  Uiso   1.00
N272   N     0.76115   0.18377   0.42311   0.00000  Uiso   1.00
N273   N     0.51885   0.42087   0.44064   0.00000  Uiso   1.00
N274   N     0.54879   0.06640   0.81806   0.00000  Uiso   1.00
N275   N     0.72925   0.09549   0.52397   0.00000  Uiso   1.00
N276   N     0.48696   0.33258   0.54150   0.00000  Uiso   1.00
C277   C     0.12301   0.23912   0.81528   0.00000  Uiso   1.00
C278   C     0.10355   0.28995   0.91948   0.00000  Uiso   1.00
C279   C     0.10495   0.28353   0.06327   0.00000  Uiso   1.00
C280   C     0.08524   0.33555   0.14046   0.00000  Uiso   1.00
C281   C     0.05813   0.40592   0.31206   0.00000  Uiso   1.00
C282   C     0.15329   0.28195   0.72494   0.00000  Uiso   1.00
C283   C     0.19651   0.26878   0.70516   0.00000  Uiso   1.00
C284   C     0.21867   0.31405   0.61857   0.00000  Uiso   1.00
C285   C     0.26877   0.37196   0.48806   0.00000  Uiso   1.00
C286   C     0.08651   0.21660   0.72013   0.00000  Uiso   1.00
C287   C     0.07359   0.14849   0.69627   0.00000  Uiso   1.00
C288   C     0.03953   0.13876   0.60560   0.00000  Uiso   1.00
C289   C     0.98595   0.09522   0.46763   0.00000  Uiso   1.00
C290   C     0.08551   0.34294   0.69666   0.00000  Uiso   1.00
C291   C     0.08318   0.34634   0.85504   0.00000  Uiso   1.00
C292   C     0.06346   0.39839   0.93204   0.00000  Uiso   1.00
C293   C     0.06483   0.39204   0.07592   0.00000  Uiso   1.00
C294   C     0.13292   0.33833   0.66051   0.00000  Uiso   1.00
C295   C     0.15501   0.38364   0.57392   0.00000  Uiso   1.00
C296   C     0.19826   0.37055   0.55402   0.00000  Uiso   1.00
C297   C     0.06613   0.27299   0.65570   0.00000  Uiso   1.00
C298   C     0.03209   0.26336   0.56504   0.00000  Uiso   1.00
C299   C     0.01912   0.19525   0.54106   0.00000  Uiso   1.00
H300   H     0.13888   0.19522   0.86543   0.00000  Uiso   1.00
H301   H     0.12073   0.23988   0.11309   0.00000  Uiso   1.00
H302   H     0.21227   0.22513   0.75502   0.00000  Uiso   1.00
H303   H     0.08936   0.10487   0.74615   0.00000  Uiso   1.00
H304   H     0.09163   0.31428   0.35926   0.00000  Uiso   1.00
H305   H     0.28465   0.28316   0.60420   0.00000  Uiso   1.00
H306   H     0.02548   0.02957   0.58549   0.00000  Uiso   1.00
H307   H     0.06965   0.38684   0.64649   0.00000  Uiso   1.00
H308   H     0.04769   0.44202   0.88215   0.00000  Uiso   1.00
H309   H     0.13924   0.42727   0.52407   0.00000  Uiso   1.00
H310   H     0.01633   0.30701   0.51520   0.00000  Uiso   1.00
H311   H     0.03236   0.47835   0.17182   0.00000  Uiso   1.00
H312   H     0.22537   0.44723   0.41675   0.00000  Uiso   1.00
H313   H     0.96620   0.19363   0.39804   0.00000  Uiso   1.00
O314   O     0.04881   0.42917   0.42451   0.00000  Uiso   1.00
O315   O     0.30204   0.38833   0.43388   0.00000  Uiso   1.00
O316   O     0.96202   0.05562   0.40934   0.00000  Uiso   1.00
N317   N     0.08068   0.34531   0.28280   0.00000  Uiso   1.00
N318   N     0.26115   0.31623   0.57689   0.00000  Uiso   1.00
N319   N     0.01885   0.07913   0.55936   0.00000  Uiso   1.00
N320   N     0.04879   0.43360   0.18194   0.00000  Uiso   1.00
N321   N     0.22925   0.40451   0.47603   0.00000  Uiso   1.00
N322   N     0.98696   0.16742   0.45850   0.00000  Uiso   1.00
C323   C     0.37699   0.26088   0.31528   0.00000  Uiso   1.00
C324   C     0.39645   0.21005   0.41948   0.00000  Uiso   1.00
C325   C     0.39505   0.21647   0.56327   0.00000  Uiso   1.00
C326   C     0.41476   0.16445   0.64046   0.00000  Uiso   1.00
C327   C     0.44187   0.09408   0.81206   0.00000  Uiso   1.00
C328   C     0.34671   0.21805   0.22494   0.00000  Uiso   1.00
C329   C     0.30349   0.23122   0.20516   0.00000  Uiso   1.00
C330   C     0.28133   0.18595   0.11857   0.00000  Uiso   1.00
C331   C     0.23123   0.12804   0.98806   0.00000  Uiso   1.00
C332   C     0.41349   0.28340   0.22013   0.00000  Uiso   1.00
C333   C     0.42641   0.35151   0.19627   0.00000  Uiso   1.00
C334   C     0.46047   0.36124   0.10560   0.00000  Uiso   1.00
C335   C     0.51405   0.40478   0.96763   0.00000  Uiso   1.00
C336   C     0.41449   0.15706   0.19666   0.00000  Uiso   1.00
C337   C     0.41682   0.15366   0.35504   0.00000  Uiso   1.00
C338   C     0.43654   0.10161   0.43204   0.00000  Uiso   1.00
C339   C     0.43517   0.10796   0.57592   0.00000  Uiso   1.00
C340   C     0.36708   0.16167   0.16051   0.00000  Uiso   1.00
C341   C     0.34499   0.11636   0.07392   0.00000  Uiso   1.00
C342   C     0.30174   0.12945   0.05402   0.00000  Uiso   1.00
C343   C     0.43387   0.22701   0.15570   0.00000  Uiso   1.00
C344   C     0.46791   0.23664   0.06504   0.00000  Uiso   1.00
C345   C     0.48088   0.30475   0.04106   0.00000  Uiso   1.00
H346   H     0.36112   0.30478   0.36543   0.00000  Uiso   1.00
H347   H     0.37927   0.26012   0.61309   0.00000  Uiso   1.00
H348   H     0.28773   0.27487   0.25502   0.00000  Uiso   1.00
H349   H     0.41064   0.39513   0.24615   0.00000  Uiso   1.00
H350   H     0.40837   0.18572   0.85926   0.00000  Uiso   1.00
H351   H     0.21535   0.21684   0.10420   0.00000  Uiso   1.00
H352   H     0.47452   0.47043   0.08549   0.00000  Uiso   1.00
H353   H     0.43035   0.11316   0.14649   0.00000  Uiso   1.00
H354   H     0.45231   0.05798   0.38215   0.00000  Uiso   1.00
H355   H     0.36076   0.07273   0.02407   0.00000  Uiso   1.00
H356   H     0.48367   0.19299   0.01520   0.00000  Uiso   1.00
H357   H     0.46764   0.02165   0.67182   0.00000  Uiso   1.00
H358   H     0.27463   0.05277   0.91675   0.00000  Uiso   1.00
H359   H     0.53380   0.30637   0.89804   0.00000  Uiso   1.00
O360   O     0.45119   0.07083   0.92451   0.00000  Uiso   1.00
O361   O     0.19796   0.11167   0.93388   0.00000  Uiso   1.00
O362   O     0.53798   0.44438   0.90934   0.00000  Uiso   1.00
N363   N     0.41932   0.15469   0.78280   0.00000  Uiso   1.00
N364   N     0.23885   0.18377   0.07689   0.00000  Uiso   1.00
N365   N     0.48115   0.42087   0.05936   0.00000  Uiso   1.00
N366   N     0.45121   0.06640   0.68194   0.00000  Uiso   1.00
N367   N     0.27075   0.09549   0.97603   0.00000  Uiso   1.00
N368   N     0.51304   0.33258   0.95850   0.00000  Uiso   1.00
