data_job_06842
_audit_creation_date              2018-12-19
_audit_creation_method            'Materials Studio'
_symmetry_space_group_name_H-M    'P1'
_symmetry_Int_Tables_number       1
_symmetry_cell_setting            triclinic
loop_
_symmetry_equiv_pos_as_xyz
  x,y,z
_cell_length_a                    20.3568
_cell_length_b                    21.3929
_cell_length_c                    22.7354
_cell_angle_alpha                 99.0606
_cell_angle_beta                  88.0296
_cell_angle_gamma                 101.9000
loop_
_atom_site_label
_atom_site_type_symbol
_atom_site_fract_x
_atom_site_fract_y
_atom_site_fract_z
_atom_site_U_iso_or_equiv
_atom_site_adp_type
_atom_site_occupancy
C1     C     0.14861   0.37378   0.92939   0.00000  Uiso   1.00
C2     C     0.11287   0.32619   0.87766   0.00000  Uiso   1.00
C3     C     0.13221   0.26984   0.85093   0.00000  Uiso   1.00
C4     C     0.09287   0.23284   0.80423   0.00000  Uiso   1.00
C5     C     0.04600   0.15612   0.72681   0.00000  Uiso   1.00
C6     C     0.16550   0.43931   0.90797   0.00000  Uiso   1.00
C7     C     0.22909   0.47807   0.90674   0.00000  Uiso   1.00
C8     C     0.23405   0.53631   0.88556   0.00000  Uiso   1.00
C9     C     0.26889   0.63522   0.85524   0.00000  Uiso   1.00
C10    C     0.09602   0.37948   0.97827   0.00000  Uiso   1.00
C11    C     0.10119   0.36796   0.03615   0.00000  Uiso   1.00
C12    C     0.04766   0.37584   0.07416   0.00000  Uiso   1.00
C13    C     0.97463   0.38187   0.15299   0.00000  Uiso   1.00
C14    C     0.04436   0.40828   0.89398   0.00000  Uiso   1.00
C15    C     0.05625   0.34493   0.85842   0.00000  Uiso   1.00
C16    C     0.01686   0.30801   0.81175   0.00000  Uiso   1.00
C17    C     0.03614   0.25161   0.78496   0.00000  Uiso   1.00
C18    C     0.10888   0.45805   0.88874   0.00000  Uiso   1.00
C19    C     0.11375   0.51624   0.86756   0.00000  Uiso   1.00
C20    C     0.17732   0.55508   0.86629   0.00000  Uiso   1.00
C21    C     0.03939   0.39822   0.95903   0.00000  Uiso   1.00
C22    C     0.98585   0.40613   0.99697   0.00000  Uiso   1.00
C23    C     0.99094   0.39462   0.05489   0.00000  Uiso   1.00
H24    H     0.19270   0.35919   0.94437   0.00000  Uiso   1.00
H25    H     0.17604   0.25536   0.86583   0.00000  Uiso   1.00
H26    H     0.27290   0.46356   0.92163   0.00000  Uiso   1.00
H27    H     0.14502   0.35346   0.05102   0.00000  Uiso   1.00
H28    H     0.13260   0.14851   0.77025   0.00000  Uiso   1.00
H29    H     0.33684   0.58753   0.88795   0.00000  Uiso   1.00
H30    H     0.06719   0.35537   0.16079   0.00000  Uiso   1.00
H31    H     0.00027   0.42287   0.87900   0.00000  Uiso   1.00
H32    H     0.97305   0.32253   0.79687   0.00000  Uiso   1.00
H33    H     0.06991   0.53073   0.85268   0.00000  Uiso   1.00
H34    H     0.94204   0.42063   0.98207   0.00000  Uiso   1.00
H35    H     0.96785   0.20303   0.71429   0.00000  Uiso   1.00
H36    H     0.17209   0.64205   0.83198   0.00000  Uiso   1.00
H37    H     0.90244   0.40989   0.10482   0.00000  Uiso   1.00
O38    O     0.03580   0.10862   0.68941   0.00000  Uiso   1.00
O39    O     0.30376   0.68460   0.84383   0.00000  Uiso   1.00
O40    O     0.94998   0.38001   0.20179   0.00000  Uiso   1.00
N41    N     0.09756   0.17511   0.76836   0.00000  Uiso   1.00
N42    N     0.28851   0.58556   0.87839   0.00000  Uiso   1.00
N43    N     0.03642   0.36852   0.13347   0.00000  Uiso   1.00
N44    N     0.00890   0.20444   0.73825   0.00000  Uiso   1.00
N45    N     0.19986   0.61489   0.84827   0.00000  Uiso   1.00
N46    N     0.94777   0.39786   0.10336   0.00000  Uiso   1.00
C47    C     0.00116   0.11185   0.10982   0.00000  Uiso   1.00
C48    C     0.95003   0.05099   0.08627   0.00000  Uiso   1.00
C49    C     0.91988   0.03759   0.03063   0.00000  Uiso   1.00
C50    C     0.87442   0.97927   0.01753   0.00000  Uiso   1.00
C51    C     0.79724   0.89136   0.97473   0.00000  Uiso   1.00
C52    C     0.97202   0.14112   0.16788   0.00000  Uiso   1.00
C53    C     0.96038   0.20351   0.18085   0.00000  Uiso   1.00
C54    C     0.93344   0.22107   0.23645   0.00000  Uiso   1.00
C55    C     0.89045   0.27312   0.32036   0.00000  Uiso   1.00
C56    C     0.06283   0.08881   0.12718   0.00000  Uiso   1.00
C57    C     0.12754   0.10722   0.10594   0.00000  Uiso   1.00
C58    C     0.17705   0.08075   0.12728   0.00000  Uiso   1.00
C59    C     0.27506   0.05157   0.14799   0.00000  Uiso   1.00
C60    C     0.97402   0.03211   0.18551   0.00000  Uiso   1.00
C61    C     0.93529   0.00767   0.12739   0.00000  Uiso   1.00
C62    C     0.88986   0.94936   0.11437   0.00000  Uiso   1.00
C63    C     0.85965   0.93587   0.05872   0.00000  Uiso   1.00
C64    C     0.95728   0.09781   0.20899   0.00000  Uiso   1.00
C65    C     0.93035   0.11528   0.26459   0.00000  Uiso   1.00
C66    C     0.91867   0.17768   0.27764   0.00000  Uiso   1.00
C67    C     0.04809   0.04549   0.16829   0.00000  Uiso   1.00
C68    C     0.09751   0.01899   0.18968   0.00000  Uiso   1.00
C69    C     0.16229   0.03736   0.16847   0.00000  Uiso   1.00
H70    H     0.01263   0.14558   0.07781   0.00000  Uiso   1.00
H71    H     0.93130   0.07112   0.99883   0.00000  Uiso   1.00
H72    H     0.97180   0.23702   0.14903   0.00000  Uiso   1.00
H73    H     0.13893   0.14074   0.07412   0.00000  Uiso   1.00
H74    H     0.83461   0.96948   0.92939   0.00000  Uiso   1.00
H75    H     0.92002   0.31930   0.24610   0.00000  Uiso   1.00
H76    H     0.27245   0.11628   0.08816   0.00000  Uiso   1.00
H77    H     0.96254   0.99839   0.21752   0.00000  Uiso   1.00
H78    H     0.87846   0.91585   0.14620   0.00000  Uiso   1.00
H79    H     0.91895   0.08175   0.29640   0.00000  Uiso   1.00
H80    H     0.08608   0.98547   0.22149   0.00000  Uiso   1.00
H81    H     0.79171   0.84345   0.04900   0.00000  Uiso   1.00
H82    H     0.87713   0.19328   0.36572   0.00000  Uiso   1.00
H83    H     0.22956   0.99026   0.20777   0.00000  Uiso   1.00
O84    O     0.75873   0.85484   0.93976   0.00000  Uiso   1.00
O85    O     0.87081   0.31379   0.35528   0.00000  Uiso   1.00
O86    O     0.33318   0.04743   0.14805   0.00000  Uiso   1.00
N87    N     0.83606   0.95114   0.96733   0.00000  Uiso   1.00
N88    N     0.91591   0.27820   0.26343   0.00000  Uiso   1.00
N89    N     0.24540   0.08841   0.11577   0.00000  Uiso   1.00
N90    N     0.81298   0.88333   0.03169   0.00000  Uiso   1.00
N91    N     0.89283   0.21039   0.32779   0.00000  Uiso   1.00
N92    N     0.22232   0.02059   0.18014   0.00000  Uiso   1.00
C93    C     0.26574   0.89460   0.92228   0.00000  Uiso   1.00
C94    C     0.22623   0.85327   0.86914   0.00000  Uiso   1.00
C95    C     0.15997   0.82045   0.87033   0.00000  Uiso   1.00
C96    C     0.13291   0.78529   0.81700   0.00000  Uiso   1.00
C97    C     0.06580   0.72143   0.74249   0.00000  Uiso   1.00
C98    C     0.32806   0.86651   0.92700   0.00000  Uiso   1.00
C99    C     0.34741   0.84484   0.97685   0.00000  Uiso   1.00
C100   C     0.40607   0.82084   0.97223   0.00000  Uiso   1.00
C101   C     0.49707   0.77758   0.98757   0.00000  Uiso   1.00
C102   C     0.29075   0.96119   0.90433   0.00000  Uiso   1.00
C103   C     0.27876   0.01914   0.93513   0.00000  Uiso   1.00
C104   C     0.30602   0.07485   0.91142   0.00000  Uiso   1.00
C105   C     0.33910   0.17860   0.89157   0.00000  Uiso   1.00
C106   C     0.33550   0.89050   0.82544   0.00000  Uiso   1.00
C107   C     0.26413   0.85105   0.81654   0.00000  Uiso   1.00
C108   C     0.23715   0.81592   0.76319   0.00000  Uiso   1.00
C109   C     0.17086   0.78306   0.76430   0.00000  Uiso   1.00
C110   C     0.36595   0.86429   0.87440   0.00000  Uiso   1.00
C111   C     0.42459   0.84031   0.86971   0.00000  Uiso   1.00
C112   C     0.44402   0.81861   0.91953   0.00000  Uiso   1.00
C113   C     0.32864   0.95897   0.85173   0.00000  Uiso   1.00
C114   C     0.35593   0.01461   0.82798   0.00000  Uiso   1.00
C115   C     0.34398   0.07262   0.85873   0.00000  Uiso   1.00
H116   H     0.23625   0.89633   0.96323   0.00000  Uiso   1.00
H117   H     0.13067   0.82218   0.91105   0.00000  Uiso   1.00
H118   H     0.31808   0.84657   0.01755   0.00000  Uiso   1.00
H119   H     0.24944   0.02084   0.97583   0.00000  Uiso   1.00
H120   H     0.03033   0.73898   0.83000   0.00000  Uiso   1.00
H121   H     0.42551   0.79043   0.05458   0.00000  Uiso   1.00
H122   H     0.28076   0.15791   0.96660   0.00000  Uiso   1.00
H123   H     0.36500   0.88877   0.78448   0.00000  Uiso   1.00
H124   H     0.26648   0.81421   0.72249   0.00000  Uiso   1.00
H125   H     0.45390   0.83860   0.82899   0.00000  Uiso   1.00
H126   H     0.38525   0.01287   0.78727   0.00000  Uiso   1.00
H127   H     0.14056   0.73251   0.67696   0.00000  Uiso   1.00
H128   H     0.53575   0.78396   0.90154   0.00000  Uiso   1.00
H129   H     0.39099   0.15144   0.81356   0.00000  Uiso   1.00
O130   O     0.01832   0.68682   0.71593   0.00000  Uiso   1.00
O131   O     0.53679   0.75433   0.01057   0.00000  Uiso   1.00
O132   O     0.34687   0.23645   0.89514   0.00000  Uiso   1.00
N133   N     0.06979   0.74770   0.80249   0.00000  Uiso   1.00
N134   N     0.43926   0.79580   0.01245   0.00000  Uiso   1.00
N135   N     0.30394   0.13935   0.93021   0.00000  Uiso   1.00
N136   N     0.12911   0.74422   0.72014   0.00000  Uiso   1.00
N137   N     0.49857   0.79231   0.93010   0.00000  Uiso   1.00
N138   N     0.36325   0.13587   0.84786   0.00000  Uiso   1.00
C139   C     0.71089   0.41060   0.74658   0.00000  Uiso   1.00
C140   C     0.66042   0.35246   0.71641   0.00000  Uiso   1.00
C141   C     0.67364   0.30819   0.66827   0.00000  Uiso   1.00
C142   C     0.62072   0.25838   0.64715   0.00000  Uiso   1.00
C143   C     0.55207   0.16890   0.59635   0.00000  Uiso   1.00
C144   C     0.71131   0.40311   0.81216   0.00000  Uiso   1.00
C145   C     0.76733   0.40144   0.84452   0.00000  Uiso   1.00
C146   C     0.75726   0.39427   0.90400   0.00000  Uiso   1.00
C147   C     0.76763   0.38348   0.00187   0.00000  Uiso   1.00
C148   C     0.68041   0.46954   0.74413   0.00000  Uiso   1.00
C149   C     0.71045   0.52372   0.71930   0.00000  Uiso   1.00
C150   C     0.67436   0.57249   0.72153   0.00000  Uiso   1.00
C151   C     0.63675   0.66483   0.71376   0.00000  Uiso   1.00
C152   C     0.59338   0.40087   0.79467   0.00000  Uiso   1.00
C153   C     0.59659   0.34718   0.74254   0.00000  Uiso   1.00
C154   C     0.54363   0.29743   0.72148   0.00000  Uiso   1.00
C155   C     0.55678   0.25309   0.67332   0.00000  Uiso   1.00
C156   C     0.64749   0.39783   0.83828   0.00000  Uiso   1.00
C157   C     0.63733   0.39067   0.89773   0.00000  Uiso   1.00
C158   C     0.69332   0.38898   0.93018   0.00000  Uiso   1.00
C159   C     0.61658   0.46426   0.77025   0.00000  Uiso   1.00
C160   C     0.58044   0.51295   0.77252   0.00000  Uiso   1.00
C161   C     0.61042   0.56720   0.74770   0.00000  Uiso   1.00
H162   H     0.76058   0.41471   0.72624   0.00000  Uiso   1.00
H163   H     0.72305   0.31229   0.64807   0.00000  Uiso   1.00
H164   H     0.81672   0.40553   0.82429   0.00000  Uiso   1.00
H165   H     0.75984   0.52779   0.69909   0.00000  Uiso   1.00
H166   H     0.65329   0.19640   0.57293   0.00000  Uiso   1.00
H167   H     0.85082   0.39302   0.94451   0.00000  Uiso   1.00
H168   H     0.73088   0.65084   0.68051   0.00000  Uiso   1.00
H169   H     0.54369   0.39675   0.81502   0.00000  Uiso   1.00
H170   H     0.49425   0.29335   0.74171   0.00000  Uiso   1.00
H171   H     0.58793   0.38659   0.91794   0.00000  Uiso   1.00
H172   H     0.53105   0.50885   0.79274   0.00000  Uiso   1.00
H173   H     0.46759   0.18102   0.64894   0.00000  Uiso   1.00
H174   H     0.66512   0.37765   0.02052   0.00000  Uiso   1.00
H175   H     0.54518   0.63546   0.75652   0.00000  Uiso   1.00
O176   O     0.53184   0.12100   0.56112   0.00000  Uiso   1.00
O177   O     0.79099   0.37898   0.04863   0.00000  Uiso   1.00
O178   O     0.63363   0.71722   0.70226   0.00000  Uiso   1.00
N179   N     0.61637   0.20698   0.60087   0.00000  Uiso   1.00
N180   N     0.80104   0.39080   0.94828   0.00000  Uiso   1.00
N181   N     0.68892   0.63184   0.70147   0.00000  Uiso   1.00
N182   N     0.51645   0.19871   0.64177   0.00000  Uiso   1.00
N183   N     0.70112   0.38253   0.98918   0.00000  Uiso   1.00
N184   N     0.58899   0.62357   0.74237   0.00000  Uiso   1.00
C185   C     0.29308   0.79204   0.57790   0.00000  Uiso   1.00
C186   C     0.29542   0.76099   0.51292   0.00000  Uiso   1.00
C187   C     0.24102   0.72441   0.47960   0.00000  Uiso   1.00
C188   C     0.25355   0.70024   0.42089   0.00000  Uiso   1.00
C189   C     0.24734   0.65023   0.32370   0.00000  Uiso   1.00
C190   C     0.32188   0.86394   0.57924   0.00000  Uiso   1.00
C191   C     0.28972   0.91393   0.60169   0.00000  Uiso   1.00
C192   C     0.32453   0.97643   0.59882   0.00000  Uiso   1.00
C193   C     0.35941   0.08626   0.60463   0.00000  Uiso   1.00
C194   C     0.34349   0.76635   0.61069   0.00000  Uiso   1.00
C195   C     0.32953   0.73429   0.65961   0.00000  Uiso   1.00
C196   C     0.38254   0.71463   0.68323   0.00000  Uiso   1.00
C197   C     0.45099   0.67293   0.73788   0.00000  Uiso   1.00
C198   C     0.41207   0.81416   0.53288   0.00000  Uiso   1.00
C199   C     0.36005   0.77301   0.48846   0.00000  Uiso   1.00
C200   C     0.37266   0.74889   0.42979   0.00000  Uiso   1.00
C201   C     0.31829   0.71228   0.39639   0.00000  Uiso   1.00
C202   C     0.38650   0.87596   0.55479   0.00000  Uiso   1.00
C203   C     0.42137   0.93840   0.55188   0.00000  Uiso   1.00
C204   C     0.38928   0.98847   0.57432   0.00000  Uiso   1.00
C205   C     0.40812   0.77836   0.58624   0.00000  Uiso   1.00
C206   C     0.46117   0.75876   0.60980   0.00000  Uiso   1.00
C207   C     0.44728   0.72667   0.65873   0.00000  Uiso   1.00
H208   H     0.24277   0.78269   0.59694   0.00000  Uiso   1.00
H209   H     0.19101   0.71513   0.49854   0.00000  Uiso   1.00
H210   H     0.23971   0.90462   0.62062   0.00000  Uiso   1.00
H211   H     0.27951   0.72500   0.67852   0.00000  Uiso   1.00
H212   H     0.16213   0.64554   0.37865   0.00000  Uiso   1.00
H213   H     0.26483   0.04509   0.63608   0.00000  Uiso   1.00
H214   H     0.34874   0.66634   0.75818   0.00000  Uiso   1.00
H215   H     0.46238   0.82352   0.51384   0.00000  Uiso   1.00
H216   H     0.42268   0.75819   0.41088   0.00000  Uiso   1.00
H217   H     0.47138   0.94768   0.53296   0.00000  Uiso   1.00
H218   H     0.51117   0.76807   0.59086   0.00000  Uiso   1.00
H219   H     0.35016   0.68050   0.30750   0.00000  Uiso   1.00
H220   H     0.45285   0.08005   0.56494   0.00000  Uiso   1.00
H221   H     0.53677   0.70129   0.68704   0.00000  Uiso   1.00
O222   O     0.22606   0.61933   0.27684   0.00000  Uiso   1.00
O223   O     0.36079   0.14352   0.61459   0.00000  Uiso   1.00
O224   O     0.47088   0.64660   0.77478   0.00000  Uiso   1.00
N225   N     0.21183   0.66272   0.37604   0.00000  Uiso   1.00
N226   N     0.30784   0.03628   0.61671   0.00000  Uiso   1.00
N227   N     0.38630   0.68219   0.73088   0.00000  Uiso   1.00
N228   N     0.31301   0.68153   0.33776   0.00000  Uiso   1.00
N229   N     0.40902   0.05509   0.57843   0.00000  Uiso   1.00
N230   N     0.48748   0.70100   0.69259   0.00000  Uiso   1.00
C231   C     0.84428   0.62961   0.30552   0.00000  Uiso   1.00
C232   C     0.81408   0.56328   0.27119   0.00000  Uiso   1.00
C233   C     0.75911   0.54932   0.23343   0.00000  Uiso   1.00
C234   C     0.73924   0.48564   0.20619   0.00000  Uiso   1.00
C235   C     0.68720   0.38994   0.15131   0.00000  Uiso   1.00
C236   C     0.91802   0.64391   0.28732   0.00000  Uiso   1.00
C237   C     0.95044   0.69776   0.26313   0.00000  Uiso   1.00
C238   C     0.01806   0.70195   0.24947   0.00000  Uiso   1.00
C239   C     0.12739   0.73145   0.21968   0.00000  Uiso   1.00
C240   C     0.84355   0.62115   0.37091   0.00000  Uiso   1.00
C241   C     0.81338   0.65588   0.41700   0.00000  Uiso   1.00
C242   C     0.81832   0.64092   0.47372   0.00000  Uiso   1.00
C243   C     0.81204   0.63509   0.57371   0.00000  Uiso   1.00
C244   C     0.90673   0.54132   0.32430   0.00000  Uiso   1.00
C245   C     0.84800   0.51532   0.28139   0.00000  Uiso   1.00
C246   C     0.82821   0.45164   0.25420   0.00000  Uiso   1.00
C247   C     0.77322   0.43759   0.21641   0.00000  Uiso   1.00
C248   C     0.95194   0.59595   0.29752   0.00000  Uiso   1.00
C249   C     0.01953   0.60007   0.28390   0.00000  Uiso   1.00
C250   C     0.05204   0.65390   0.25969   0.00000  Uiso   1.00
C251   C     0.87747   0.57319   0.38111   0.00000  Uiso   1.00
C252   C     0.88247   0.55819   0.43777   0.00000  Uiso   1.00
C253   C     0.85231   0.59288   0.48394   0.00000  Uiso   1.00
H254   H     0.81788   0.66695   0.29758   0.00000  Uiso   1.00
H255   H     0.73288   0.58645   0.22554   0.00000  Uiso   1.00
H256   H     0.92417   0.73486   0.25525   0.00000  Uiso   1.00
H257   H     0.78714   0.69298   0.40909   0.00000  Uiso   1.00
H258   H     0.65362   0.47606   0.15016   0.00000  Uiso   1.00
H259   H     0.05697   0.78900   0.21281   0.00000  Uiso   1.00
H260   H     0.76801   0.70070   0.53722   0.00000  Uiso   1.00
H261   H     0.93314   0.50398   0.33224   0.00000  Uiso   1.00
H262   H     0.85446   0.41454   0.26210   0.00000  Uiso   1.00
H263   H     0.04576   0.56295   0.29180   0.00000  Uiso   1.00
H264   H     0.90872   0.52107   0.44565   0.00000  Uiso   1.00
H265   H     0.75230   0.33653   0.17983   0.00000  Uiso   1.00
H266   H     0.15566   0.64947   0.24248   0.00000  Uiso   1.00
H267   H     0.86669   0.56116   0.56689   0.00000  Uiso   1.00
O268   O     0.64914   0.35040   0.11822   0.00000  Uiso   1.00
O269   O     0.17833   0.76097   0.20042   0.00000  Uiso   1.00
O270   O     0.79920   0.64512   0.62604   0.00000  Uiso   1.00
N271   N     0.68763   0.45549   0.16678   0.00000  Uiso   1.00
N272   N     0.06474   0.74807   0.22534   0.00000  Uiso   1.00
N273   N     0.79460   0.66553   0.52864   0.00000  Uiso   1.00
N274   N     0.74073   0.38041   0.18274   0.00000  Uiso   1.00
N275   N     0.11784   0.67299   0.24130   0.00000  Uiso   1.00
N276   N     0.84770   0.59044   0.54461   0.00000  Uiso   1.00
C277   C     0.85689   0.70905   0.90706   0.00000  Uiso   1.00
C278   C     0.92159   0.74796   0.93711   0.00000  Uiso   1.00
C279   C     0.93994   0.81490   0.94817   0.00000  Uiso   1.00
C280   C     0.00117   0.84125   0.97614   0.00000  Uiso   1.00
C281   C     0.09534   0.90764   0.02035   0.00000  Uiso   1.00
C282   C     0.82292   0.66507   0.95068   0.00000  Uiso   1.00
C283   C     0.75830   0.66231   0.97315   0.00000  Uiso   1.00
C284   C     0.73647   0.61886   0.01254   0.00000  Uiso   1.00
C285   C     0.67743   0.55652   0.07779   0.00000  Uiso   1.00
C286   C     0.87830   0.66461   0.85395   0.00000  Uiso   1.00
C287   C     0.86023   0.66144   0.79508   0.00000  Uiso   1.00
C288   C     0.88501   0.61760   0.75303   0.00000  Uiso   1.00
C289   C     0.91196   0.55454   0.66809   0.00000  Uiso   1.00
C290   C     0.93301   0.63680   0.93706   0.00000  Uiso   1.00
C291   C     0.96294   0.70872   0.95340   0.00000  Uiso   1.00
C292   C     0.02416   0.73497   0.98136   0.00000  Uiso   1.00
C293   C     0.04259   0.80194   0.99246   0.00000  Uiso   1.00
C294   C     0.86427   0.62583   0.96698   0.00000  Uiso   1.00
C295   C     0.84252   0.58237   0.00634   0.00000  Uiso   1.00
C296   C     0.77789   0.57955   0.02887   0.00000  Uiso   1.00
C297   C     0.91965   0.62536   0.87024   0.00000  Uiso   1.00
C298   C     0.94446   0.58151   0.82827   0.00000  Uiso   1.00
C299   C     0.92643   0.57828   0.76936   0.00000  Uiso   1.00
H300   H     0.82469   0.73960   0.89438   0.00000  Uiso   1.00
H301   H     0.90792   0.84526   0.93556   0.00000  Uiso   1.00
H302   H     0.72631   0.69268   0.96053   0.00000  Uiso   1.00
H303   H     0.82824   0.69182   0.78249   0.00000  Uiso   1.00
H304   H     0.01842   0.94509   0.98843   0.00000  Uiso   1.00
H305   H     0.63548   0.62335   0.04106   0.00000  Uiso   1.00
H306   H     0.85040   0.62154   0.66563   0.00000  Uiso   1.00
H307   H     0.96520   0.60625   0.94974   0.00000  Uiso   1.00
H308   H     0.05615   0.70459   0.99396   0.00000  Uiso   1.00
H309   H     0.87453   0.55201   0.01893   0.00000  Uiso   1.00
H310   H     0.97645   0.55115   0.84090   0.00000  Uiso   1.00
H311   H     0.13872   0.83092   0.03583   0.00000  Uiso   1.00
H312   H     0.75578   0.50918   0.08846   0.00000  Uiso   1.00
H313   H     0.97070   0.50737   0.71303   0.00000  Uiso   1.00
O314   O     0.13586   0.95510   0.04024   0.00000  Uiso   1.00
O315   O     0.63345   0.53299   0.10928   0.00000  Uiso   1.00
O316   O     0.91542   0.53061   0.61673   0.00000  Uiso   1.00
N317   N     0.03426   0.90472   0.99351   0.00000  Uiso   1.00
N318   N     0.67624   0.60393   0.04272   0.00000  Uiso   1.00
N319   N     0.87715   0.60222   0.69173   0.00000  Uiso   1.00
N320   N     0.09899   0.84329   0.01901   0.00000  Uiso   1.00
N321   N     0.74097   0.54249   0.06823   0.00000  Uiso   1.00
N322   N     0.94189   0.54078   0.71723   0.00000  Uiso   1.00
C323   C     0.94703   0.79344   0.64742   0.00000  Uiso   1.00
C324   C     0.99734   0.85502   0.67068   0.00000  Uiso   1.00
C325   C     0.02751   0.86925   0.72633   0.00000  Uiso   1.00
C326   C     0.07216   0.92812   0.73914   0.00000  Uiso   1.00
C327   C     0.14819   0.01718   0.78153   0.00000  Uiso   1.00
C328   C     0.97660   0.76432   0.58952   0.00000  Uiso   1.00
C329   C     0.98932   0.70230   0.57694   0.00000  Uiso   1.00
C330   C     0.01650   0.68483   0.52142   0.00000  Uiso   1.00
C331   C     0.06028   0.63306   0.43780   0.00000  Uiso   1.00
C332   C     0.88472   0.81527   0.62983   0.00000  Uiso   1.00
C333   C     0.82017   0.79608   0.65113   0.00000  Uiso   1.00
C334   C     0.76998   0.82149   0.62954   0.00000  Uiso   1.00
C335   C     0.67110   0.84884   0.60851   0.00000  Uiso   1.00
C336   C     0.97267   0.87267   0.57119   0.00000  Uiso   1.00
C337   C     0.01128   0.89805   0.62927   0.00000  Uiso   1.00
C338   C     0.05589   0.95692   0.64199   0.00000  Uiso   1.00
C339   C     0.08611   0.97124   0.69766   0.00000  Uiso   1.00
C340   C     0.99053   0.80736   0.54811   0.00000  Uiso   1.00
C341   C     0.01769   0.78997   0.49260   0.00000  Uiso   1.00
C342   C     0.03045   0.72794   0.47994   0.00000  Uiso   1.00
C343   C     0.89865   0.85831   0.58843   0.00000  Uiso   1.00
C344   C     0.84855   0.88375   0.56679   0.00000  Uiso   1.00
C345   C     0.78394   0.86461   0.58806   0.00000  Uiso   1.00
H346   H     0.93618   0.75993   0.67965   0.00000  Uiso   1.00
H347   H     0.01672   0.83593   0.75836   0.00000  Uiso   1.00
H348   H     0.97853   0.66901   0.60899   0.00000  Uiso   1.00
H349   H     0.80941   0.76278   0.68317   0.00000  Uiso   1.00
H350   H     0.11217   0.93916   0.82735   0.00000  Uiso   1.00
H351   H     0.03162   0.58719   0.51238   0.00000  Uiso   1.00
H352   H     0.67499   0.78491   0.66881   0.00000  Uiso   1.00
H353   H     0.98352   0.90618   0.53895   0.00000  Uiso   1.00
H354   H     0.06666   0.99021   0.60994   0.00000  Uiso   1.00
H355   H     0.02846   0.82329   0.46057   0.00000  Uiso   1.00
H356   H     0.85934   0.91706   0.53475   0.00000  Uiso   1.00
H357   H     0.15271   0.06438   0.70689   0.00000  Uiso   1.00
H358   H     0.07215   0.71240   0.39192   0.00000  Uiso   1.00
H359   H     0.71553   0.91013   0.54835   0.00000  Uiso   1.00
O360   O     0.18629   0.05440   0.81635   0.00000  Uiso   1.00
O361   O     0.08059   0.59262   0.40312   0.00000  Uiso   1.00
O362   O     0.61271   0.85204   0.60835   0.00000  Uiso   1.00
N363   N     0.11029   0.95711   0.78927   0.00000  Uiso   1.00
N364   N     0.03499   0.62803   0.49479   0.00000  Uiso   1.00
N365   N     0.70157   0.81288   0.64102   0.00000  Uiso   1.00
N366   N     0.13210   0.02449   0.72445   0.00000  Uiso   1.00
N367   N     0.05680   0.69541   0.42997   0.00000  Uiso   1.00
N368   N     0.72338   0.88026   0.57620   0.00000  Uiso   1.00
C369   C     0.88850   0.00061   0.76252   0.00000  Uiso   1.00
C370   C     0.91592   0.05443   0.81318   0.00000  Uiso   1.00
C371   C     0.97730   0.06288   0.84122   0.00000  Uiso   1.00
C372   C     0.99321   0.11509   0.88659   0.00000  Uiso   1.00
C373   C     0.04249   0.19226   0.96270   0.00000  Uiso   1.00
C374   C     0.87349   0.03416   0.71160   0.00000  Uiso   1.00
C375   C     0.89919   0.02557   0.65423   0.00000  Uiso   1.00
C376   C     0.87937   0.06072   0.61408   0.00000  Uiso   1.00
C377   C     0.86274   0.10639   0.53247   0.00000  Uiso   1.00
C378   C     0.82064   0.96648   0.78382   0.00000  Uiso   1.00
C379   C     0.80190   0.90098   0.78716   0.00000  Uiso   1.00
C380   C     0.73757   0.87914   0.80782   0.00000  Uiso   1.00
C381   C     0.63888   0.81973   0.83834   0.00000  Uiso   1.00
C382   C     0.80759   0.07830   0.79324   0.00000  Uiso   1.00
C383   C     0.87197   0.09663   0.82986   0.00000  Uiso   1.00
C384   C     0.88779   0.14884   0.87521   0.00000  Uiso   1.00
C385   C     0.94918   0.15737   0.90331   0.00000  Uiso   1.00
C386   C     0.82954   0.07636   0.72828   0.00000  Uiso   1.00
C387   C     0.80967   0.11153   0.68821   0.00000  Uiso   1.00
C388   C     0.83534   0.10300   0.63080   0.00000  Uiso   1.00
C389   C     0.77669   0.00868   0.80051   0.00000  Uiso   1.00
C390   C     0.71238   0.98694   0.82116   0.00000  Uiso   1.00
C391   C     0.69355   0.92142   0.82453   0.00000  Uiso   1.00
H392   H     0.92271   0.96775   0.74952   0.00000  Uiso   1.00
H393   H     0.01131   0.03021   0.82829   0.00000  Uiso   1.00
H394   H     0.93320   0.99290   0.64133   0.00000  Uiso   1.00
H395   H     0.83592   0.86834   0.77425   0.00000  Uiso   1.00
H396   H     0.09015   0.11809   0.92296   0.00000  Uiso   1.00
H397   H     0.92544   0.03940   0.52873   0.00000  Uiso   1.00
H398   H     0.72031   0.77672   0.80902   0.00000  Uiso   1.00
H399   H     0.77337   0.11116   0.80623   0.00000  Uiso   1.00
H400   H     0.85377   0.18149   0.88811   0.00000  Uiso   1.00
H401   H     0.77566   0.14418   0.70114   0.00000  Uiso   1.00
H402   H     0.67839   0.01961   0.83406   0.00000  Uiso   1.00
H403   H     0.96229   0.24087   0.97151   0.00000  Uiso   1.00
H404   H     0.79758   0.16218   0.57728   0.00000  Uiso   1.00
H405   H     0.59245   0.89950   0.85757   0.00000  Uiso   1.00
O406   O     0.08182   0.22317   0.00007   0.00000  Uiso   1.00
O407   O     0.86571   0.11993   0.48285   0.00000  Uiso   1.00
O408   O     0.59659   0.77530   0.85058   0.00000  Uiso   1.00
N409   N     0.04902   0.13733   0.92316   0.00000  Uiso   1.00
N410   N     0.89504   0.06377   0.55458   0.00000  Uiso   1.00
N411   N     0.70325   0.81818   0.81661   0.00000  Uiso   1.00
N412   N     0.98022   0.20339   0.94929   0.00000  Uiso   1.00
N413   N     0.82624   0.12983   0.58070   0.00000  Uiso   1.00
N414   N     0.63445   0.88425   0.84273   0.00000  Uiso   1.00
C415   C     0.31248   0.53354   0.15807   0.00000  Uiso   1.00
C416   C     0.38555   0.55687   0.17745   0.00000  Uiso   1.00
C417   C     0.40813   0.57369   0.23583   0.00000  Uiso   1.00
C418   C     0.47693   0.59386   0.24426   0.00000  Uiso   1.00
C419   C     0.58361   0.62962   0.28169   0.00000  Uiso   1.00
C420   C     0.29920   0.57957   0.11712   0.00000  Uiso   1.00
C421   C     0.24916   0.61547   0.12477   0.00000  Uiso   1.00
C422   C     0.24526   0.65475   0.08241   0.00000  Uiso   1.00
C423   C     0.21783   0.72572   0.02615   0.00000  Uiso   1.00
C424   C     0.30892   0.46824   0.11874   0.00000  Uiso   1.00
C425   C     0.26705   0.41054   0.12775   0.00000  Uiso   1.00
C426   C     0.27133   0.35609   0.08675   0.00000  Uiso   1.00
C427   C     0.25900   0.25421   0.03302   0.00000  Uiso   1.00
C428   C     0.39452   0.53945   0.06921   0.00000  Uiso   1.00
C429   C     0.43011   0.56008   0.12918   0.00000  Uiso   1.00
C430   C     0.49890   0.58023   0.13752   0.00000  Uiso   1.00
C431   C     0.52157   0.59707   0.19591   0.00000  Uiso   1.00
C432   C     0.34376   0.58278   0.06886   0.00000  Uiso   1.00
C433   C     0.33993   0.62201   0.02647   0.00000  Uiso   1.00
C434   C     0.28990   0.65796   0.03406   0.00000  Uiso   1.00
C435   C     0.35348   0.47145   0.07048   0.00000  Uiso   1.00
C436   C     0.35782   0.41708   0.02945   0.00000  Uiso   1.00
C437   C     0.31597   0.35931   0.03840   0.00000  Uiso   1.00
H438   H     0.27779   0.53105   0.19564   0.00000  Uiso   1.00
H439   H     0.37363   0.57120   0.27317   0.00000  Uiso   1.00
H440   H     0.21468   0.61297   0.16212   0.00000  Uiso   1.00
H441   H     0.23257   0.40808   0.16511   0.00000  Uiso   1.00
H442   H     0.49953   0.61717   0.33784   0.00000  Uiso   1.00
H443   H     0.16436   0.70522   0.10369   0.00000  Uiso   1.00
H444   H     0.20209   0.27316   0.10997   0.00000  Uiso   1.00
H445   H     0.42922   0.54195   0.03163   0.00000  Uiso   1.00
H446   H     0.53337   0.58271   0.10017   0.00000  Uiso   1.00
H447   H     0.37442   0.62448   0.98912   0.00000  Uiso   1.00
H448   H     0.39231   0.41958   0.99210   0.00000  Uiso   1.00
H449   H     0.62918   0.62651   0.19742   0.00000  Uiso   1.00
H450   H     0.29401   0.71456   0.96327   0.00000  Uiso   1.00
H451   H     0.33174   0.28250   0.96956   0.00000  Uiso   1.00
O452   O     0.63014   0.64847   0.31567   0.00000  Uiso   1.00
O453   O     0.19040   0.76398   0.00847   0.00000  Uiso   1.00
O454   O     0.23990   0.19713   0.01672   0.00000  Uiso   1.00
N455   N     0.51575   0.61376   0.29539   0.00000  Uiso   1.00
N456   N     0.20239   0.69609   0.07647   0.00000  Uiso   1.00
N457   N     0.23766   0.29215   0.08234   0.00000  Uiso   1.00
N458   N     0.58552   0.61878   0.21983   0.00000  Uiso   1.00
N459   N     0.27216   0.70112   0.00092   0.00000  Uiso   1.00
N460   N     0.30742   0.29718   0.00679   0.00000  Uiso   1.00
C461   C     0.63402   0.15052   0.22042   0.00000  Uiso   1.00
C462   C     0.66459   0.15045   0.28070   0.00000  Uiso   1.00
C463   C     0.65448   0.18999   0.33334   0.00000  Uiso   1.00
C464   C     0.68694   0.18252   0.38372   0.00000  Uiso   1.00
C465   C     0.72818   0.18934   0.47767   0.00000  Uiso   1.00
C466   C     0.69293   0.16237   0.17753   0.00000  Uiso   1.00
C467   C     0.70666   0.21193   0.14340   0.00000  Uiso   1.00
C468   C     0.76297   0.21449   0.10693   0.00000  Uiso   1.00
C469   C     0.84819   0.23979   0.04065   0.00000  Uiso   1.00
C470   C     0.59636   0.08146   0.20020   0.00000  Uiso   1.00
C471   C     0.52888   0.06298   0.18513   0.00000  Uiso   1.00
C472   C     0.50389   0.99741   0.16774   0.00000  Uiso   1.00
C473   C     0.43916   0.89708   0.13667   0.00000  Uiso   1.00
C474   C     0.70961   0.06692   0.21631   0.00000  Uiso   1.00
C475   C     0.70565   0.10504   0.27847   0.00000  Uiso   1.00
C476   C     0.73812   0.09750   0.32879   0.00000  Uiso   1.00
C477   C     0.72807   0.13703   0.38149   0.00000  Uiso   1.00
C478   C     0.73399   0.11696   0.17529   0.00000  Uiso   1.00
C479   C     0.79029   0.11944   0.13886   0.00000  Uiso   1.00
C480   C     0.80410   0.16900   0.10469   0.00000  Uiso   1.00
C481   C     0.63742   0.03605   0.19797   0.00000  Uiso   1.00
C482   C     0.61252   0.97049   0.18059   0.00000  Uiso   1.00
C483   C     0.54502   0.95192   0.16550   0.00000  Uiso   1.00
H484   H     0.60206   0.18587   0.22215   0.00000  Uiso   1.00
H485   H     0.62271   0.22513   0.33505   0.00000  Uiso   1.00
H486   H     0.67487   0.24706   0.14514   0.00000  Uiso   1.00
H487   H     0.49713   0.09814   0.18687   0.00000  Uiso   1.00
H488   H     0.66373   0.24865   0.45922   0.00000  Uiso   1.00
H489   H     0.77370   0.29488   0.05877   0.00000  Uiso   1.00
H490   H     0.39889   0.98084   0.14676   0.00000  Uiso   1.00
H491   H     0.74158   0.03157   0.21457   0.00000  Uiso   1.00
H492   H     0.76989   0.06236   0.32705   0.00000  Uiso   1.00
H493   H     0.82205   0.08429   0.13714   0.00000  Uiso   1.00
H494   H     0.64431   0.93536   0.17886   0.00000  Uiso   1.00
H495   H     0.78319   0.11654   0.45273   0.00000  Uiso   1.00
H496   H     0.89316   0.16277   0.05228   0.00000  Uiso   1.00
H497   H     0.51835   0.84873   0.14027   0.00000  Uiso   1.00
O498   O     0.73959   0.20565   0.53010   0.00000  Uiso   1.00
O499   O     0.88385   0.26629   0.00472   0.00000  Uiso   1.00
O500   O     0.39211   0.85428   0.12016   0.00000  Uiso   1.00
N501   N     0.68795   0.21332   0.44226   0.00000  Uiso   1.00
N502   N     0.79077   0.25655   0.06787   0.00000  Uiso   1.00
N503   N     0.44036   0.96295   0.15012   0.00000  Uiso   1.00
N504   N     0.75223   0.14223   0.43876   0.00000  Uiso   1.00
N505   N     0.85505   0.18546   0.06438   0.00000  Uiso   1.00
N506   N     0.50464   0.89186   0.14662   0.00000  Uiso   1.00
C507   C     0.23454   0.36344   0.47765   0.00000  Uiso   1.00
C508   C     0.20431   0.42000   0.50761   0.00000  Uiso   1.00
C509   C     0.23993   0.48174   0.52842   0.00000  Uiso   1.00
C510   C     0.20305   0.52669   0.55448   0.00000  Uiso   1.00
C511   C     0.16676   0.61698   0.60027   0.00000  Uiso   1.00
C512   C     0.21122   0.30898   0.51425   0.00000  Uiso   1.00
C513   C     0.25265   0.27737   0.54063   0.00000  Uiso   1.00
C514   C     0.22157   0.22886   0.57227   0.00000  Uiso   1.00
C515   C     0.19601   0.14675   0.62833   0.00000  Uiso   1.00
C516   C     0.19978   0.34081   0.41744   0.00000  Uiso   1.00
C517   C     0.23159   0.33595   0.36242   0.00000  Uiso   1.00
C518   C     0.19088   0.31423   0.31256   0.00000  Uiso   1.00
C519   C     0.14756   0.28155   0.21830   0.00000  Uiso   1.00
C520   C     0.10568   0.33349   0.48692   0.00000  Uiso   1.00
C521   C     0.13432   0.40373   0.51265   0.00000  Uiso   1.00
C522   C     0.09736   0.44860   0.53869   0.00000  Uiso   1.00
C523   C     0.13293   0.51040   0.55953   0.00000  Uiso   1.00
C524   C     0.14123   0.29271   0.51929   0.00000  Uiso   1.00
C525   C     0.11008   0.24423   0.55090   0.00000  Uiso   1.00
C526   C     0.15145   0.21256   0.57732   0.00000  Uiso   1.00
C527   C     0.12979   0.32455   0.42248   0.00000  Uiso   1.00
C528   C     0.08902   0.30282   0.37269   0.00000  Uiso   1.00
C529   C     0.12077   0.29793   0.31761   0.00000  Uiso   1.00
H530   H     0.28903   0.37610   0.47372   0.00000  Uiso   1.00
H531   H     0.29410   0.49431   0.52452   0.00000  Uiso   1.00
H532   H     0.30681   0.28996   0.53672   0.00000  Uiso   1.00
H533   H     0.28576   0.34854   0.35854   0.00000  Uiso   1.00
H534   H     0.26886   0.61818   0.58307   0.00000  Uiso   1.00
H535   H     0.29566   0.18730   0.60878   0.00000  Uiso   1.00
H536   H     0.25126   0.31082   0.23305   0.00000  Uiso   1.00
H537   H     0.05118   0.32082   0.49085   0.00000  Uiso   1.00
H538   H     0.04320   0.43600   0.54258   0.00000  Uiso   1.00
H539   H     0.05592   0.23165   0.55478   0.00000  Uiso   1.00
H540   H     0.03486   0.29024   0.37661   0.00000  Uiso   1.00
H541   H     0.06522   0.57085   0.59774   0.00000  Uiso   1.00
H542   H     0.09203   0.13997   0.62344   0.00000  Uiso   1.00
H543   H     0.04762   0.26350   0.24772   0.00000  Uiso   1.00
O544   O     0.16608   0.67127   0.62415   0.00000  Uiso   1.00
O545   O     0.20125   0.10596   0.65786   0.00000  Uiso   1.00
O546   O     0.14300   0.26803   0.16492   0.00000  Uiso   1.00
N547   N     0.22203   0.59124   0.57941   0.00000  Uiso   1.00
N548   N     0.24709   0.18840   0.60346   0.00000  Uiso   1.00
N549   N     0.20558   0.30387   0.25219   0.00000  Uiso   1.00
N550   N     0.11245   0.56577   0.58730   0.00000  Uiso   1.00
N551   N     0.13751   0.16293   0.61135   0.00000  Uiso   1.00
N552   N     0.09600   0.27840   0.26008   0.00000  Uiso   1.00
