data_job_01367
_audit_creation_date              2018-12-19
_audit_creation_method            'Materials Studio'
_symmetry_space_group_name_H-M    'P1'
_symmetry_Int_Tables_number       1
_symmetry_cell_setting            triclinic
loop_
_symmetry_equiv_pos_as_xyz
  x,y,z
_cell_length_a                    21.5911
_cell_length_b                    21.5911
_cell_length_c                    12.3380
_cell_angle_alpha                 90.0000
_cell_angle_beta                  90.0000
_cell_angle_gamma                 90.0000
loop_
_atom_site_label
_atom_site_type_symbol
_atom_site_fract_x
_atom_site_fract_y
_atom_site_fract_z
_atom_site_U_iso_or_equiv
_atom_site_adp_type
_atom_site_occupancy
C1     C     0.98394   0.65116   0.26192   0.00000  Uiso   1.00
C2     C     0.95788   0.64600   0.37644   0.00000  Uiso   1.00
C3     C     0.96038   0.59378   0.44188   0.00000  Uiso   1.00
C4     C     0.93386   0.59841   0.54407   0.00000  Uiso   1.00
C5     C     0.89763   0.58204   0.71649   0.00000  Uiso   1.00
C6     C     0.92993   0.67094   0.19018   0.00000  Uiso   1.00
C7     C     0.90894   0.63970   0.09900   0.00000  Uiso   1.00
C8     C     0.85890   0.66533   0.04439   0.00000  Uiso   1.00
C9     C     0.77931   0.68771   0.92759   0.00000  Uiso   1.00
C10    C     0.02866   0.70581   0.26377   0.00000  Uiso   1.00
C11    C     0.09069   0.70388   0.23443   0.00000  Uiso   1.00
C12    C     0.12377   0.75887   0.24174   0.00000  Uiso   1.00
C13    C     0.19748   0.83537   0.23920   0.00000  Uiso   1.00
C14    C     0.93239   0.75224   0.32705   0.00000  Uiso   1.00
C15    C     0.92988   0.70091   0.41182   0.00000  Uiso   1.00
C16    C     0.90335   0.70562   0.51394   0.00000  Uiso   1.00
C17    C     0.90581   0.65341   0.57951   0.00000  Uiso   1.00
C18    C     0.90193   0.72585   0.22555   0.00000  Uiso   1.00
C19    C     0.85191   0.75153   0.17106   0.00000  Uiso   1.00
C20    C     0.83085   0.72033   0.07982   0.00000  Uiso   1.00
C21    C     0.00067   0.76071   0.29914   0.00000  Uiso   1.00
C22    C     0.03366   0.81571   0.30650   0.00000  Uiso   1.00
C23    C     0.09572   0.81387   0.27718   0.00000  Uiso   1.00
H24    H     0.00573   0.60842   0.23437   0.00000  Uiso   1.00
H25    H     0.98205   0.55130   0.41446   0.00000  Uiso   1.00
H26    H     0.93062   0.59722   0.07164   0.00000  Uiso   1.00
H27    H     0.11234   0.66138   0.20705   0.00000  Uiso   1.00
H28    H     0.94342   0.51218   0.62972   0.00000  Uiso   1.00
H29    H     0.83500   0.60901   0.90682   0.00000  Uiso   1.00
H30    H     0.21819   0.74432   0.19237   0.00000  Uiso   1.00
H31    H     0.91059   0.79499   0.35459   0.00000  Uiso   1.00
H32    H     0.88169   0.74811   0.54129   0.00000  Uiso   1.00
H33    H     0.83026   0.79402   0.19846   0.00000  Uiso   1.00
H34    H     0.01198   0.85819   0.33388   0.00000  Uiso   1.00
H35    H     0.86196   0.67192   0.73265   0.00000  Uiso   1.00
H36    H     0.75355   0.76874   0.00975   0.00000  Uiso   1.00
H37    H     0.13673   0.90406   0.29531   0.00000  Uiso   1.00
O38    O     0.88538   0.55784   0.80182   0.00000  Uiso   1.00
O39    O     0.74315   0.68487   0.85339   0.00000  Uiso   1.00
O40    O     0.24587   0.86240   0.22803   0.00000  Uiso   1.00
N41    N     0.92823   0.55621   0.62833   0.00000  Uiso   1.00
N42    N     0.82686   0.64673   0.95247   0.00000  Uiso   1.00
N43    N     0.18510   0.77324   0.21941   0.00000  Uiso   1.00
N44    N     0.88440   0.64217   0.68372   0.00000  Uiso   1.00
N45    N     0.78303   0.73269   0.00786   0.00000  Uiso   1.00
N46    N     0.14126   0.85920   0.27480   0.00000  Uiso   1.00
C47    C     0.48394   0.15116   0.76192   0.00000  Uiso   1.00
C48    C     0.45788   0.14600   0.87644   0.00000  Uiso   1.00
C49    C     0.46038   0.09378   0.94188   0.00000  Uiso   1.00
C50    C     0.43386   0.09841   0.04407   0.00000  Uiso   1.00
C51    C     0.39763   0.08204   0.21649   0.00000  Uiso   1.00
C52    C     0.42993   0.17094   0.69018   0.00000  Uiso   1.00
C53    C     0.40894   0.13970   0.59900   0.00000  Uiso   1.00
C54    C     0.35890   0.16533   0.54439   0.00000  Uiso   1.00
C55    C     0.27931   0.18771   0.42759   0.00000  Uiso   1.00
C56    C     0.52866   0.20581   0.76377   0.00000  Uiso   1.00
C57    C     0.59069   0.20388   0.73443   0.00000  Uiso   1.00
C58    C     0.62377   0.25887   0.74174   0.00000  Uiso   1.00
C59    C     0.69748   0.33537   0.73920   0.00000  Uiso   1.00
C60    C     0.43239   0.25224   0.82705   0.00000  Uiso   1.00
C61    C     0.42988   0.20091   0.91182   0.00000  Uiso   1.00
C62    C     0.40335   0.20562   0.01394   0.00000  Uiso   1.00
C63    C     0.40581   0.15341   0.07951   0.00000  Uiso   1.00
C64    C     0.40193   0.22585   0.72555   0.00000  Uiso   1.00
C65    C     0.35191   0.25153   0.67106   0.00000  Uiso   1.00
C66    C     0.33085   0.22033   0.57982   0.00000  Uiso   1.00
C67    C     0.50067   0.26071   0.79914   0.00000  Uiso   1.00
C68    C     0.53366   0.31571   0.80650   0.00000  Uiso   1.00
C69    C     0.59572   0.31387   0.77718   0.00000  Uiso   1.00
H70    H     0.50573   0.10842   0.73437   0.00000  Uiso   1.00
H71    H     0.48205   0.05130   0.91446   0.00000  Uiso   1.00
H72    H     0.43062   0.09722   0.57164   0.00000  Uiso   1.00
H73    H     0.61234   0.16138   0.70705   0.00000  Uiso   1.00
H74    H     0.44342   0.01218   0.12972   0.00000  Uiso   1.00
H75    H     0.33500   0.10901   0.40682   0.00000  Uiso   1.00
H76    H     0.71819   0.24432   0.69237   0.00000  Uiso   1.00
H77    H     0.41059   0.29499   0.85459   0.00000  Uiso   1.00
H78    H     0.38169   0.24811   0.04129   0.00000  Uiso   1.00
H79    H     0.33026   0.29402   0.69846   0.00000  Uiso   1.00
H80    H     0.51198   0.35819   0.83388   0.00000  Uiso   1.00
H81    H     0.36196   0.17192   0.23265   0.00000  Uiso   1.00
H82    H     0.25355   0.26874   0.50975   0.00000  Uiso   1.00
H83    H     0.63673   0.40406   0.79531   0.00000  Uiso   1.00
O84    O     0.38538   0.05784   0.30182   0.00000  Uiso   1.00
O85    O     0.24315   0.18487   0.35339   0.00000  Uiso   1.00
O86    O     0.74587   0.36240   0.72803   0.00000  Uiso   1.00
N87    N     0.42823   0.05621   0.12833   0.00000  Uiso   1.00
N88    N     0.32686   0.14673   0.45247   0.00000  Uiso   1.00
N89    N     0.68510   0.27324   0.71941   0.00000  Uiso   1.00
N90    N     0.38440   0.14217   0.18372   0.00000  Uiso   1.00
N91    N     0.28303   0.23269   0.50786   0.00000  Uiso   1.00
N92    N     0.64126   0.35920   0.77480   0.00000  Uiso   1.00
C93    C     0.01606   0.34884   0.26192   0.00000  Uiso   1.00
C94    C     0.04212   0.35400   0.37644   0.00000  Uiso   1.00
C95    C     0.03962   0.40622   0.44188   0.00000  Uiso   1.00
C96    C     0.06614   0.40159   0.54407   0.00000  Uiso   1.00
C97    C     0.10237   0.41796   0.71649   0.00000  Uiso   1.00
C98    C     0.07007   0.32906   0.19018   0.00000  Uiso   1.00
C99    C     0.09106   0.36030   0.09900   0.00000  Uiso   1.00
C100   C     0.14110   0.33467   0.04439   0.00000  Uiso   1.00
C101   C     0.22069   0.31229   0.92759   0.00000  Uiso   1.00
C102   C     0.97134   0.29419   0.26377   0.00000  Uiso   1.00
C103   C     0.90931   0.29612   0.23443   0.00000  Uiso   1.00
C104   C     0.87623   0.24113   0.24174   0.00000  Uiso   1.00
C105   C     0.80252   0.16463   0.23920   0.00000  Uiso   1.00
C106   C     0.06761   0.24776   0.32705   0.00000  Uiso   1.00
C107   C     0.07012   0.29909   0.41182   0.00000  Uiso   1.00
C108   C     0.09665   0.29438   0.51394   0.00000  Uiso   1.00
C109   C     0.09419   0.34659   0.57951   0.00000  Uiso   1.00
C110   C     0.09807   0.27415   0.22555   0.00000  Uiso   1.00
C111   C     0.14809   0.24847   0.17106   0.00000  Uiso   1.00
C112   C     0.16915   0.27967   0.07982   0.00000  Uiso   1.00
C113   C     0.99933   0.23929   0.29914   0.00000  Uiso   1.00
C114   C     0.96634   0.18429   0.30650   0.00000  Uiso   1.00
C115   C     0.90428   0.18613   0.27718   0.00000  Uiso   1.00
H116   H     0.99427   0.39158   0.23437   0.00000  Uiso   1.00
H117   H     0.01795   0.44870   0.41446   0.00000  Uiso   1.00
H118   H     0.06938   0.40278   0.07164   0.00000  Uiso   1.00
H119   H     0.88766   0.33862   0.20705   0.00000  Uiso   1.00
H120   H     0.05658   0.48782   0.62972   0.00000  Uiso   1.00
H121   H     0.16500   0.39099   0.90682   0.00000  Uiso   1.00
H122   H     0.78181   0.25568   0.19237   0.00000  Uiso   1.00
H123   H     0.08941   0.20501   0.35459   0.00000  Uiso   1.00
H124   H     0.11831   0.25189   0.54129   0.00000  Uiso   1.00
H125   H     0.16974   0.20598   0.19846   0.00000  Uiso   1.00
H126   H     0.98802   0.14181   0.33388   0.00000  Uiso   1.00
H127   H     0.13804   0.32808   0.73265   0.00000  Uiso   1.00
H128   H     0.24645   0.23126   0.00975   0.00000  Uiso   1.00
H129   H     0.86327   0.09594   0.29531   0.00000  Uiso   1.00
O130   O     0.11462   0.44216   0.80182   0.00000  Uiso   1.00
O131   O     0.25685   0.31513   0.85339   0.00000  Uiso   1.00
O132   O     0.75413   0.13760   0.22803   0.00000  Uiso   1.00
N133   N     0.07177   0.44379   0.62833   0.00000  Uiso   1.00
N134   N     0.17314   0.35327   0.95247   0.00000  Uiso   1.00
N135   N     0.81490   0.22676   0.21941   0.00000  Uiso   1.00
N136   N     0.11560   0.35783   0.68372   0.00000  Uiso   1.00
N137   N     0.21697   0.26731   0.00786   0.00000  Uiso   1.00
N138   N     0.85874   0.14080   0.27480   0.00000  Uiso   1.00
C139   C     0.51606   0.84884   0.76192   0.00000  Uiso   1.00
C140   C     0.54212   0.85400   0.87644   0.00000  Uiso   1.00
C141   C     0.53962   0.90622   0.94188   0.00000  Uiso   1.00
C142   C     0.56614   0.90159   0.04407   0.00000  Uiso   1.00
C143   C     0.60237   0.91796   0.21649   0.00000  Uiso   1.00
C144   C     0.57007   0.82906   0.69018   0.00000  Uiso   1.00
C145   C     0.59106   0.86030   0.59900   0.00000  Uiso   1.00
C146   C     0.64110   0.83467   0.54439   0.00000  Uiso   1.00
C147   C     0.72069   0.81229   0.42759   0.00000  Uiso   1.00
C148   C     0.47134   0.79419   0.76377   0.00000  Uiso   1.00
C149   C     0.40931   0.79612   0.73443   0.00000  Uiso   1.00
C150   C     0.37623   0.74113   0.74174   0.00000  Uiso   1.00
C151   C     0.30252   0.66463   0.73920   0.00000  Uiso   1.00
C152   C     0.56761   0.74776   0.82705   0.00000  Uiso   1.00
C153   C     0.57012   0.79909   0.91182   0.00000  Uiso   1.00
C154   C     0.59665   0.79438   0.01394   0.00000  Uiso   1.00
C155   C     0.59419   0.84659   0.07951   0.00000  Uiso   1.00
C156   C     0.59807   0.77415   0.72555   0.00000  Uiso   1.00
C157   C     0.64809   0.74847   0.67106   0.00000  Uiso   1.00
C158   C     0.66915   0.77967   0.57982   0.00000  Uiso   1.00
C159   C     0.49933   0.73929   0.79914   0.00000  Uiso   1.00
C160   C     0.46634   0.68429   0.80650   0.00000  Uiso   1.00
C161   C     0.40428   0.68613   0.77718   0.00000  Uiso   1.00
H162   H     0.49427   0.89158   0.73437   0.00000  Uiso   1.00
H163   H     0.51795   0.94870   0.91446   0.00000  Uiso   1.00
H164   H     0.56938   0.90278   0.57164   0.00000  Uiso   1.00
H165   H     0.38766   0.83862   0.70705   0.00000  Uiso   1.00
H166   H     0.55658   0.98782   0.12972   0.00000  Uiso   1.00
H167   H     0.66500   0.89099   0.40682   0.00000  Uiso   1.00
H168   H     0.28181   0.75568   0.69237   0.00000  Uiso   1.00
H169   H     0.58941   0.70501   0.85459   0.00000  Uiso   1.00
H170   H     0.61831   0.75189   0.04129   0.00000  Uiso   1.00
H171   H     0.66974   0.70598   0.69846   0.00000  Uiso   1.00
H172   H     0.48802   0.64181   0.83388   0.00000  Uiso   1.00
H173   H     0.63804   0.82808   0.23265   0.00000  Uiso   1.00
H174   H     0.74645   0.73126   0.50975   0.00000  Uiso   1.00
H175   H     0.36327   0.59594   0.79531   0.00000  Uiso   1.00
O176   O     0.61462   0.94216   0.30182   0.00000  Uiso   1.00
O177   O     0.75685   0.81513   0.35339   0.00000  Uiso   1.00
O178   O     0.25413   0.63760   0.72803   0.00000  Uiso   1.00
N179   N     0.57177   0.94379   0.12833   0.00000  Uiso   1.00
N180   N     0.67314   0.85327   0.45247   0.00000  Uiso   1.00
N181   N     0.31490   0.72676   0.71941   0.00000  Uiso   1.00
N182   N     0.61560   0.85783   0.18372   0.00000  Uiso   1.00
N183   N     0.71697   0.76731   0.50786   0.00000  Uiso   1.00
N184   N     0.35874   0.64080   0.77480   0.00000  Uiso   1.00
C185   C     0.65116   0.01606   0.73808   0.00000  Uiso   1.00
C186   C     0.64600   0.04212   0.62356   0.00000  Uiso   1.00
C187   C     0.59378   0.03962   0.55812   0.00000  Uiso   1.00
C188   C     0.59841   0.06614   0.45593   0.00000  Uiso   1.00
C189   C     0.58204   0.10237   0.28351   0.00000  Uiso   1.00
C190   C     0.67094   0.07007   0.80982   0.00000  Uiso   1.00
C191   C     0.63970   0.09106   0.90100   0.00000  Uiso   1.00
C192   C     0.66533   0.14110   0.95561   0.00000  Uiso   1.00
C193   C     0.68771   0.22069   0.07241   0.00000  Uiso   1.00
C194   C     0.70581   0.97134   0.73623   0.00000  Uiso   1.00
C195   C     0.70388   0.90931   0.76557   0.00000  Uiso   1.00
C196   C     0.75887   0.87623   0.75826   0.00000  Uiso   1.00
C197   C     0.83537   0.80252   0.76080   0.00000  Uiso   1.00
C198   C     0.75224   0.06761   0.67295   0.00000  Uiso   1.00
C199   C     0.70091   0.07012   0.58818   0.00000  Uiso   1.00
C200   C     0.70562   0.09665   0.48606   0.00000  Uiso   1.00
C201   C     0.65341   0.09419   0.42049   0.00000  Uiso   1.00
C202   C     0.72585   0.09807   0.77445   0.00000  Uiso   1.00
C203   C     0.75153   0.14809   0.82894   0.00000  Uiso   1.00
C204   C     0.72033   0.16915   0.92018   0.00000  Uiso   1.00
C205   C     0.76071   0.99933   0.70086   0.00000  Uiso   1.00
C206   C     0.81571   0.96634   0.69350   0.00000  Uiso   1.00
C207   C     0.81387   0.90428   0.72282   0.00000  Uiso   1.00
H208   H     0.60842   0.99427   0.76563   0.00000  Uiso   1.00
H209   H     0.55130   0.01795   0.58554   0.00000  Uiso   1.00
H210   H     0.59722   0.06938   0.92836   0.00000  Uiso   1.00
H211   H     0.66138   0.88766   0.79295   0.00000  Uiso   1.00
H212   H     0.51218   0.05658   0.37028   0.00000  Uiso   1.00
H213   H     0.60901   0.16500   0.09318   0.00000  Uiso   1.00
H214   H     0.74432   0.78181   0.80763   0.00000  Uiso   1.00
H215   H     0.79499   0.08941   0.64541   0.00000  Uiso   1.00
H216   H     0.74811   0.11831   0.45871   0.00000  Uiso   1.00
H217   H     0.79402   0.16974   0.80154   0.00000  Uiso   1.00
H218   H     0.85819   0.98802   0.66612   0.00000  Uiso   1.00
H219   H     0.67192   0.13804   0.26735   0.00000  Uiso   1.00
H220   H     0.76874   0.24645   0.99025   0.00000  Uiso   1.00
H221   H     0.90406   0.86327   0.70469   0.00000  Uiso   1.00
O222   O     0.55784   0.11462   0.19818   0.00000  Uiso   1.00
O223   O     0.68487   0.25685   0.14661   0.00000  Uiso   1.00
O224   O     0.86240   0.75413   0.77197   0.00000  Uiso   1.00
N225   N     0.55621   0.07177   0.37167   0.00000  Uiso   1.00
N226   N     0.64673   0.17314   0.04753   0.00000  Uiso   1.00
N227   N     0.77324   0.81490   0.78059   0.00000  Uiso   1.00
N228   N     0.64217   0.11560   0.31628   0.00000  Uiso   1.00
N229   N     0.73269   0.21697   0.99214   0.00000  Uiso   1.00
N230   N     0.85920   0.85874   0.72520   0.00000  Uiso   1.00
C231   C     0.15116   0.51606   0.23808   0.00000  Uiso   1.00
C232   C     0.14600   0.54212   0.12356   0.00000  Uiso   1.00
C233   C     0.09378   0.53962   0.05812   0.00000  Uiso   1.00
C234   C     0.09841   0.56614   0.95593   0.00000  Uiso   1.00
C235   C     0.08204   0.60237   0.78351   0.00000  Uiso   1.00
C236   C     0.17094   0.57007   0.30982   0.00000  Uiso   1.00
C237   C     0.13970   0.59106   0.40100   0.00000  Uiso   1.00
C238   C     0.16533   0.64110   0.45561   0.00000  Uiso   1.00
C239   C     0.18771   0.72069   0.57241   0.00000  Uiso   1.00
C240   C     0.20581   0.47134   0.23623   0.00000  Uiso   1.00
C241   C     0.20388   0.40931   0.26557   0.00000  Uiso   1.00
C242   C     0.25887   0.37623   0.25826   0.00000  Uiso   1.00
C243   C     0.33537   0.30252   0.26080   0.00000  Uiso   1.00
C244   C     0.25224   0.56761   0.17295   0.00000  Uiso   1.00
C245   C     0.20091   0.57012   0.08818   0.00000  Uiso   1.00
C246   C     0.20562   0.59665   0.98606   0.00000  Uiso   1.00
C247   C     0.15341   0.59419   0.92049   0.00000  Uiso   1.00
C248   C     0.22585   0.59807   0.27445   0.00000  Uiso   1.00
C249   C     0.25153   0.64809   0.32894   0.00000  Uiso   1.00
C250   C     0.22033   0.66915   0.42018   0.00000  Uiso   1.00
C251   C     0.26071   0.49933   0.20086   0.00000  Uiso   1.00
C252   C     0.31571   0.46634   0.19350   0.00000  Uiso   1.00
C253   C     0.31387   0.40428   0.22282   0.00000  Uiso   1.00
H254   H     0.10842   0.49427   0.26563   0.00000  Uiso   1.00
H255   H     0.05130   0.51795   0.08554   0.00000  Uiso   1.00
H256   H     0.09722   0.56938   0.42836   0.00000  Uiso   1.00
H257   H     0.16138   0.38766   0.29295   0.00000  Uiso   1.00
H258   H     0.01218   0.55658   0.87028   0.00000  Uiso   1.00
H259   H     0.10901   0.66500   0.59318   0.00000  Uiso   1.00
H260   H     0.24432   0.28181   0.30763   0.00000  Uiso   1.00
H261   H     0.29499   0.58941   0.14541   0.00000  Uiso   1.00
H262   H     0.24811   0.61831   0.95871   0.00000  Uiso   1.00
H263   H     0.29402   0.66974   0.30154   0.00000  Uiso   1.00
H264   H     0.35819   0.48802   0.16612   0.00000  Uiso   1.00
H265   H     0.17192   0.63804   0.76735   0.00000  Uiso   1.00
H266   H     0.26874   0.74645   0.49025   0.00000  Uiso   1.00
H267   H     0.40406   0.36327   0.20469   0.00000  Uiso   1.00
O268   O     0.05784   0.61462   0.69818   0.00000  Uiso   1.00
O269   O     0.18487   0.75685   0.64661   0.00000  Uiso   1.00
O270   O     0.36240   0.25413   0.27197   0.00000  Uiso   1.00
N271   N     0.05621   0.57177   0.87167   0.00000  Uiso   1.00
N272   N     0.14673   0.67314   0.54753   0.00000  Uiso   1.00
N273   N     0.27324   0.31490   0.28059   0.00000  Uiso   1.00
N274   N     0.14217   0.61560   0.81628   0.00000  Uiso   1.00
N275   N     0.23269   0.71697   0.49214   0.00000  Uiso   1.00
N276   N     0.35920   0.35874   0.22520   0.00000  Uiso   1.00
C277   C     0.34884   0.98394   0.73808   0.00000  Uiso   1.00
C278   C     0.35400   0.95788   0.62356   0.00000  Uiso   1.00
C279   C     0.40622   0.96038   0.55812   0.00000  Uiso   1.00
C280   C     0.40159   0.93386   0.45593   0.00000  Uiso   1.00
C281   C     0.41796   0.89763   0.28351   0.00000  Uiso   1.00
C282   C     0.32906   0.92993   0.80982   0.00000  Uiso   1.00
C283   C     0.36030   0.90894   0.90100   0.00000  Uiso   1.00
C284   C     0.33467   0.85890   0.95561   0.00000  Uiso   1.00
C285   C     0.31229   0.77931   0.07241   0.00000  Uiso   1.00
C286   C     0.29419   0.02866   0.73623   0.00000  Uiso   1.00
C287   C     0.29612   0.09069   0.76557   0.00000  Uiso   1.00
C288   C     0.24113   0.12377   0.75826   0.00000  Uiso   1.00
C289   C     0.16463   0.19748   0.76080   0.00000  Uiso   1.00
C290   C     0.24776   0.93239   0.67295   0.00000  Uiso   1.00
C291   C     0.29909   0.92988   0.58818   0.00000  Uiso   1.00
C292   C     0.29438   0.90335   0.48606   0.00000  Uiso   1.00
C293   C     0.34659   0.90581   0.42049   0.00000  Uiso   1.00
C294   C     0.27415   0.90193   0.77445   0.00000  Uiso   1.00
C295   C     0.24847   0.85191   0.82894   0.00000  Uiso   1.00
C296   C     0.27967   0.83085   0.92018   0.00000  Uiso   1.00
C297   C     0.23929   0.00067   0.70086   0.00000  Uiso   1.00
C298   C     0.18429   0.03366   0.69350   0.00000  Uiso   1.00
C299   C     0.18613   0.09572   0.72282   0.00000  Uiso   1.00
H300   H     0.39158   0.00573   0.76563   0.00000  Uiso   1.00
H301   H     0.44870   0.98205   0.58554   0.00000  Uiso   1.00
H302   H     0.40278   0.93062   0.92836   0.00000  Uiso   1.00
H303   H     0.33862   0.11234   0.79295   0.00000  Uiso   1.00
H304   H     0.48782   0.94342   0.37028   0.00000  Uiso   1.00
H305   H     0.39099   0.83500   0.09318   0.00000  Uiso   1.00
H306   H     0.25568   0.21819   0.80763   0.00000  Uiso   1.00
H307   H     0.20501   0.91059   0.64541   0.00000  Uiso   1.00
H308   H     0.25189   0.88169   0.45871   0.00000  Uiso   1.00
H309   H     0.20598   0.83026   0.80154   0.00000  Uiso   1.00
H310   H     0.14181   0.01198   0.66612   0.00000  Uiso   1.00
H311   H     0.32808   0.86196   0.26735   0.00000  Uiso   1.00
H312   H     0.23126   0.75355   0.99025   0.00000  Uiso   1.00
H313   H     0.09594   0.13673   0.70469   0.00000  Uiso   1.00
O314   O     0.44216   0.88538   0.19818   0.00000  Uiso   1.00
O315   O     0.31513   0.74315   0.14661   0.00000  Uiso   1.00
O316   O     0.13760   0.24587   0.77197   0.00000  Uiso   1.00
N317   N     0.44379   0.92823   0.37167   0.00000  Uiso   1.00
N318   N     0.35327   0.82686   0.04753   0.00000  Uiso   1.00
N319   N     0.22676   0.18510   0.78059   0.00000  Uiso   1.00
N320   N     0.35783   0.88440   0.31628   0.00000  Uiso   1.00
N321   N     0.26731   0.78303   0.99214   0.00000  Uiso   1.00
N322   N     0.14080   0.14126   0.72520   0.00000  Uiso   1.00
C323   C     0.84884   0.48394   0.23808   0.00000  Uiso   1.00
C324   C     0.85400   0.45788   0.12356   0.00000  Uiso   1.00
C325   C     0.90622   0.46038   0.05812   0.00000  Uiso   1.00
C326   C     0.90159   0.43386   0.95593   0.00000  Uiso   1.00
C327   C     0.91796   0.39763   0.78351   0.00000  Uiso   1.00
C328   C     0.82906   0.42993   0.30982   0.00000  Uiso   1.00
C329   C     0.86030   0.40894   0.40100   0.00000  Uiso   1.00
C330   C     0.83467   0.35890   0.45561   0.00000  Uiso   1.00
C331   C     0.81229   0.27931   0.57241   0.00000  Uiso   1.00
C332   C     0.79419   0.52866   0.23623   0.00000  Uiso   1.00
C333   C     0.79612   0.59069   0.26557   0.00000  Uiso   1.00
C334   C     0.74113   0.62377   0.25826   0.00000  Uiso   1.00
C335   C     0.66463   0.69748   0.26080   0.00000  Uiso   1.00
C336   C     0.74776   0.43239   0.17295   0.00000  Uiso   1.00
C337   C     0.79909   0.42988   0.08818   0.00000  Uiso   1.00
C338   C     0.79438   0.40335   0.98606   0.00000  Uiso   1.00
C339   C     0.84659   0.40581   0.92049   0.00000  Uiso   1.00
C340   C     0.77415   0.40193   0.27445   0.00000  Uiso   1.00
C341   C     0.74847   0.35191   0.32894   0.00000  Uiso   1.00
C342   C     0.77967   0.33085   0.42018   0.00000  Uiso   1.00
C343   C     0.73929   0.50067   0.20086   0.00000  Uiso   1.00
C344   C     0.68429   0.53366   0.19350   0.00000  Uiso   1.00
C345   C     0.68613   0.59572   0.22282   0.00000  Uiso   1.00
H346   H     0.89158   0.50573   0.26563   0.00000  Uiso   1.00
H347   H     0.94870   0.48205   0.08554   0.00000  Uiso   1.00
H348   H     0.90278   0.43062   0.42836   0.00000  Uiso   1.00
H349   H     0.83862   0.61234   0.29295   0.00000  Uiso   1.00
H350   H     0.98782   0.44342   0.87028   0.00000  Uiso   1.00
H351   H     0.89099   0.33500   0.59318   0.00000  Uiso   1.00
H352   H     0.75568   0.71819   0.30763   0.00000  Uiso   1.00
H353   H     0.70501   0.41059   0.14541   0.00000  Uiso   1.00
H354   H     0.75189   0.38169   0.95871   0.00000  Uiso   1.00
H355   H     0.70598   0.33026   0.30154   0.00000  Uiso   1.00
H356   H     0.64181   0.51198   0.16612   0.00000  Uiso   1.00
H357   H     0.82808   0.36196   0.76735   0.00000  Uiso   1.00
H358   H     0.73126   0.25355   0.49025   0.00000  Uiso   1.00
H359   H     0.59594   0.63673   0.20469   0.00000  Uiso   1.00
O360   O     0.94216   0.38538   0.69818   0.00000  Uiso   1.00
O361   O     0.81513   0.24315   0.64661   0.00000  Uiso   1.00
O362   O     0.63760   0.74587   0.27197   0.00000  Uiso   1.00
N363   N     0.94379   0.42823   0.87167   0.00000  Uiso   1.00
N364   N     0.85327   0.32686   0.54753   0.00000  Uiso   1.00
N365   N     0.72676   0.68510   0.28059   0.00000  Uiso   1.00
N366   N     0.85783   0.38440   0.81628   0.00000  Uiso   1.00
N367   N     0.76731   0.28303   0.49214   0.00000  Uiso   1.00
N368   N     0.64080   0.64126   0.22520   0.00000  Uiso   1.00
