data_job_00814
_audit_creation_date              2018-12-19
_audit_creation_method            'Materials Studio'
_symmetry_space_group_name_H-M    'P1'
_symmetry_Int_Tables_number       1
_symmetry_cell_setting            triclinic
loop_
_symmetry_equiv_pos_as_xyz
  x,y,z
_cell_length_a                    19.9905
_cell_length_b                    19.9905
_cell_length_c                    14.2090
_cell_angle_alpha                 90.0000
_cell_angle_beta                  90.0000
_cell_angle_gamma                 90.0000
loop_
_atom_site_label
_atom_site_type_symbol
_atom_site_fract_x
_atom_site_fract_y
_atom_site_fract_z
_atom_site_U_iso_or_equiv
_atom_site_adp_type
_atom_site_occupancy
C1     C     0.23118   0.60175   0.94835   0.00000  Uiso   1.00
C2     C     0.26287   0.54157   0.89975   0.00000  Uiso   1.00
C3     C     0.30021   0.49200   0.94349   0.00000  Uiso   1.00
C4     C     0.32490   0.44115   0.88671   0.00000  Uiso   1.00
C5     C     0.37601   0.34791   0.82599   0.00000  Uiso   1.00
C6     C     0.25841   0.66336   0.89798   0.00000  Uiso   1.00
C7     C     0.29199   0.71618   0.94024   0.00000  Uiso   1.00
C8     C     0.31291   0.76785   0.88196   0.00000  Uiso   1.00
C9     C     0.35704   0.86370   0.81850   0.00000  Uiso   1.00
C10    C     0.15679   0.59886   0.92492   0.00000  Uiso   1.00
C11    C     0.10494   0.59747   0.98983   0.00000  Uiso   1.00
C12    C     0.04030   0.59486   0.95423   0.00000  Uiso   1.00
C13    C     0.92667   0.59056   0.93260   0.00000  Uiso   1.00
C14    C     0.20861   0.59961   0.76972   0.00000  Uiso   1.00
C15    C     0.25061   0.54042   0.80272   0.00000  Uiso   1.00
C16    C     0.27525   0.48963   0.74586   0.00000  Uiso   1.00
C17    C     0.31262   0.43998   0.78951   0.00000  Uiso   1.00
C18    C     0.24615   0.66220   0.80096   0.00000  Uiso   1.00
C19    C     0.26702   0.71381   0.74260   0.00000  Uiso   1.00
C20    C     0.30063   0.76669   0.78476   0.00000  Uiso   1.00
C21    C     0.14453   0.59770   0.82789   0.00000  Uiso   1.00
C22    C     0.07997   0.59510   0.79219   0.00000  Uiso   1.00
C23    C     0.02802   0.59369   0.85703   0.00000  Uiso   1.00
H24    H     0.24072   0.60266   0.02389   0.00000  Uiso   1.00
H25    H     0.30970   0.49292   0.01858   0.00000  Uiso   1.00
H26    H     0.30146   0.71706   0.01532   0.00000  Uiso   1.00
H27    H     0.11444   0.59836   0.06490   0.00000  Uiso   1.00
H28    H     0.38078   0.37075   0.96990   0.00000  Uiso   1.00
H29    H     0.36341   0.84338   0.96304   0.00000  Uiso   1.00
H30    H     0.96903   0.59309   0.06759   0.00000  Uiso   1.00
H31    H     0.19906   0.59871   0.69418   0.00000  Uiso   1.00
H32    H     0.26575   0.48875   0.67078   0.00000  Uiso   1.00
H33    H     0.25752   0.71290   0.66752   0.00000  Uiso   1.00
H34    H     0.07050   0.59420   0.71711   0.00000  Uiso   1.00
H35    H     0.34512   0.36736   0.68761   0.00000  Uiso   1.00
H36    H     0.32774   0.84001   0.68075   0.00000  Uiso   1.00
H37    H     0.93337   0.58971   0.78530   0.00000  Uiso   1.00
O38    O     0.40759   0.29680   0.81930   0.00000  Uiso   1.00
O39    O     0.38478   0.91689   0.81030   0.00000  Uiso   1.00
O40    O     0.86737   0.58850   0.94748   0.00000  Uiso   1.00
N41    N     0.36322   0.38503   0.90668   0.00000  Uiso   1.00
N42    N     0.34699   0.82692   0.90026   0.00000  Uiso   1.00
N43    N     0.97828   0.59293   0.99801   0.00000  Uiso   1.00
N44    N     0.34403   0.38321   0.75478   0.00000  Uiso   1.00
N45    N     0.32780   0.82510   0.74836   0.00000  Uiso   1.00
N46    N     0.95909   0.59111   0.84611   0.00000  Uiso   1.00
C47    C     0.76882   0.39825   0.94835   0.00000  Uiso   1.00
C48    C     0.73713   0.45843   0.89975   0.00000  Uiso   1.00
C49    C     0.69979   0.50800   0.94349   0.00000  Uiso   1.00
C50    C     0.67510   0.55885   0.88671   0.00000  Uiso   1.00
C51    C     0.62399   0.65209   0.82599   0.00000  Uiso   1.00
C52    C     0.74159   0.33664   0.89798   0.00000  Uiso   1.00
C53    C     0.70801   0.28382   0.94024   0.00000  Uiso   1.00
C54    C     0.68709   0.23215   0.88196   0.00000  Uiso   1.00
C55    C     0.64296   0.13630   0.81850   0.00000  Uiso   1.00
C56    C     0.84321   0.40114   0.92492   0.00000  Uiso   1.00
C57    C     0.89506   0.40253   0.98983   0.00000  Uiso   1.00
C58    C     0.95970   0.40514   0.95423   0.00000  Uiso   1.00
C59    C     0.07333   0.40944   0.93260   0.00000  Uiso   1.00
C60    C     0.79139   0.40039   0.76972   0.00000  Uiso   1.00
C61    C     0.74939   0.45958   0.80272   0.00000  Uiso   1.00
C62    C     0.72475   0.51037   0.74586   0.00000  Uiso   1.00
C63    C     0.68738   0.56002   0.78951   0.00000  Uiso   1.00
C64    C     0.75385   0.33780   0.80096   0.00000  Uiso   1.00
C65    C     0.73298   0.28619   0.74260   0.00000  Uiso   1.00
C66    C     0.69937   0.23331   0.78476   0.00000  Uiso   1.00
C67    C     0.85547   0.40230   0.82789   0.00000  Uiso   1.00
C68    C     0.92003   0.40490   0.79219   0.00000  Uiso   1.00
C69    C     0.97198   0.40631   0.85703   0.00000  Uiso   1.00
H70    H     0.75928   0.39734   0.02389   0.00000  Uiso   1.00
H71    H     0.69030   0.50708   0.01858   0.00000  Uiso   1.00
H72    H     0.69854   0.28294   0.01532   0.00000  Uiso   1.00
H73    H     0.88556   0.40164   0.06490   0.00000  Uiso   1.00
H74    H     0.61922   0.62925   0.96990   0.00000  Uiso   1.00
H75    H     0.63659   0.15662   0.96304   0.00000  Uiso   1.00
H76    H     0.03097   0.40691   0.06759   0.00000  Uiso   1.00
H77    H     0.80094   0.40129   0.69418   0.00000  Uiso   1.00
H78    H     0.73425   0.51125   0.67078   0.00000  Uiso   1.00
H79    H     0.74248   0.28710   0.66752   0.00000  Uiso   1.00
H80    H     0.92950   0.40580   0.71711   0.00000  Uiso   1.00
H81    H     0.65488   0.63264   0.68761   0.00000  Uiso   1.00
H82    H     0.67226   0.15999   0.68075   0.00000  Uiso   1.00
H83    H     0.06663   0.41029   0.78530   0.00000  Uiso   1.00
O84    O     0.59241   0.70320   0.81930   0.00000  Uiso   1.00
O85    O     0.61522   0.08311   0.81030   0.00000  Uiso   1.00
O86    O     0.13263   0.41150   0.94748   0.00000  Uiso   1.00
N87    N     0.63678   0.61497   0.90668   0.00000  Uiso   1.00
N88    N     0.65301   0.17308   0.90026   0.00000  Uiso   1.00
N89    N     0.02172   0.40707   0.99801   0.00000  Uiso   1.00
N90    N     0.65597   0.61679   0.75478   0.00000  Uiso   1.00
N91    N     0.67220   0.17490   0.74836   0.00000  Uiso   1.00
N92    N     0.04091   0.40889   0.84611   0.00000  Uiso   1.00
C93    C     0.60175   0.76882   0.05165   0.00000  Uiso   1.00
C94    C     0.54157   0.73713   0.10025   0.00000  Uiso   1.00
C95    C     0.49200   0.69979   0.05651   0.00000  Uiso   1.00
C96    C     0.44115   0.67510   0.11329   0.00000  Uiso   1.00
C97    C     0.34791   0.62399   0.17401   0.00000  Uiso   1.00
C98    C     0.66336   0.74159   0.10202   0.00000  Uiso   1.00
C99    C     0.71618   0.70801   0.05976   0.00000  Uiso   1.00
C100   C     0.76785   0.68709   0.11804   0.00000  Uiso   1.00
C101   C     0.86370   0.64296   0.18150   0.00000  Uiso   1.00
C102   C     0.59886   0.84321   0.07508   0.00000  Uiso   1.00
C103   C     0.59747   0.89506   0.01017   0.00000  Uiso   1.00
C104   C     0.59486   0.95970   0.04577   0.00000  Uiso   1.00
C105   C     0.59056   0.07333   0.06740   0.00000  Uiso   1.00
C106   C     0.59961   0.79139   0.23028   0.00000  Uiso   1.00
C107   C     0.54042   0.74939   0.19728   0.00000  Uiso   1.00
C108   C     0.48963   0.72475   0.25414   0.00000  Uiso   1.00
C109   C     0.43998   0.68738   0.21049   0.00000  Uiso   1.00
C110   C     0.66220   0.75385   0.19904   0.00000  Uiso   1.00
C111   C     0.71381   0.73298   0.25740   0.00000  Uiso   1.00
C112   C     0.76669   0.69937   0.21524   0.00000  Uiso   1.00
C113   C     0.59770   0.85547   0.17211   0.00000  Uiso   1.00
C114   C     0.59510   0.92003   0.20781   0.00000  Uiso   1.00
C115   C     0.59369   0.97198   0.14297   0.00000  Uiso   1.00
H116   H     0.60266   0.75928   0.97611   0.00000  Uiso   1.00
H117   H     0.49292   0.69030   0.98142   0.00000  Uiso   1.00
H118   H     0.71706   0.69854   0.98468   0.00000  Uiso   1.00
H119   H     0.59836   0.88556   0.93510   0.00000  Uiso   1.00
H120   H     0.37075   0.61922   0.03010   0.00000  Uiso   1.00
H121   H     0.84338   0.63659   0.03696   0.00000  Uiso   1.00
H122   H     0.59309   0.03097   0.93241   0.00000  Uiso   1.00
H123   H     0.59871   0.80094   0.30582   0.00000  Uiso   1.00
H124   H     0.48875   0.73425   0.32922   0.00000  Uiso   1.00
H125   H     0.71290   0.74248   0.33248   0.00000  Uiso   1.00
H126   H     0.59420   0.92950   0.28289   0.00000  Uiso   1.00
H127   H     0.36736   0.65488   0.31239   0.00000  Uiso   1.00
H128   H     0.84001   0.67226   0.31925   0.00000  Uiso   1.00
H129   H     0.58971   0.06663   0.21470   0.00000  Uiso   1.00
O130   O     0.29680   0.59241   0.18070   0.00000  Uiso   1.00
O131   O     0.91689   0.61522   0.18970   0.00000  Uiso   1.00
O132   O     0.58850   0.13263   0.05252   0.00000  Uiso   1.00
N133   N     0.38503   0.63678   0.09332   0.00000  Uiso   1.00
N134   N     0.82692   0.65301   0.09974   0.00000  Uiso   1.00
N135   N     0.59293   0.02172   0.00199   0.00000  Uiso   1.00
N136   N     0.38321   0.65597   0.24522   0.00000  Uiso   1.00
N137   N     0.82510   0.67220   0.25164   0.00000  Uiso   1.00
N138   N     0.59111   0.04091   0.15389   0.00000  Uiso   1.00
C139   C     0.39825   0.23118   0.05165   0.00000  Uiso   1.00
C140   C     0.45843   0.26287   0.10025   0.00000  Uiso   1.00
C141   C     0.50800   0.30021   0.05651   0.00000  Uiso   1.00
C142   C     0.55885   0.32490   0.11329   0.00000  Uiso   1.00
C143   C     0.65209   0.37601   0.17401   0.00000  Uiso   1.00
C144   C     0.33664   0.25841   0.10202   0.00000  Uiso   1.00
C145   C     0.28382   0.29199   0.05976   0.00000  Uiso   1.00
C146   C     0.23215   0.31291   0.11804   0.00000  Uiso   1.00
C147   C     0.13630   0.35704   0.18150   0.00000  Uiso   1.00
C148   C     0.40114   0.15679   0.07508   0.00000  Uiso   1.00
C149   C     0.40253   0.10494   0.01017   0.00000  Uiso   1.00
C150   C     0.40514   0.04030   0.04577   0.00000  Uiso   1.00
C151   C     0.40944   0.92667   0.06740   0.00000  Uiso   1.00
C152   C     0.40039   0.20861   0.23028   0.00000  Uiso   1.00
C153   C     0.45958   0.25061   0.19728   0.00000  Uiso   1.00
C154   C     0.51037   0.27525   0.25414   0.00000  Uiso   1.00
C155   C     0.56002   0.31262   0.21049   0.00000  Uiso   1.00
C156   C     0.33780   0.24615   0.19904   0.00000  Uiso   1.00
C157   C     0.28619   0.26702   0.25740   0.00000  Uiso   1.00
C158   C     0.23331   0.30063   0.21524   0.00000  Uiso   1.00
C159   C     0.40230   0.14453   0.17211   0.00000  Uiso   1.00
C160   C     0.40490   0.07997   0.20781   0.00000  Uiso   1.00
C161   C     0.40631   0.02802   0.14297   0.00000  Uiso   1.00
H162   H     0.39734   0.24072   0.97611   0.00000  Uiso   1.00
H163   H     0.50708   0.30970   0.98142   0.00000  Uiso   1.00
H164   H     0.28294   0.30146   0.98468   0.00000  Uiso   1.00
H165   H     0.40164   0.11444   0.93510   0.00000  Uiso   1.00
H166   H     0.62925   0.38078   0.03010   0.00000  Uiso   1.00
H167   H     0.15662   0.36341   0.03696   0.00000  Uiso   1.00
H168   H     0.40691   0.96903   0.93241   0.00000  Uiso   1.00
H169   H     0.40129   0.19906   0.30582   0.00000  Uiso   1.00
H170   H     0.51125   0.26575   0.32922   0.00000  Uiso   1.00
H171   H     0.28710   0.25752   0.33248   0.00000  Uiso   1.00
H172   H     0.40580   0.07050   0.28289   0.00000  Uiso   1.00
H173   H     0.63264   0.34512   0.31239   0.00000  Uiso   1.00
H174   H     0.15999   0.32774   0.31925   0.00000  Uiso   1.00
H175   H     0.41029   0.93337   0.21470   0.00000  Uiso   1.00
O176   O     0.70320   0.40759   0.18070   0.00000  Uiso   1.00
O177   O     0.08311   0.38478   0.18970   0.00000  Uiso   1.00
O178   O     0.41150   0.86737   0.05252   0.00000  Uiso   1.00
N179   N     0.61497   0.36322   0.09332   0.00000  Uiso   1.00
N180   N     0.17308   0.34699   0.09974   0.00000  Uiso   1.00
N181   N     0.40707   0.97828   0.00199   0.00000  Uiso   1.00
N182   N     0.61679   0.34403   0.24522   0.00000  Uiso   1.00
N183   N     0.17490   0.32780   0.25164   0.00000  Uiso   1.00
N184   N     0.40889   0.95909   0.15389   0.00000  Uiso   1.00
C185   C     0.26882   0.10175   0.55165   0.00000  Uiso   1.00
C186   C     0.23713   0.04157   0.60025   0.00000  Uiso   1.00
C187   C     0.19979   0.99200   0.55651   0.00000  Uiso   1.00
C188   C     0.17510   0.94115   0.61329   0.00000  Uiso   1.00
C189   C     0.12399   0.84791   0.67401   0.00000  Uiso   1.00
C190   C     0.24159   0.16336   0.60202   0.00000  Uiso   1.00
C191   C     0.20801   0.21618   0.55976   0.00000  Uiso   1.00
C192   C     0.18709   0.26785   0.61804   0.00000  Uiso   1.00
C193   C     0.14296   0.36370   0.68150   0.00000  Uiso   1.00
C194   C     0.34321   0.09886   0.57508   0.00000  Uiso   1.00
C195   C     0.39506   0.09747   0.51017   0.00000  Uiso   1.00
C196   C     0.45970   0.09486   0.54577   0.00000  Uiso   1.00
C197   C     0.57333   0.09056   0.56740   0.00000  Uiso   1.00
C198   C     0.29139   0.09961   0.73028   0.00000  Uiso   1.00
C199   C     0.24939   0.04042   0.69728   0.00000  Uiso   1.00
C200   C     0.22475   0.98963   0.75414   0.00000  Uiso   1.00
C201   C     0.18738   0.93998   0.71049   0.00000  Uiso   1.00
C202   C     0.25385   0.16220   0.69904   0.00000  Uiso   1.00
C203   C     0.23298   0.21381   0.75740   0.00000  Uiso   1.00
C204   C     0.19937   0.26669   0.71524   0.00000  Uiso   1.00
C205   C     0.35547   0.09770   0.67211   0.00000  Uiso   1.00
C206   C     0.42003   0.09510   0.70781   0.00000  Uiso   1.00
C207   C     0.47198   0.09369   0.64297   0.00000  Uiso   1.00
H208   H     0.25928   0.10266   0.47611   0.00000  Uiso   1.00
H209   H     0.19030   0.99292   0.48142   0.00000  Uiso   1.00
H210   H     0.19854   0.21706   0.48468   0.00000  Uiso   1.00
H211   H     0.38556   0.09836   0.43510   0.00000  Uiso   1.00
H212   H     0.11922   0.87075   0.53010   0.00000  Uiso   1.00
H213   H     0.13659   0.34338   0.53696   0.00000  Uiso   1.00
H214   H     0.53097   0.09309   0.43241   0.00000  Uiso   1.00
H215   H     0.30094   0.09871   0.80582   0.00000  Uiso   1.00
H216   H     0.23425   0.98875   0.82922   0.00000  Uiso   1.00
H217   H     0.24248   0.21290   0.83248   0.00000  Uiso   1.00
H218   H     0.42950   0.09420   0.78289   0.00000  Uiso   1.00
H219   H     0.15488   0.86736   0.81239   0.00000  Uiso   1.00
H220   H     0.17226   0.34001   0.81925   0.00000  Uiso   1.00
H221   H     0.56663   0.08971   0.71470   0.00000  Uiso   1.00
O222   O     0.09241   0.79680   0.68070   0.00000  Uiso   1.00
O223   O     0.11522   0.41689   0.68970   0.00000  Uiso   1.00
O224   O     0.63263   0.08850   0.55252   0.00000  Uiso   1.00
N225   N     0.13678   0.88503   0.59332   0.00000  Uiso   1.00
N226   N     0.15301   0.32692   0.59974   0.00000  Uiso   1.00
N227   N     0.52172   0.09293   0.50199   0.00000  Uiso   1.00
N228   N     0.15597   0.88321   0.74522   0.00000  Uiso   1.00
N229   N     0.17220   0.32510   0.75164   0.00000  Uiso   1.00
N230   N     0.54091   0.09111   0.65389   0.00000  Uiso   1.00
C231   C     0.73118   0.89825   0.55165   0.00000  Uiso   1.00
C232   C     0.76287   0.95843   0.60025   0.00000  Uiso   1.00
C233   C     0.80021   0.00800   0.55651   0.00000  Uiso   1.00
C234   C     0.82490   0.05885   0.61329   0.00000  Uiso   1.00
C235   C     0.87601   0.15209   0.67401   0.00000  Uiso   1.00
C236   C     0.75841   0.83664   0.60202   0.00000  Uiso   1.00
C237   C     0.79199   0.78382   0.55976   0.00000  Uiso   1.00
C238   C     0.81291   0.73215   0.61804   0.00000  Uiso   1.00
C239   C     0.85704   0.63630   0.68150   0.00000  Uiso   1.00
C240   C     0.65679   0.90114   0.57508   0.00000  Uiso   1.00
C241   C     0.60494   0.90253   0.51017   0.00000  Uiso   1.00
C242   C     0.54030   0.90514   0.54577   0.00000  Uiso   1.00
C243   C     0.42667   0.90944   0.56740   0.00000  Uiso   1.00
C244   C     0.70861   0.90039   0.73028   0.00000  Uiso   1.00
C245   C     0.75061   0.95958   0.69728   0.00000  Uiso   1.00
C246   C     0.77525   0.01037   0.75414   0.00000  Uiso   1.00
C247   C     0.81262   0.06002   0.71049   0.00000  Uiso   1.00
C248   C     0.74615   0.83780   0.69904   0.00000  Uiso   1.00
C249   C     0.76702   0.78619   0.75740   0.00000  Uiso   1.00
C250   C     0.80063   0.73331   0.71524   0.00000  Uiso   1.00
C251   C     0.64453   0.90230   0.67211   0.00000  Uiso   1.00
C252   C     0.57997   0.90490   0.70781   0.00000  Uiso   1.00
C253   C     0.52802   0.90631   0.64297   0.00000  Uiso   1.00
H254   H     0.74072   0.89734   0.47611   0.00000  Uiso   1.00
H255   H     0.80970   0.00708   0.48142   0.00000  Uiso   1.00
H256   H     0.80146   0.78294   0.48468   0.00000  Uiso   1.00
H257   H     0.61444   0.90164   0.43510   0.00000  Uiso   1.00
H258   H     0.88078   0.12925   0.53010   0.00000  Uiso   1.00
H259   H     0.86341   0.65662   0.53696   0.00000  Uiso   1.00
H260   H     0.46903   0.90691   0.43241   0.00000  Uiso   1.00
H261   H     0.69906   0.90129   0.80582   0.00000  Uiso   1.00
H262   H     0.76575   0.01125   0.82922   0.00000  Uiso   1.00
H263   H     0.75752   0.78710   0.83248   0.00000  Uiso   1.00
H264   H     0.57050   0.90580   0.78289   0.00000  Uiso   1.00
H265   H     0.84512   0.13264   0.81239   0.00000  Uiso   1.00
H266   H     0.82774   0.65999   0.81925   0.00000  Uiso   1.00
H267   H     0.43337   0.91029   0.71470   0.00000  Uiso   1.00
O268   O     0.90759   0.20320   0.68070   0.00000  Uiso   1.00
O269   O     0.88478   0.58311   0.68970   0.00000  Uiso   1.00
O270   O     0.36737   0.91150   0.55252   0.00000  Uiso   1.00
N271   N     0.86322   0.11497   0.59332   0.00000  Uiso   1.00
N272   N     0.84699   0.67308   0.59974   0.00000  Uiso   1.00
N273   N     0.47828   0.90707   0.50199   0.00000  Uiso   1.00
N274   N     0.84403   0.11679   0.74522   0.00000  Uiso   1.00
N275   N     0.82780   0.67490   0.75164   0.00000  Uiso   1.00
N276   N     0.45909   0.90889   0.65389   0.00000  Uiso   1.00
C277   C     0.89825   0.26882   0.44835   0.00000  Uiso   1.00
C278   C     0.95843   0.23713   0.39975   0.00000  Uiso   1.00
C279   C     0.00800   0.19979   0.44349   0.00000  Uiso   1.00
C280   C     0.05885   0.17510   0.38671   0.00000  Uiso   1.00
C281   C     0.15209   0.12399   0.32599   0.00000  Uiso   1.00
C282   C     0.83664   0.24159   0.39798   0.00000  Uiso   1.00
C283   C     0.78382   0.20801   0.44024   0.00000  Uiso   1.00
C284   C     0.73215   0.18709   0.38196   0.00000  Uiso   1.00
C285   C     0.63630   0.14296   0.31850   0.00000  Uiso   1.00
C286   C     0.90114   0.34321   0.42492   0.00000  Uiso   1.00
C287   C     0.90253   0.39506   0.48983   0.00000  Uiso   1.00
C288   C     0.90514   0.45970   0.45423   0.00000  Uiso   1.00
C289   C     0.90944   0.57333   0.43260   0.00000  Uiso   1.00
C290   C     0.90039   0.29139   0.26972   0.00000  Uiso   1.00
C291   C     0.95958   0.24939   0.30272   0.00000  Uiso   1.00
C292   C     0.01037   0.22475   0.24586   0.00000  Uiso   1.00
C293   C     0.06002   0.18738   0.28951   0.00000  Uiso   1.00
C294   C     0.83780   0.25385   0.30096   0.00000  Uiso   1.00
C295   C     0.78619   0.23298   0.24260   0.00000  Uiso   1.00
C296   C     0.73331   0.19937   0.28476   0.00000  Uiso   1.00
C297   C     0.90230   0.35547   0.32789   0.00000  Uiso   1.00
C298   C     0.90490   0.42003   0.29219   0.00000  Uiso   1.00
C299   C     0.90631   0.47198   0.35703   0.00000  Uiso   1.00
H300   H     0.89734   0.25928   0.52389   0.00000  Uiso   1.00
H301   H     0.00708   0.19030   0.51858   0.00000  Uiso   1.00
H302   H     0.78294   0.19854   0.51532   0.00000  Uiso   1.00
H303   H     0.90164   0.38556   0.56490   0.00000  Uiso   1.00
H304   H     0.12925   0.11922   0.46990   0.00000  Uiso   1.00
H305   H     0.65662   0.13659   0.46304   0.00000  Uiso   1.00
H306   H     0.90691   0.53097   0.56759   0.00000  Uiso   1.00
H307   H     0.90129   0.30094   0.19418   0.00000  Uiso   1.00
H308   H     0.01125   0.23425   0.17078   0.00000  Uiso   1.00
H309   H     0.78710   0.24248   0.16752   0.00000  Uiso   1.00
H310   H     0.90580   0.42950   0.21711   0.00000  Uiso   1.00
H311   H     0.13264   0.15488   0.18761   0.00000  Uiso   1.00
H312   H     0.65999   0.17226   0.18075   0.00000  Uiso   1.00
H313   H     0.91029   0.56663   0.28530   0.00000  Uiso   1.00
O314   O     0.20320   0.09241   0.31930   0.00000  Uiso   1.00
O315   O     0.58311   0.11522   0.31030   0.00000  Uiso   1.00
O316   O     0.91150   0.63263   0.44748   0.00000  Uiso   1.00
N317   N     0.11497   0.13678   0.40668   0.00000  Uiso   1.00
N318   N     0.67308   0.15301   0.40026   0.00000  Uiso   1.00
N319   N     0.90707   0.52172   0.49801   0.00000  Uiso   1.00
N320   N     0.11679   0.15597   0.25478   0.00000  Uiso   1.00
N321   N     0.67490   0.17220   0.24836   0.00000  Uiso   1.00
N322   N     0.90889   0.54091   0.34611   0.00000  Uiso   1.00
C323   C     0.10175   0.73118   0.44835   0.00000  Uiso   1.00
C324   C     0.04157   0.76287   0.39975   0.00000  Uiso   1.00
C325   C     0.99200   0.80021   0.44349   0.00000  Uiso   1.00
C326   C     0.94115   0.82490   0.38671   0.00000  Uiso   1.00
C327   C     0.84791   0.87601   0.32599   0.00000  Uiso   1.00
C328   C     0.16336   0.75841   0.39798   0.00000  Uiso   1.00
C329   C     0.21618   0.79199   0.44024   0.00000  Uiso   1.00
C330   C     0.26785   0.81291   0.38196   0.00000  Uiso   1.00
C331   C     0.36370   0.85704   0.31850   0.00000  Uiso   1.00
C332   C     0.09886   0.65679   0.42492   0.00000  Uiso   1.00
C333   C     0.09747   0.60494   0.48983   0.00000  Uiso   1.00
C334   C     0.09486   0.54030   0.45423   0.00000  Uiso   1.00
C335   C     0.09056   0.42667   0.43260   0.00000  Uiso   1.00
C336   C     0.09961   0.70861   0.26972   0.00000  Uiso   1.00
C337   C     0.04042   0.75061   0.30272   0.00000  Uiso   1.00
C338   C     0.98963   0.77525   0.24586   0.00000  Uiso   1.00
C339   C     0.93998   0.81262   0.28951   0.00000  Uiso   1.00
C340   C     0.16220   0.74615   0.30096   0.00000  Uiso   1.00
C341   C     0.21381   0.76702   0.24260   0.00000  Uiso   1.00
C342   C     0.26669   0.80063   0.28476   0.00000  Uiso   1.00
C343   C     0.09770   0.64453   0.32789   0.00000  Uiso   1.00
C344   C     0.09510   0.57997   0.29219   0.00000  Uiso   1.00
C345   C     0.09369   0.52802   0.35703   0.00000  Uiso   1.00
H346   H     0.10266   0.74072   0.52389   0.00000  Uiso   1.00
H347   H     0.99292   0.80970   0.51858   0.00000  Uiso   1.00
H348   H     0.21706   0.80146   0.51532   0.00000  Uiso   1.00
H349   H     0.09836   0.61444   0.56490   0.00000  Uiso   1.00
H350   H     0.87075   0.88078   0.46990   0.00000  Uiso   1.00
H351   H     0.34338   0.86341   0.46304   0.00000  Uiso   1.00
H352   H     0.09309   0.46903   0.56759   0.00000  Uiso   1.00
H353   H     0.09871   0.69906   0.19418   0.00000  Uiso   1.00
H354   H     0.98875   0.76575   0.17078   0.00000  Uiso   1.00
H355   H     0.21290   0.75752   0.16752   0.00000  Uiso   1.00
H356   H     0.09420   0.57050   0.21711   0.00000  Uiso   1.00
H357   H     0.86736   0.84512   0.18761   0.00000  Uiso   1.00
H358   H     0.34001   0.82774   0.18075   0.00000  Uiso   1.00
H359   H     0.08971   0.43337   0.28530   0.00000  Uiso   1.00
O360   O     0.79680   0.90759   0.31930   0.00000  Uiso   1.00
O361   O     0.41689   0.88478   0.31030   0.00000  Uiso   1.00
O362   O     0.08850   0.36737   0.44748   0.00000  Uiso   1.00
N363   N     0.88503   0.86322   0.40668   0.00000  Uiso   1.00
N364   N     0.32692   0.84699   0.40026   0.00000  Uiso   1.00
N365   N     0.09293   0.47828   0.49801   0.00000  Uiso   1.00
N366   N     0.88321   0.84403   0.25478   0.00000  Uiso   1.00
N367   N     0.32510   0.82780   0.24836   0.00000  Uiso   1.00
N368   N     0.09111   0.45909   0.34611   0.00000  Uiso   1.00
