data_job_04908
_audit_creation_date              2018-12-19
_audit_creation_method            'Materials Studio'
_symmetry_space_group_name_H-M    'P1'
_symmetry_Int_Tables_number       1
_symmetry_cell_setting            triclinic
loop_
_symmetry_equiv_pos_as_xyz
  x,y,z
_cell_length_a                    17.6824
_cell_length_b                    17.6824
_cell_length_c                    16.3944
_cell_angle_alpha                 90.0000
_cell_angle_beta                  90.0000
_cell_angle_gamma                 90.0000
loop_
_atom_site_label
_atom_site_type_symbol
_atom_site_fract_x
_atom_site_fract_y
_atom_site_fract_z
_atom_site_U_iso_or_equiv
_atom_site_adp_type
_atom_site_occupancy
C1     C     0.75935   0.37979   0.11294   0.00000  Uiso   1.00
C2     C     0.67699   0.40489   0.11813   0.00000  Uiso   1.00
C3     C     0.61497   0.36363   0.09147   0.00000  Uiso   1.00
C4     C     0.54428   0.39646   0.10163   0.00000  Uiso   1.00
C5     C     0.41765   0.42457   0.10424   0.00000  Uiso   1.00
C6     C     0.80058   0.44163   0.06575   0.00000  Uiso   1.00
C7     C     0.84249   0.43124   0.99506   0.00000  Uiso   1.00
C8     C     0.87585   0.49499   0.96115   0.00000  Uiso   1.00
C9     C     0.94115   0.58012   0.88247   0.00000  Uiso   1.00
C10    C     0.79002   0.38311   0.19980   0.00000  Uiso   1.00
C11    C     0.82307   0.32353   0.24181   0.00000  Uiso   1.00
C12    C     0.84754   0.33802   0.32075   0.00000  Uiso   1.00
C13    C     0.89644   0.33229   0.45021   0.00000  Uiso   1.00
C14    C     0.74407   0.51149   0.17841   0.00000  Uiso   1.00
C15    C     0.66869   0.47643   0.15369   0.00000  Uiso   1.00
C16    C     0.59806   0.50933   0.16390   0.00000  Uiso   1.00
C17    C     0.53596   0.46811   0.13726   0.00000  Uiso   1.00
C18    C     0.79228   0.51315   0.10131   0.00000  Uiso   1.00
C19    C     0.82558   0.57694   0.06749   0.00000  Uiso   1.00
C20    C     0.86753   0.56665   0.99677   0.00000  Uiso   1.00
C21    C     0.78171   0.45464   0.23536   0.00000  Uiso   1.00
C22    C     0.80615   0.46923   0.31425   0.00000  Uiso   1.00
C23    C     0.83923   0.40968   0.35638   0.00000  Uiso   1.00
H24    H     0.76582   0.32411   0.08525   0.00000  Uiso   1.00
H25    H     0.62142   0.30827   0.06394   0.00000  Uiso   1.00
H26    H     0.84891   0.37588   0.96756   0.00000  Uiso   1.00
H27    H     0.82948   0.26818   0.21427   0.00000  Uiso   1.00
H28    H     0.45768   0.32228   0.05597   0.00000  Uiso   1.00
H29    H     0.93737   0.46481   0.85276   0.00000  Uiso   1.00
H30    H     0.89640   0.23772   0.37300   0.00000  Uiso   1.00
H31    H     0.73761   0.56718   0.20609   0.00000  Uiso   1.00
H32    H     0.59166   0.56468   0.19142   0.00000  Uiso   1.00
H33    H     0.81915   0.63228   0.09503   0.00000  Uiso   1.00
H34    H     0.79972   0.52459   0.34175   0.00000  Uiso   1.00
H35    H     0.43352   0.53039   0.15944   0.00000  Uiso   1.00
H36    H     0.91322   0.67292   0.95622   0.00000  Uiso   1.00
H37    H     0.87224   0.44583   0.47647   0.00000  Uiso   1.00
O38    O     0.35010   0.42032   0.09585   0.00000  Uiso   1.00
O39    O     0.97945   0.60731   0.82924   0.00000  Uiso   1.00
O40    O     0.92570   0.30937   0.51179   0.00000  Uiso   1.00
N41    N     0.47202   0.37159   0.08235   0.00000  Uiso   1.00
N42    N     0.92050   0.50485   0.89235   0.00000  Uiso   1.00
N43    N     0.88221   0.29255   0.37873   0.00000  Uiso   1.00
N44    N     0.45902   0.48357   0.13803   0.00000  Uiso   1.00
N45    N     0.90750   0.61684   0.94802   0.00000  Uiso   1.00
N46    N     0.86921   0.40453   0.43440   0.00000  Uiso   1.00
C47    C     0.24065   0.62021   0.61294   0.00000  Uiso   1.00
C48    C     0.32301   0.59511   0.61813   0.00000  Uiso   1.00
C49    C     0.38503   0.63637   0.59147   0.00000  Uiso   1.00
C50    C     0.45572   0.60354   0.60163   0.00000  Uiso   1.00
C51    C     0.58235   0.57543   0.60424   0.00000  Uiso   1.00
C52    C     0.19942   0.55837   0.56575   0.00000  Uiso   1.00
C53    C     0.15751   0.56876   0.49506   0.00000  Uiso   1.00
C54    C     0.12415   0.50501   0.46115   0.00000  Uiso   1.00
C55    C     0.05885   0.41988   0.38247   0.00000  Uiso   1.00
C56    C     0.20998   0.61689   0.69980   0.00000  Uiso   1.00
C57    C     0.17693   0.67647   0.74181   0.00000  Uiso   1.00
C58    C     0.15246   0.66198   0.82075   0.00000  Uiso   1.00
C59    C     0.10356   0.66771   0.95021   0.00000  Uiso   1.00
C60    C     0.25593   0.48851   0.67841   0.00000  Uiso   1.00
C61    C     0.33131   0.52357   0.65369   0.00000  Uiso   1.00
C62    C     0.40194   0.49067   0.66390   0.00000  Uiso   1.00
C63    C     0.46404   0.53189   0.63726   0.00000  Uiso   1.00
C64    C     0.20772   0.48685   0.60131   0.00000  Uiso   1.00
C65    C     0.17442   0.42306   0.56749   0.00000  Uiso   1.00
C66    C     0.13247   0.43335   0.49677   0.00000  Uiso   1.00
C67    C     0.21829   0.54536   0.73536   0.00000  Uiso   1.00
C68    C     0.19385   0.53077   0.81425   0.00000  Uiso   1.00
C69    C     0.16077   0.59032   0.85638   0.00000  Uiso   1.00
H70    H     0.23418   0.67589   0.58525   0.00000  Uiso   1.00
H71    H     0.37858   0.69173   0.56394   0.00000  Uiso   1.00
H72    H     0.15109   0.62412   0.46756   0.00000  Uiso   1.00
H73    H     0.17052   0.73182   0.71427   0.00000  Uiso   1.00
H74    H     0.54232   0.67772   0.55597   0.00000  Uiso   1.00
H75    H     0.06263   0.53519   0.35276   0.00000  Uiso   1.00
H76    H     0.10360   0.76228   0.87300   0.00000  Uiso   1.00
H77    H     0.26239   0.43282   0.70609   0.00000  Uiso   1.00
H78    H     0.40834   0.43532   0.69142   0.00000  Uiso   1.00
H79    H     0.18085   0.36772   0.59503   0.00000  Uiso   1.00
H80    H     0.20028   0.47541   0.84175   0.00000  Uiso   1.00
H81    H     0.56648   0.46961   0.65944   0.00000  Uiso   1.00
H82    H     0.08678   0.32708   0.45622   0.00000  Uiso   1.00
H83    H     0.12776   0.55417   0.97647   0.00000  Uiso   1.00
O84    O     0.64990   0.57968   0.59585   0.00000  Uiso   1.00
O85    O     0.02055   0.39269   0.32924   0.00000  Uiso   1.00
O86    O     0.07430   0.69063   0.01179   0.00000  Uiso   1.00
N87    N     0.52798   0.62841   0.58235   0.00000  Uiso   1.00
N88    N     0.07950   0.49515   0.39235   0.00000  Uiso   1.00
N89    N     0.11779   0.70745   0.87873   0.00000  Uiso   1.00
N90    N     0.54098   0.51643   0.63803   0.00000  Uiso   1.00
N91    N     0.09250   0.38316   0.44802   0.00000  Uiso   1.00
N92    N     0.13079   0.59547   0.93440   0.00000  Uiso   1.00
C93    C     0.12021   0.25935   0.86294   0.00000  Uiso   1.00
C94    C     0.09511   0.17699   0.86813   0.00000  Uiso   1.00
C95    C     0.13637   0.11497   0.84147   0.00000  Uiso   1.00
C96    C     0.10354   0.04428   0.85163   0.00000  Uiso   1.00
C97    C     0.07543   0.91765   0.85424   0.00000  Uiso   1.00
C98    C     0.05837   0.30058   0.81575   0.00000  Uiso   1.00
C99    C     0.06876   0.34249   0.74506   0.00000  Uiso   1.00
C100   C     0.00501   0.37585   0.71115   0.00000  Uiso   1.00
C101   C     0.91988   0.44115   0.63247   0.00000  Uiso   1.00
C102   C     0.11689   0.29002   0.94980   0.00000  Uiso   1.00
C103   C     0.17647   0.32307   0.99181   0.00000  Uiso   1.00
C104   C     0.16198   0.34754   0.07075   0.00000  Uiso   1.00
C105   C     0.16771   0.39644   0.20021   0.00000  Uiso   1.00
C106   C     0.98851   0.24407   0.92841   0.00000  Uiso   1.00
C107   C     0.02357   0.16869   0.90369   0.00000  Uiso   1.00
C108   C     0.99067   0.09806   0.91390   0.00000  Uiso   1.00
C109   C     0.03189   0.03596   0.88726   0.00000  Uiso   1.00
C110   C     0.98685   0.29228   0.85131   0.00000  Uiso   1.00
C111   C     0.92306   0.32558   0.81749   0.00000  Uiso   1.00
C112   C     0.93335   0.36753   0.74677   0.00000  Uiso   1.00
C113   C     0.04536   0.28171   0.98536   0.00000  Uiso   1.00
C114   C     0.03077   0.30615   0.06425   0.00000  Uiso   1.00
C115   C     0.09032   0.33923   0.10638   0.00000  Uiso   1.00
H116   H     0.17589   0.26582   0.83525   0.00000  Uiso   1.00
H117   H     0.19173   0.12142   0.81394   0.00000  Uiso   1.00
H118   H     0.12412   0.34891   0.71756   0.00000  Uiso   1.00
H119   H     0.23182   0.32948   0.96427   0.00000  Uiso   1.00
H120   H     0.17772   0.95768   0.80597   0.00000  Uiso   1.00
H121   H     0.03519   0.43737   0.60276   0.00000  Uiso   1.00
H122   H     0.26228   0.39640   0.12300   0.00000  Uiso   1.00
H123   H     0.93282   0.23761   0.95609   0.00000  Uiso   1.00
H124   H     0.93532   0.09166   0.94142   0.00000  Uiso   1.00
H125   H     0.86772   0.31915   0.84503   0.00000  Uiso   1.00
H126   H     0.97541   0.29972   0.09175   0.00000  Uiso   1.00
H127   H     0.96961   0.93352   0.90944   0.00000  Uiso   1.00
H128   H     0.82708   0.41322   0.70622   0.00000  Uiso   1.00
H129   H     0.05417   0.37224   0.22647   0.00000  Uiso   1.00
O130   O     0.07968   0.85010   0.84585   0.00000  Uiso   1.00
O131   O     0.89269   0.47945   0.57924   0.00000  Uiso   1.00
O132   O     0.19063   0.42570   0.26179   0.00000  Uiso   1.00
N133   N     0.12841   0.97202   0.83235   0.00000  Uiso   1.00
N134   N     0.99515   0.42050   0.64235   0.00000  Uiso   1.00
N135   N     0.20745   0.38221   0.12873   0.00000  Uiso   1.00
N136   N     0.01643   0.95902   0.88803   0.00000  Uiso   1.00
N137   N     0.88316   0.40750   0.69802   0.00000  Uiso   1.00
N138   N     0.09547   0.36921   0.18440   0.00000  Uiso   1.00
C139   C     0.87979   0.74065   0.36294   0.00000  Uiso   1.00
C140   C     0.90489   0.82301   0.36813   0.00000  Uiso   1.00
C141   C     0.86363   0.88503   0.34147   0.00000  Uiso   1.00
C142   C     0.89646   0.95572   0.35163   0.00000  Uiso   1.00
C143   C     0.92457   0.08235   0.35424   0.00000  Uiso   1.00
C144   C     0.94163   0.69942   0.31575   0.00000  Uiso   1.00
C145   C     0.93124   0.65751   0.24506   0.00000  Uiso   1.00
C146   C     0.99499   0.62415   0.21115   0.00000  Uiso   1.00
C147   C     0.08012   0.55885   0.13247   0.00000  Uiso   1.00
C148   C     0.88311   0.70998   0.44980   0.00000  Uiso   1.00
C149   C     0.82353   0.67693   0.49181   0.00000  Uiso   1.00
C150   C     0.83802   0.65246   0.57075   0.00000  Uiso   1.00
C151   C     0.83229   0.60356   0.70021   0.00000  Uiso   1.00
C152   C     0.01149   0.75593   0.42841   0.00000  Uiso   1.00
C153   C     0.97643   0.83131   0.40369   0.00000  Uiso   1.00
C154   C     0.00933   0.90194   0.41390   0.00000  Uiso   1.00
C155   C     0.96811   0.96404   0.38726   0.00000  Uiso   1.00
C156   C     0.01315   0.70772   0.35131   0.00000  Uiso   1.00
C157   C     0.07694   0.67442   0.31749   0.00000  Uiso   1.00
C158   C     0.06665   0.63247   0.24677   0.00000  Uiso   1.00
C159   C     0.95464   0.71829   0.48536   0.00000  Uiso   1.00
C160   C     0.96923   0.69385   0.56425   0.00000  Uiso   1.00
C161   C     0.90968   0.66077   0.60638   0.00000  Uiso   1.00
H162   H     0.82411   0.73418   0.33525   0.00000  Uiso   1.00
H163   H     0.80827   0.87858   0.31394   0.00000  Uiso   1.00
H164   H     0.87588   0.65109   0.21756   0.00000  Uiso   1.00
H165   H     0.76818   0.67052   0.46427   0.00000  Uiso   1.00
H166   H     0.82228   0.04232   0.30597   0.00000  Uiso   1.00
H167   H     0.96481   0.56263   0.10276   0.00000  Uiso   1.00
H168   H     0.73772   0.60360   0.62300   0.00000  Uiso   1.00
H169   H     0.06718   0.76239   0.45609   0.00000  Uiso   1.00
H170   H     0.06468   0.90834   0.44142   0.00000  Uiso   1.00
H171   H     0.13228   0.68085   0.34503   0.00000  Uiso   1.00
H172   H     0.02459   0.70028   0.59175   0.00000  Uiso   1.00
H173   H     0.03039   0.06648   0.40944   0.00000  Uiso   1.00
H174   H     0.17292   0.58678   0.20622   0.00000  Uiso   1.00
H175   H     0.94583   0.62776   0.72647   0.00000  Uiso   1.00
O176   O     0.92032   0.14990   0.34585   0.00000  Uiso   1.00
O177   O     0.10731   0.52055   0.07924   0.00000  Uiso   1.00
O178   O     0.80937   0.57430   0.76179   0.00000  Uiso   1.00
N179   N     0.87159   0.02798   0.33235   0.00000  Uiso   1.00
N180   N     0.00485   0.57950   0.14235   0.00000  Uiso   1.00
N181   N     0.79255   0.61779   0.62873   0.00000  Uiso   1.00
N182   N     0.98357   0.04098   0.38803   0.00000  Uiso   1.00
N183   N     0.11684   0.59250   0.19802   0.00000  Uiso   1.00
N184   N     0.90453   0.63079   0.68440   0.00000  Uiso   1.00
C185   C     0.74065   0.87979   0.63706   0.00000  Uiso   1.00
C186   C     0.82301   0.90489   0.63187   0.00000  Uiso   1.00
C187   C     0.88503   0.86363   0.65853   0.00000  Uiso   1.00
C188   C     0.95572   0.89646   0.64837   0.00000  Uiso   1.00
C189   C     0.08235   0.92457   0.64576   0.00000  Uiso   1.00
C190   C     0.69942   0.94163   0.68425   0.00000  Uiso   1.00
C191   C     0.65751   0.93124   0.75494   0.00000  Uiso   1.00
C192   C     0.62415   0.99499   0.78885   0.00000  Uiso   1.00
C193   C     0.55885   0.08012   0.86753   0.00000  Uiso   1.00
C194   C     0.70998   0.88311   0.55020   0.00000  Uiso   1.00
C195   C     0.67693   0.82353   0.50819   0.00000  Uiso   1.00
C196   C     0.65246   0.83802   0.42925   0.00000  Uiso   1.00
C197   C     0.60356   0.83229   0.29979   0.00000  Uiso   1.00
C198   C     0.75593   0.01149   0.57159   0.00000  Uiso   1.00
C199   C     0.83131   0.97643   0.59631   0.00000  Uiso   1.00
C200   C     0.90194   0.00933   0.58610   0.00000  Uiso   1.00
C201   C     0.96404   0.96811   0.61274   0.00000  Uiso   1.00
C202   C     0.70772   0.01315   0.64869   0.00000  Uiso   1.00
C203   C     0.67442   0.07694   0.68251   0.00000  Uiso   1.00
C204   C     0.63247   0.06665   0.75323   0.00000  Uiso   1.00
C205   C     0.71829   0.95464   0.51464   0.00000  Uiso   1.00
C206   C     0.69385   0.96923   0.43575   0.00000  Uiso   1.00
C207   C     0.66077   0.90968   0.39362   0.00000  Uiso   1.00
H208   H     0.73418   0.82411   0.66475   0.00000  Uiso   1.00
H209   H     0.87858   0.80827   0.68606   0.00000  Uiso   1.00
H210   H     0.65109   0.87588   0.78244   0.00000  Uiso   1.00
H211   H     0.67052   0.76818   0.53573   0.00000  Uiso   1.00
H212   H     0.04232   0.82228   0.69403   0.00000  Uiso   1.00
H213   H     0.56263   0.96481   0.89724   0.00000  Uiso   1.00
H214   H     0.60360   0.73772   0.37700   0.00000  Uiso   1.00
H215   H     0.76239   0.06718   0.54391   0.00000  Uiso   1.00
H216   H     0.90834   0.06468   0.55858   0.00000  Uiso   1.00
H217   H     0.68085   0.13228   0.65497   0.00000  Uiso   1.00
H218   H     0.70028   0.02459   0.40825   0.00000  Uiso   1.00
H219   H     0.06648   0.03039   0.59056   0.00000  Uiso   1.00
H220   H     0.58678   0.17292   0.79378   0.00000  Uiso   1.00
H221   H     0.62776   0.94583   0.27353   0.00000  Uiso   1.00
O222   O     0.14990   0.92032   0.65415   0.00000  Uiso   1.00
O223   O     0.52055   0.10731   0.92076   0.00000  Uiso   1.00
O224   O     0.57430   0.80937   0.23821   0.00000  Uiso   1.00
N225   N     0.02798   0.87159   0.66765   0.00000  Uiso   1.00
N226   N     0.57950   0.00485   0.85765   0.00000  Uiso   1.00
N227   N     0.61779   0.79255   0.37127   0.00000  Uiso   1.00
N228   N     0.04098   0.98357   0.61197   0.00000  Uiso   1.00
N229   N     0.59250   0.11684   0.80198   0.00000  Uiso   1.00
N230   N     0.63079   0.90453   0.31560   0.00000  Uiso   1.00
C231   C     0.25935   0.12021   0.13706   0.00000  Uiso   1.00
C232   C     0.17699   0.09511   0.13187   0.00000  Uiso   1.00
C233   C     0.11497   0.13637   0.15853   0.00000  Uiso   1.00
C234   C     0.04428   0.10354   0.14837   0.00000  Uiso   1.00
C235   C     0.91765   0.07543   0.14576   0.00000  Uiso   1.00
C236   C     0.30058   0.05837   0.18425   0.00000  Uiso   1.00
C237   C     0.34249   0.06876   0.25494   0.00000  Uiso   1.00
C238   C     0.37585   0.00501   0.28885   0.00000  Uiso   1.00
C239   C     0.44115   0.91988   0.36753   0.00000  Uiso   1.00
C240   C     0.29002   0.11689   0.05020   0.00000  Uiso   1.00
C241   C     0.32307   0.17647   0.00819   0.00000  Uiso   1.00
C242   C     0.34754   0.16198   0.92925   0.00000  Uiso   1.00
C243   C     0.39644   0.16771   0.79979   0.00000  Uiso   1.00
C244   C     0.24407   0.98851   0.07159   0.00000  Uiso   1.00
C245   C     0.16869   0.02357   0.09631   0.00000  Uiso   1.00
C246   C     0.09806   0.99067   0.08610   0.00000  Uiso   1.00
C247   C     0.03596   0.03189   0.11274   0.00000  Uiso   1.00
C248   C     0.29228   0.98685   0.14869   0.00000  Uiso   1.00
C249   C     0.32558   0.92306   0.18251   0.00000  Uiso   1.00
C250   C     0.36753   0.93335   0.25323   0.00000  Uiso   1.00
C251   C     0.28171   0.04536   0.01464   0.00000  Uiso   1.00
C252   C     0.30615   0.03077   0.93575   0.00000  Uiso   1.00
C253   C     0.33923   0.09032   0.89362   0.00000  Uiso   1.00
H254   H     0.26582   0.17589   0.16475   0.00000  Uiso   1.00
H255   H     0.12142   0.19173   0.18606   0.00000  Uiso   1.00
H256   H     0.34891   0.12412   0.28244   0.00000  Uiso   1.00
H257   H     0.32948   0.23182   0.03573   0.00000  Uiso   1.00
H258   H     0.95768   0.17772   0.19403   0.00000  Uiso   1.00
H259   H     0.43737   0.03519   0.39724   0.00000  Uiso   1.00
H260   H     0.39640   0.26228   0.87700   0.00000  Uiso   1.00
H261   H     0.23761   0.93282   0.04391   0.00000  Uiso   1.00
H262   H     0.09166   0.93532   0.05858   0.00000  Uiso   1.00
H263   H     0.31915   0.86772   0.15497   0.00000  Uiso   1.00
H264   H     0.29972   0.97541   0.90825   0.00000  Uiso   1.00
H265   H     0.93352   0.96961   0.09056   0.00000  Uiso   1.00
H266   H     0.41322   0.82708   0.29378   0.00000  Uiso   1.00
H267   H     0.37224   0.05417   0.77353   0.00000  Uiso   1.00
O268   O     0.85010   0.07968   0.15415   0.00000  Uiso   1.00
O269   O     0.47945   0.89269   0.42076   0.00000  Uiso   1.00
O270   O     0.42570   0.19063   0.73821   0.00000  Uiso   1.00
N271   N     0.97202   0.12841   0.16765   0.00000  Uiso   1.00
N272   N     0.42050   0.99515   0.35765   0.00000  Uiso   1.00
N273   N     0.38221   0.20745   0.87127   0.00000  Uiso   1.00
N274   N     0.95902   0.01643   0.11197   0.00000  Uiso   1.00
N275   N     0.40750   0.88316   0.30198   0.00000  Uiso   1.00
N276   N     0.36921   0.09547   0.81560   0.00000  Uiso   1.00
C277   C     0.37979   0.75935   0.88706   0.00000  Uiso   1.00
C278   C     0.40489   0.67699   0.88187   0.00000  Uiso   1.00
C279   C     0.36363   0.61497   0.90853   0.00000  Uiso   1.00
C280   C     0.39646   0.54428   0.89837   0.00000  Uiso   1.00
C281   C     0.42457   0.41765   0.89576   0.00000  Uiso   1.00
C282   C     0.44163   0.80058   0.93425   0.00000  Uiso   1.00
C283   C     0.43124   0.84249   0.00494   0.00000  Uiso   1.00
C284   C     0.49499   0.87585   0.03885   0.00000  Uiso   1.00
C285   C     0.58012   0.94115   0.11753   0.00000  Uiso   1.00
C286   C     0.38311   0.79002   0.80020   0.00000  Uiso   1.00
C287   C     0.32353   0.82307   0.75819   0.00000  Uiso   1.00
C288   C     0.33802   0.84754   0.67925   0.00000  Uiso   1.00
C289   C     0.33229   0.89644   0.54979   0.00000  Uiso   1.00
C290   C     0.51149   0.74407   0.82159   0.00000  Uiso   1.00
C291   C     0.47643   0.66869   0.84631   0.00000  Uiso   1.00
C292   C     0.50933   0.59806   0.83610   0.00000  Uiso   1.00
C293   C     0.46811   0.53596   0.86274   0.00000  Uiso   1.00
C294   C     0.51315   0.79228   0.89869   0.00000  Uiso   1.00
C295   C     0.57694   0.82558   0.93251   0.00000  Uiso   1.00
C296   C     0.56665   0.86753   0.00323   0.00000  Uiso   1.00
C297   C     0.45464   0.78171   0.76464   0.00000  Uiso   1.00
C298   C     0.46923   0.80615   0.68575   0.00000  Uiso   1.00
C299   C     0.40968   0.83923   0.64362   0.00000  Uiso   1.00
H300   H     0.32411   0.76582   0.91475   0.00000  Uiso   1.00
H301   H     0.30827   0.62142   0.93606   0.00000  Uiso   1.00
H302   H     0.37588   0.84891   0.03244   0.00000  Uiso   1.00
H303   H     0.26818   0.82948   0.78573   0.00000  Uiso   1.00
H304   H     0.32228   0.45768   0.94403   0.00000  Uiso   1.00
H305   H     0.46481   0.93737   0.14724   0.00000  Uiso   1.00
H306   H     0.23772   0.89640   0.62700   0.00000  Uiso   1.00
H307   H     0.56718   0.73761   0.79391   0.00000  Uiso   1.00
H308   H     0.56468   0.59166   0.80858   0.00000  Uiso   1.00
H309   H     0.63228   0.81915   0.90497   0.00000  Uiso   1.00
H310   H     0.52459   0.79972   0.65825   0.00000  Uiso   1.00
H311   H     0.53039   0.43352   0.84056   0.00000  Uiso   1.00
H312   H     0.67292   0.91322   0.04378   0.00000  Uiso   1.00
H313   H     0.44583   0.87224   0.52353   0.00000  Uiso   1.00
O314   O     0.42032   0.35010   0.90415   0.00000  Uiso   1.00
O315   O     0.60731   0.97945   0.17076   0.00000  Uiso   1.00
O316   O     0.30937   0.92570   0.48821   0.00000  Uiso   1.00
N317   N     0.37159   0.47202   0.91765   0.00000  Uiso   1.00
N318   N     0.50485   0.92050   0.10765   0.00000  Uiso   1.00
N319   N     0.29255   0.88221   0.62127   0.00000  Uiso   1.00
N320   N     0.48357   0.45902   0.86197   0.00000  Uiso   1.00
N321   N     0.61684   0.90750   0.05198   0.00000  Uiso   1.00
N322   N     0.40453   0.86921   0.56560   0.00000  Uiso   1.00
C323   C     0.62021   0.24065   0.38706   0.00000  Uiso   1.00
C324   C     0.59511   0.32301   0.38187   0.00000  Uiso   1.00
C325   C     0.63637   0.38503   0.40853   0.00000  Uiso   1.00
C326   C     0.60354   0.45572   0.39837   0.00000  Uiso   1.00
C327   C     0.57543   0.58235   0.39576   0.00000  Uiso   1.00
C328   C     0.55837   0.19942   0.43425   0.00000  Uiso   1.00
C329   C     0.56876   0.15751   0.50494   0.00000  Uiso   1.00
C330   C     0.50501   0.12415   0.53885   0.00000  Uiso   1.00
C331   C     0.41988   0.05885   0.61753   0.00000  Uiso   1.00
C332   C     0.61689   0.20998   0.30020   0.00000  Uiso   1.00
C333   C     0.67647   0.17693   0.25819   0.00000  Uiso   1.00
C334   C     0.66198   0.15246   0.17925   0.00000  Uiso   1.00
C335   C     0.66771   0.10356   0.04979   0.00000  Uiso   1.00
C336   C     0.48851   0.25593   0.32159   0.00000  Uiso   1.00
C337   C     0.52357   0.33131   0.34631   0.00000  Uiso   1.00
C338   C     0.49067   0.40194   0.33610   0.00000  Uiso   1.00
C339   C     0.53189   0.46404   0.36274   0.00000  Uiso   1.00
C340   C     0.48685   0.20772   0.39869   0.00000  Uiso   1.00
C341   C     0.42306   0.17442   0.43251   0.00000  Uiso   1.00
C342   C     0.43335   0.13247   0.50323   0.00000  Uiso   1.00
C343   C     0.54536   0.21829   0.26464   0.00000  Uiso   1.00
C344   C     0.53077   0.19385   0.18575   0.00000  Uiso   1.00
C345   C     0.59032   0.16077   0.14362   0.00000  Uiso   1.00
H346   H     0.67589   0.23418   0.41475   0.00000  Uiso   1.00
H347   H     0.69173   0.37858   0.43606   0.00000  Uiso   1.00
H348   H     0.62412   0.15109   0.53244   0.00000  Uiso   1.00
H349   H     0.73182   0.17052   0.28573   0.00000  Uiso   1.00
H350   H     0.67772   0.54232   0.44403   0.00000  Uiso   1.00
H351   H     0.53519   0.06263   0.64724   0.00000  Uiso   1.00
H352   H     0.76228   0.10360   0.12700   0.00000  Uiso   1.00
H353   H     0.43282   0.26239   0.29391   0.00000  Uiso   1.00
H354   H     0.43532   0.40834   0.30858   0.00000  Uiso   1.00
H355   H     0.36772   0.18085   0.40497   0.00000  Uiso   1.00
H356   H     0.47541   0.20028   0.15825   0.00000  Uiso   1.00
H357   H     0.46961   0.56648   0.34056   0.00000  Uiso   1.00
H358   H     0.32708   0.08678   0.54378   0.00000  Uiso   1.00
H359   H     0.55417   0.12776   0.02353   0.00000  Uiso   1.00
O360   O     0.57968   0.64990   0.40415   0.00000  Uiso   1.00
O361   O     0.39269   0.02055   0.67076   0.00000  Uiso   1.00
O362   O     0.69063   0.07430   0.98821   0.00000  Uiso   1.00
N363   N     0.62841   0.52798   0.41765   0.00000  Uiso   1.00
N364   N     0.49515   0.07950   0.60765   0.00000  Uiso   1.00
N365   N     0.70745   0.11779   0.12127   0.00000  Uiso   1.00
N366   N     0.51643   0.54098   0.36197   0.00000  Uiso   1.00
N367   N     0.38316   0.09250   0.55198   0.00000  Uiso   1.00
N368   N     0.59547   0.13079   0.06560   0.00000  Uiso   1.00
