data_job_03120
_audit_creation_date              2018-12-19
_audit_creation_method            'Materials Studio'
_symmetry_space_group_name_H-M    'P1'
_symmetry_Int_Tables_number       1
_symmetry_cell_setting            triclinic
loop_
_symmetry_equiv_pos_as_xyz
  x,y,z
_cell_length_a                    21.3125
_cell_length_b                    11.9179
_cell_length_c                    9.7619
_cell_angle_alpha                 90.0000
_cell_angle_beta                  90.0000
_cell_angle_gamma                 90.0000
loop_
_atom_site_label
_atom_site_type_symbol
_atom_site_fract_x
_atom_site_fract_y
_atom_site_fract_z
_atom_site_U_iso_or_equiv
_atom_site_adp_type
_atom_site_occupancy
C1     C     0.74981   0.91761   0.51210   0.00000  Uiso   1.00
C2     C     0.70010   0.96979   0.41955   0.00000  Uiso   1.00
C3     C     0.69253   0.08359   0.39443   0.00000  Uiso   1.00
C4     C     0.64425   0.11441   0.30666   0.00000  Uiso   1.00
C5     C     0.57301   0.20762   0.17219   0.00000  Uiso   1.00
C6     C     0.71421   0.84774   0.61738   0.00000  Uiso   1.00
C7     C     0.71851   0.85892   0.75858   0.00000  Uiso   1.00
C8     C     0.68211   0.78698   0.83733   0.00000  Uiso   1.00
C9     C     0.63281   0.69066   0.00999   0.00000  Uiso   1.00
C10    C     0.78560   0.83413   0.42318   0.00000  Uiso   1.00
C11    C     0.84993   0.83385   0.40113   0.00000  Uiso   1.00
C12    C     0.87365   0.75043   0.31641   0.00000  Uiso   1.00
C13    C     0.93520   0.63297   0.18756   0.00000  Uiso   1.00
C14    C     0.67755   0.76995   0.40090   0.00000  Uiso   1.00
C15    C     0.66085   0.88958   0.35915   0.00000  Uiso   1.00
C16    C     0.61257   0.92022   0.27139   0.00000  Uiso   1.00
C17    C     0.60493   0.03406   0.24614   0.00000  Uiso   1.00
C18    C     0.67496   0.76754   0.55698   0.00000  Uiso   1.00
C19    C     0.63855   0.69555   0.63554   0.00000  Uiso   1.00
C20    C     0.64279   0.70663   0.77682   0.00000  Uiso   1.00
C21    C     0.74635   0.75392   0.36278   0.00000  Uiso   1.00
C22    C     0.76997   0.67048   0.27809   0.00000  Uiso   1.00
C23    C     0.83432   0.67008   0.25590   0.00000  Uiso   1.00
H24    H     0.78037   0.98005   0.55914   0.00000  Uiso   1.00
H25    H     0.72291   0.14564   0.44120   0.00000  Uiso   1.00
H26    H     0.74889   0.92099   0.80529   0.00000  Uiso   1.00
H27    H     0.88029   0.89592   0.44789   0.00000  Uiso   1.00
H28    H     0.64188   0.29385   0.28385   0.00000  Uiso   1.00
H29    H     0.69668   0.82015   0.05156   0.00000  Uiso   1.00
H30    H     0.97376   0.76729   0.29791   0.00000  Uiso   1.00
H31    H     0.64698   0.70750   0.35387   0.00000  Uiso   1.00
H32    H     0.58220   0.85814   0.22466   0.00000  Uiso   1.00
H33    H     0.60818   0.63349   0.58876   0.00000  Uiso   1.00
H34    H     0.73958   0.60843   0.23136   0.00000  Uiso   1.00
H35    H     0.52767   0.06051   0.10811   0.00000  Uiso   1.00
H36    H     0.58248   0.58680   0.87582   0.00000  Uiso   1.00
H37    H     0.85956   0.53394   0.12217   0.00000  Uiso   1.00
O38    O     0.54455   0.28119   0.11473   0.00000  Uiso   1.00
O39    O     0.61646   0.65970   0.12192   0.00000  Uiso   1.00
O40    O     0.97999   0.59035   0.13315   0.00000  Uiso   1.00
N41    N     0.62390   0.21826   0.26020   0.00000  Uiso   1.00
N42    N     0.67513   0.77539   0.97796   0.00000  Uiso   1.00
N43    N     0.93418   0.72595   0.27339   0.00000  Uiso   1.00
N44    N     0.56244   0.09270   0.16563   0.00000  Uiso   1.00
N45    N     0.61367   0.64983   0.88339   0.00000  Uiso   1.00
N46    N     0.87273   0.60039   0.17883   0.00000  Uiso   1.00
C47    C     0.25019   0.08239   0.01210   0.00000  Uiso   1.00
C48    C     0.29990   0.03021   0.91955   0.00000  Uiso   1.00
C49    C     0.30747   0.91641   0.89443   0.00000  Uiso   1.00
C50    C     0.35575   0.88559   0.80666   0.00000  Uiso   1.00
C51    C     0.42699   0.79238   0.67219   0.00000  Uiso   1.00
C52    C     0.28579   0.15226   0.11738   0.00000  Uiso   1.00
C53    C     0.28149   0.14108   0.25858   0.00000  Uiso   1.00
C54    C     0.31789   0.21302   0.33733   0.00000  Uiso   1.00
C55    C     0.36719   0.30934   0.50999   0.00000  Uiso   1.00
C56    C     0.21440   0.16587   0.92318   0.00000  Uiso   1.00
C57    C     0.15007   0.16615   0.90113   0.00000  Uiso   1.00
C58    C     0.12635   0.24957   0.81641   0.00000  Uiso   1.00
C59    C     0.06480   0.36703   0.68756   0.00000  Uiso   1.00
C60    C     0.32245   0.23005   0.90090   0.00000  Uiso   1.00
C61    C     0.33915   0.11042   0.85915   0.00000  Uiso   1.00
C62    C     0.38743   0.07978   0.77139   0.00000  Uiso   1.00
C63    C     0.39507   0.96594   0.74614   0.00000  Uiso   1.00
C64    C     0.32504   0.23246   0.05698   0.00000  Uiso   1.00
C65    C     0.36145   0.30445   0.13554   0.00000  Uiso   1.00
C66    C     0.35721   0.29337   0.27682   0.00000  Uiso   1.00
C67    C     0.25365   0.24608   0.86278   0.00000  Uiso   1.00
C68    C     0.23003   0.32952   0.77809   0.00000  Uiso   1.00
C69    C     0.16568   0.32992   0.75590   0.00000  Uiso   1.00
H70    H     0.21963   0.01995   0.05914   0.00000  Uiso   1.00
H71    H     0.27709   0.85436   0.94120   0.00000  Uiso   1.00
H72    H     0.25111   0.07901   0.30529   0.00000  Uiso   1.00
H73    H     0.11971   0.10408   0.94789   0.00000  Uiso   1.00
H74    H     0.35812   0.70615   0.78385   0.00000  Uiso   1.00
H75    H     0.30332   0.17985   0.55156   0.00000  Uiso   1.00
H76    H     0.02624   0.23271   0.79791   0.00000  Uiso   1.00
H77    H     0.35302   0.29250   0.85387   0.00000  Uiso   1.00
H78    H     0.41780   0.14186   0.72466   0.00000  Uiso   1.00
H79    H     0.39182   0.36651   0.08876   0.00000  Uiso   1.00
H80    H     0.26042   0.39157   0.73136   0.00000  Uiso   1.00
H81    H     0.47233   0.93949   0.60811   0.00000  Uiso   1.00
H82    H     0.41752   0.41320   0.37582   0.00000  Uiso   1.00
H83    H     0.14044   0.46606   0.62217   0.00000  Uiso   1.00
O84    O     0.45545   0.71881   0.61473   0.00000  Uiso   1.00
O85    O     0.38354   0.34030   0.62192   0.00000  Uiso   1.00
O86    O     0.02001   0.40965   0.63315   0.00000  Uiso   1.00
N87    N     0.37610   0.78174   0.76020   0.00000  Uiso   1.00
N88    N     0.32487   0.22461   0.47796   0.00000  Uiso   1.00
N89    N     0.06582   0.27405   0.77339   0.00000  Uiso   1.00
N90    N     0.43756   0.90730   0.66563   0.00000  Uiso   1.00
N91    N     0.38633   0.35017   0.38339   0.00000  Uiso   1.00
N92    N     0.12727   0.39961   0.67883   0.00000  Uiso   1.00
C93    C     0.24981   0.58239   0.51210   0.00000  Uiso   1.00
C94    C     0.20010   0.53021   0.41955   0.00000  Uiso   1.00
C95    C     0.19253   0.41641   0.39443   0.00000  Uiso   1.00
C96    C     0.14425   0.38559   0.30666   0.00000  Uiso   1.00
C97    C     0.07301   0.29238   0.17219   0.00000  Uiso   1.00
C98    C     0.21421   0.65226   0.61738   0.00000  Uiso   1.00
C99    C     0.21851   0.64108   0.75858   0.00000  Uiso   1.00
C100   C     0.18211   0.71302   0.83733   0.00000  Uiso   1.00
C101   C     0.13281   0.80934   0.00999   0.00000  Uiso   1.00
C102   C     0.28560   0.66587   0.42318   0.00000  Uiso   1.00
C103   C     0.34993   0.66615   0.40113   0.00000  Uiso   1.00
C104   C     0.37365   0.74957   0.31641   0.00000  Uiso   1.00
C105   C     0.43520   0.86703   0.18756   0.00000  Uiso   1.00
C106   C     0.17755   0.73005   0.40090   0.00000  Uiso   1.00
C107   C     0.16085   0.61042   0.35915   0.00000  Uiso   1.00
C108   C     0.11257   0.57978   0.27139   0.00000  Uiso   1.00
C109   C     0.10493   0.46594   0.24614   0.00000  Uiso   1.00
C110   C     0.17496   0.73246   0.55698   0.00000  Uiso   1.00
C111   C     0.13855   0.80445   0.63554   0.00000  Uiso   1.00
C112   C     0.14279   0.79337   0.77682   0.00000  Uiso   1.00
C113   C     0.24635   0.74608   0.36278   0.00000  Uiso   1.00
C114   C     0.26997   0.82952   0.27809   0.00000  Uiso   1.00
C115   C     0.33432   0.82992   0.25590   0.00000  Uiso   1.00
H116   H     0.28037   0.51995   0.55914   0.00000  Uiso   1.00
H117   H     0.22291   0.35436   0.44120   0.00000  Uiso   1.00
H118   H     0.24889   0.57901   0.80529   0.00000  Uiso   1.00
H119   H     0.38029   0.60408   0.44789   0.00000  Uiso   1.00
H120   H     0.14188   0.20615   0.28385   0.00000  Uiso   1.00
H121   H     0.19668   0.67985   0.05156   0.00000  Uiso   1.00
H122   H     0.47376   0.73271   0.29791   0.00000  Uiso   1.00
H123   H     0.14698   0.79250   0.35387   0.00000  Uiso   1.00
H124   H     0.08220   0.64186   0.22466   0.00000  Uiso   1.00
H125   H     0.10818   0.86651   0.58876   0.00000  Uiso   1.00
H126   H     0.23958   0.89157   0.23136   0.00000  Uiso   1.00
H127   H     0.02767   0.43949   0.10811   0.00000  Uiso   1.00
H128   H     0.08248   0.91320   0.87582   0.00000  Uiso   1.00
H129   H     0.35956   0.96606   0.12217   0.00000  Uiso   1.00
O130   O     0.04455   0.21881   0.11473   0.00000  Uiso   1.00
O131   O     0.11646   0.84030   0.12192   0.00000  Uiso   1.00
O132   O     0.47999   0.90965   0.13315   0.00000  Uiso   1.00
N133   N     0.12390   0.28174   0.26020   0.00000  Uiso   1.00
N134   N     0.17513   0.72461   0.97796   0.00000  Uiso   1.00
N135   N     0.43418   0.77405   0.27339   0.00000  Uiso   1.00
N136   N     0.06244   0.40730   0.16563   0.00000  Uiso   1.00
N137   N     0.11367   0.85017   0.88339   0.00000  Uiso   1.00
N138   N     0.37273   0.89961   0.17883   0.00000  Uiso   1.00
C139   C     0.75019   0.41761   0.01210   0.00000  Uiso   1.00
C140   C     0.79990   0.46979   0.91955   0.00000  Uiso   1.00
C141   C     0.80747   0.58359   0.89443   0.00000  Uiso   1.00
C142   C     0.85575   0.61441   0.80666   0.00000  Uiso   1.00
C143   C     0.92699   0.70762   0.67219   0.00000  Uiso   1.00
C144   C     0.78579   0.34774   0.11738   0.00000  Uiso   1.00
C145   C     0.78149   0.35892   0.25858   0.00000  Uiso   1.00
C146   C     0.81789   0.28698   0.33733   0.00000  Uiso   1.00
C147   C     0.86719   0.19066   0.50999   0.00000  Uiso   1.00
C148   C     0.71440   0.33413   0.92318   0.00000  Uiso   1.00
C149   C     0.65007   0.33385   0.90113   0.00000  Uiso   1.00
C150   C     0.62635   0.25043   0.81641   0.00000  Uiso   1.00
C151   C     0.56480   0.13297   0.68756   0.00000  Uiso   1.00
C152   C     0.82245   0.26995   0.90090   0.00000  Uiso   1.00
C153   C     0.83915   0.38958   0.85915   0.00000  Uiso   1.00
C154   C     0.88743   0.42022   0.77139   0.00000  Uiso   1.00
C155   C     0.89507   0.53406   0.74614   0.00000  Uiso   1.00
C156   C     0.82504   0.26754   0.05698   0.00000  Uiso   1.00
C157   C     0.86145   0.19555   0.13554   0.00000  Uiso   1.00
C158   C     0.85721   0.20663   0.27682   0.00000  Uiso   1.00
C159   C     0.75365   0.25392   0.86278   0.00000  Uiso   1.00
C160   C     0.73003   0.17048   0.77809   0.00000  Uiso   1.00
C161   C     0.66568   0.17008   0.75590   0.00000  Uiso   1.00
H162   H     0.71963   0.48005   0.05914   0.00000  Uiso   1.00
H163   H     0.77709   0.64564   0.94120   0.00000  Uiso   1.00
H164   H     0.75111   0.42099   0.30529   0.00000  Uiso   1.00
H165   H     0.61971   0.39592   0.94789   0.00000  Uiso   1.00
H166   H     0.85812   0.79385   0.78385   0.00000  Uiso   1.00
H167   H     0.80332   0.32015   0.55156   0.00000  Uiso   1.00
H168   H     0.52624   0.26729   0.79791   0.00000  Uiso   1.00
H169   H     0.85302   0.20750   0.85387   0.00000  Uiso   1.00
H170   H     0.91780   0.35814   0.72466   0.00000  Uiso   1.00
H171   H     0.89182   0.13349   0.08876   0.00000  Uiso   1.00
H172   H     0.76042   0.10843   0.73136   0.00000  Uiso   1.00
H173   H     0.97233   0.56051   0.60811   0.00000  Uiso   1.00
H174   H     0.91752   0.08680   0.37582   0.00000  Uiso   1.00
H175   H     0.64044   0.03394   0.62217   0.00000  Uiso   1.00
O176   O     0.95545   0.78119   0.61473   0.00000  Uiso   1.00
O177   O     0.88354   0.15970   0.62192   0.00000  Uiso   1.00
O178   O     0.52001   0.09035   0.63315   0.00000  Uiso   1.00
N179   N     0.87610   0.71826   0.76020   0.00000  Uiso   1.00
N180   N     0.82487   0.27539   0.47796   0.00000  Uiso   1.00
N181   N     0.56582   0.22595   0.77339   0.00000  Uiso   1.00
N182   N     0.93756   0.59270   0.66563   0.00000  Uiso   1.00
N183   N     0.88633   0.14983   0.38339   0.00000  Uiso   1.00
N184   N     0.62727   0.10039   0.67883   0.00000  Uiso   1.00
