data_job_04869
_audit_creation_date              2018-12-19
_audit_creation_method            'Materials Studio'
_symmetry_space_group_name_H-M    'P1'
_symmetry_Int_Tables_number       1
_symmetry_cell_setting            triclinic
loop_
_symmetry_equiv_pos_as_xyz
  x,y,z
_cell_length_a                    11.9801
_cell_length_b                    15.0469
_cell_length_c                    20.5387
_cell_angle_alpha                 90.0000
_cell_angle_beta                  142.3037
_cell_angle_gamma                 90.0000
loop_
_atom_site_label
_atom_site_type_symbol
_atom_site_fract_x
_atom_site_fract_y
_atom_site_fract_z
_atom_site_U_iso_or_equiv
_atom_site_adp_type
_atom_site_occupancy
C1     C     0.56927   0.74510   0.28211   0.00000  Uiso   1.00
C2     C     0.72897   0.71689   0.39872   0.00000  Uiso   1.00
C3     C     0.72632   0.71087   0.46492   0.00000  Uiso   1.00
C4     C     0.88645   0.68381   0.56907   0.00000  Uiso   1.00
C5     C     0.11056   0.64313   0.74460   0.00000  Uiso   1.00
C6     C     0.63765   0.82356   0.27350   0.00000  Uiso   1.00
C7     C     0.55820   0.90723   0.23439   0.00000  Uiso   1.00
C8     C     0.64144   0.96996   0.23311   0.00000  Uiso   1.00
C9     C     0.72370   0.09488   0.21415   0.00000  Uiso   1.00
C10    C     0.53931   0.66927   0.22020   0.00000  Uiso   1.00
C11    C     0.37716   0.62322   0.13626   0.00000  Uiso   1.00
C12    C     0.37759   0.55607   0.09009   0.00000  Uiso   1.00
C13    C     0.30716   0.44142   0.98839   0.00000  Uiso   1.00
C14    C     0.85836   0.70775   0.34936   0.00000  Uiso   1.00
C15    C     0.88599   0.69660   0.43525   0.00000  Uiso   1.00
C16    C     0.04616   0.66954   0.53933   0.00000  Uiso   1.00
C17    C     0.04375   0.66349   0.60566   0.00000  Uiso   1.00
C18    C     0.79467   0.80328   0.31002   0.00000  Uiso   1.00
C19    C     0.87804   0.86590   0.30880   0.00000  Uiso   1.00
C20    C     0.79875   0.94964   0.26971   0.00000  Uiso   1.00
C21    C     0.69633   0.64898   0.25673   0.00000  Uiso   1.00
C22    C     0.69701   0.58189   0.21068   0.00000  Uiso   1.00
C23    C     0.53489   0.53575   0.12669   0.00000  Uiso   1.00
H24    H     0.44703   0.76090   0.25367   0.00000  Uiso   1.00
H25    H     0.60478   0.72658   0.43662   0.00000  Uiso   1.00
H26    H     0.43668   0.92291   0.20612   0.00000  Uiso   1.00
H27    H     0.25568   0.63894   0.10801   0.00000  Uiso   1.00
H28    H     0.84895   0.67962   0.65558   0.00000  Uiso   1.00
H29    H     0.49446   0.09357   0.16951   0.00000  Uiso   1.00
H30    H     0.11277   0.49477   0.96264   0.00000  Uiso   1.00
H31    H     0.98061   0.69196   0.37780   0.00000  Uiso   1.00
H32    H     0.16765   0.65385   0.56757   0.00000  Uiso   1.00
H33    H     0.99954   0.85018   0.33707   0.00000  Uiso   1.00
H34    H     0.81854   0.56621   0.23897   0.00000  Uiso   1.00
H35    H     0.30580   0.62059   0.76187   0.00000  Uiso   1.00
H36    H     0.95130   0.03454   0.27579   0.00000  Uiso   1.00
H37    H     0.56962   0.43574   0.06893   0.00000  Uiso   1.00
O38    O     0.19081   0.62631   0.83133   0.00000  Uiso   1.00
O39    O     0.72570   0.16939   0.19361   0.00000  Uiso   1.00
O40    O     0.22494   0.38378   0.92220   0.00000  Uiso   1.00
N41    N     0.93079   0.67094   0.65454   0.00000  Uiso   1.00
N42    N     0.59938   0.05796   0.20012   0.00000  Uiso   1.00
N43    N     0.24251   0.49815   0.00669   0.00000  Uiso   1.00
N44    N     0.17662   0.63917   0.71174   0.00000  Uiso   1.00
N45    N     0.84520   0.02620   0.25731   0.00000  Uiso   1.00
N46    N     0.48834   0.46639   0.06388   0.00000  Uiso   1.00
C47    C     0.43073   0.24510   0.21789   0.00000  Uiso   1.00
C48    C     0.27103   0.21689   0.10128   0.00000  Uiso   1.00
C49    C     0.27368   0.21087   0.03508   0.00000  Uiso   1.00
C50    C     0.11355   0.18381   0.93093   0.00000  Uiso   1.00
C51    C     0.88944   0.14313   0.75540   0.00000  Uiso   1.00
C52    C     0.36235   0.32356   0.22650   0.00000  Uiso   1.00
C53    C     0.44180   0.40723   0.26561   0.00000  Uiso   1.00
C54    C     0.35856   0.46996   0.26689   0.00000  Uiso   1.00
C55    C     0.27630   0.59488   0.28585   0.00000  Uiso   1.00
C56    C     0.46069   0.16927   0.27980   0.00000  Uiso   1.00
C57    C     0.62284   0.12322   0.36374   0.00000  Uiso   1.00
C58    C     0.62241   0.05607   0.40991   0.00000  Uiso   1.00
C59    C     0.69284   0.94142   0.51161   0.00000  Uiso   1.00
C60    C     0.14164   0.20775   0.15064   0.00000  Uiso   1.00
C61    C     0.11401   0.19660   0.06475   0.00000  Uiso   1.00
C62    C     0.95384   0.16954   0.96067   0.00000  Uiso   1.00
C63    C     0.95625   0.16349   0.89434   0.00000  Uiso   1.00
C64    C     0.20533   0.30328   0.18998   0.00000  Uiso   1.00
C65    C     0.12196   0.36590   0.19120   0.00000  Uiso   1.00
C66    C     0.20125   0.44964   0.23029   0.00000  Uiso   1.00
C67    C     0.30367   0.14898   0.24327   0.00000  Uiso   1.00
C68    C     0.30299   0.08189   0.28932   0.00000  Uiso   1.00
C69    C     0.46511   0.03575   0.37331   0.00000  Uiso   1.00
H70    H     0.55297   0.26090   0.24633   0.00000  Uiso   1.00
H71    H     0.39522   0.22658   0.06338   0.00000  Uiso   1.00
H72    H     0.56332   0.42291   0.29388   0.00000  Uiso   1.00
H73    H     0.74432   0.13894   0.39199   0.00000  Uiso   1.00
H74    H     0.15105   0.17962   0.84442   0.00000  Uiso   1.00
H75    H     0.50554   0.59357   0.33049   0.00000  Uiso   1.00
H76    H     0.88723   0.99477   0.53736   0.00000  Uiso   1.00
H77    H     0.01939   0.19196   0.12220   0.00000  Uiso   1.00
H78    H     0.83235   0.15385   0.93243   0.00000  Uiso   1.00
H79    H     0.00046   0.35018   0.16293   0.00000  Uiso   1.00
H80    H     0.18146   0.06621   0.26103   0.00000  Uiso   1.00
H81    H     0.69420   0.12059   0.73813   0.00000  Uiso   1.00
H82    H     0.04870   0.53454   0.22421   0.00000  Uiso   1.00
H83    H     0.43038   0.93574   0.43107   0.00000  Uiso   1.00
O84    O     0.80919   0.12631   0.66867   0.00000  Uiso   1.00
O85    O     0.27430   0.66939   0.30639   0.00000  Uiso   1.00
O86    O     0.77506   0.88378   0.57780   0.00000  Uiso   1.00
N87    N     0.06921   0.17094   0.84546   0.00000  Uiso   1.00
N88    N     0.40062   0.55796   0.29988   0.00000  Uiso   1.00
N89    N     0.75749   0.99815   0.49331   0.00000  Uiso   1.00
N90    N     0.82338   0.13917   0.78826   0.00000  Uiso   1.00
N91    N     0.15480   0.52620   0.24269   0.00000  Uiso   1.00
N92    N     0.51166   0.96639   0.43612   0.00000  Uiso   1.00
C93    C     0.43073   0.25490   0.71789   0.00000  Uiso   1.00
C94    C     0.27103   0.28311   0.60128   0.00000  Uiso   1.00
C95    C     0.27368   0.28913   0.53508   0.00000  Uiso   1.00
C96    C     0.11355   0.31619   0.43093   0.00000  Uiso   1.00
C97    C     0.88944   0.35687   0.25540   0.00000  Uiso   1.00
C98    C     0.36235   0.17644   0.72650   0.00000  Uiso   1.00
C99    C     0.44180   0.09277   0.76561   0.00000  Uiso   1.00
C100   C     0.35856   0.03004   0.76689   0.00000  Uiso   1.00
C101   C     0.27630   0.90512   0.78585   0.00000  Uiso   1.00
C102   C     0.46069   0.33073   0.77980   0.00000  Uiso   1.00
C103   C     0.62284   0.37678   0.86374   0.00000  Uiso   1.00
C104   C     0.62241   0.44393   0.90991   0.00000  Uiso   1.00
C105   C     0.69284   0.55858   0.01161   0.00000  Uiso   1.00
C106   C     0.14164   0.29225   0.65064   0.00000  Uiso   1.00
C107   C     0.11401   0.30340   0.56475   0.00000  Uiso   1.00
C108   C     0.95384   0.33046   0.46067   0.00000  Uiso   1.00
C109   C     0.95625   0.33651   0.39434   0.00000  Uiso   1.00
C110   C     0.20533   0.19672   0.68998   0.00000  Uiso   1.00
C111   C     0.12196   0.13410   0.69120   0.00000  Uiso   1.00
C112   C     0.20125   0.05036   0.73029   0.00000  Uiso   1.00
C113   C     0.30367   0.35102   0.74327   0.00000  Uiso   1.00
C114   C     0.30299   0.41811   0.78932   0.00000  Uiso   1.00
C115   C     0.46511   0.46425   0.87331   0.00000  Uiso   1.00
H116   H     0.55297   0.23910   0.74633   0.00000  Uiso   1.00
H117   H     0.39522   0.27342   0.56338   0.00000  Uiso   1.00
H118   H     0.56332   0.07709   0.79388   0.00000  Uiso   1.00
H119   H     0.74432   0.36106   0.89199   0.00000  Uiso   1.00
H120   H     0.15105   0.32038   0.34442   0.00000  Uiso   1.00
H121   H     0.50554   0.90643   0.83049   0.00000  Uiso   1.00
H122   H     0.88723   0.50523   0.03736   0.00000  Uiso   1.00
H123   H     0.01939   0.30804   0.62220   0.00000  Uiso   1.00
H124   H     0.83235   0.34615   0.43243   0.00000  Uiso   1.00
H125   H     0.00046   0.14982   0.66293   0.00000  Uiso   1.00
H126   H     0.18146   0.43379   0.76103   0.00000  Uiso   1.00
H127   H     0.69420   0.37941   0.23813   0.00000  Uiso   1.00
H128   H     0.04870   0.96546   0.72421   0.00000  Uiso   1.00
H129   H     0.43038   0.56426   0.93107   0.00000  Uiso   1.00
O130   O     0.80919   0.37369   0.16867   0.00000  Uiso   1.00
O131   O     0.27430   0.83061   0.80639   0.00000  Uiso   1.00
O132   O     0.77506   0.61622   0.07780   0.00000  Uiso   1.00
N133   N     0.06921   0.32906   0.34546   0.00000  Uiso   1.00
N134   N     0.40062   0.94204   0.79988   0.00000  Uiso   1.00
N135   N     0.75749   0.50185   0.99331   0.00000  Uiso   1.00
N136   N     0.82338   0.36083   0.28826   0.00000  Uiso   1.00
N137   N     0.15480   0.97380   0.74269   0.00000  Uiso   1.00
N138   N     0.51166   0.53361   0.93612   0.00000  Uiso   1.00
C139   C     0.56927   0.75490   0.78211   0.00000  Uiso   1.00
C140   C     0.72897   0.78311   0.89872   0.00000  Uiso   1.00
C141   C     0.72632   0.78913   0.96492   0.00000  Uiso   1.00
C142   C     0.88645   0.81619   0.06907   0.00000  Uiso   1.00
C143   C     0.11056   0.85687   0.24460   0.00000  Uiso   1.00
C144   C     0.63765   0.67644   0.77350   0.00000  Uiso   1.00
C145   C     0.55820   0.59277   0.73439   0.00000  Uiso   1.00
C146   C     0.64144   0.53004   0.73311   0.00000  Uiso   1.00
C147   C     0.72370   0.40512   0.71415   0.00000  Uiso   1.00
C148   C     0.53931   0.83073   0.72020   0.00000  Uiso   1.00
C149   C     0.37716   0.87678   0.63626   0.00000  Uiso   1.00
C150   C     0.37759   0.94393   0.59009   0.00000  Uiso   1.00
C151   C     0.30716   0.05858   0.48839   0.00000  Uiso   1.00
C152   C     0.85836   0.79225   0.84936   0.00000  Uiso   1.00
C153   C     0.88599   0.80340   0.93525   0.00000  Uiso   1.00
C154   C     0.04616   0.83046   0.03933   0.00000  Uiso   1.00
C155   C     0.04375   0.83651   0.10566   0.00000  Uiso   1.00
C156   C     0.79467   0.69672   0.81002   0.00000  Uiso   1.00
C157   C     0.87804   0.63410   0.80880   0.00000  Uiso   1.00
C158   C     0.79875   0.55036   0.76971   0.00000  Uiso   1.00
C159   C     0.69633   0.85102   0.75673   0.00000  Uiso   1.00
C160   C     0.69701   0.91811   0.71068   0.00000  Uiso   1.00
C161   C     0.53489   0.96425   0.62669   0.00000  Uiso   1.00
H162   H     0.44703   0.73910   0.75367   0.00000  Uiso   1.00
H163   H     0.60478   0.77342   0.93662   0.00000  Uiso   1.00
H164   H     0.43668   0.57709   0.70612   0.00000  Uiso   1.00
H165   H     0.25568   0.86106   0.60801   0.00000  Uiso   1.00
H166   H     0.84895   0.82038   0.15558   0.00000  Uiso   1.00
H167   H     0.49446   0.40643   0.66951   0.00000  Uiso   1.00
H168   H     0.11277   0.00523   0.46264   0.00000  Uiso   1.00
H169   H     0.98061   0.80804   0.87780   0.00000  Uiso   1.00
H170   H     0.16765   0.84615   0.06757   0.00000  Uiso   1.00
H171   H     0.99954   0.64982   0.83707   0.00000  Uiso   1.00
H172   H     0.81854   0.93379   0.73897   0.00000  Uiso   1.00
H173   H     0.30580   0.87941   0.26187   0.00000  Uiso   1.00
H174   H     0.95130   0.46546   0.77579   0.00000  Uiso   1.00
H175   H     0.56962   0.06426   0.56893   0.00000  Uiso   1.00
O176   O     0.19081   0.87369   0.33133   0.00000  Uiso   1.00
O177   O     0.72570   0.33061   0.69361   0.00000  Uiso   1.00
O178   O     0.22494   0.11622   0.42220   0.00000  Uiso   1.00
N179   N     0.93079   0.82906   0.15454   0.00000  Uiso   1.00
N180   N     0.59938   0.44204   0.70012   0.00000  Uiso   1.00
N181   N     0.24251   0.00185   0.50669   0.00000  Uiso   1.00
N182   N     0.17662   0.86083   0.21174   0.00000  Uiso   1.00
N183   N     0.84520   0.47380   0.75731   0.00000  Uiso   1.00
N184   N     0.48834   0.03361   0.56388   0.00000  Uiso   1.00
