data_job_05898
_audit_creation_date              2018-12-19
_audit_creation_method            'Materials Studio'
_symmetry_space_group_name_H-M    'P1'
_symmetry_Int_Tables_number       1
_symmetry_cell_setting            triclinic
loop_
_symmetry_equiv_pos_as_xyz
  x,y,z
_cell_length_a                    24.4493
_cell_length_b                    24.4493
_cell_length_c                    12.5776
_cell_angle_alpha                 90.0000
_cell_angle_beta                  90.0000
_cell_angle_gamma                 90.0000
loop_
_atom_site_label
_atom_site_type_symbol
_atom_site_fract_x
_atom_site_fract_y
_atom_site_fract_z
_atom_site_U_iso_or_equiv
_atom_site_adp_type
_atom_site_occupancy
C1     C     0.08614   0.16127   0.88022   0.00000  Uiso   1.00
C2     C     0.11840   0.12689   0.80084   0.00000  Uiso   1.00
C3     C     0.09765   0.10359   0.70868   0.00000  Uiso   1.00
C4     C     0.13378   0.07359   0.64663   0.00000  Uiso   1.00
C5     C     0.17552   0.02116   0.51896   0.00000  Uiso   1.00
C6     C     0.09287   0.13318   0.98768   0.00000  Uiso   1.00
C7     C     0.05066   0.11517   0.05261   0.00000  Uiso   1.00
C8     C     0.06530   0.09047   0.14784   0.00000  Uiso   1.00
C9     C     0.06741   0.04785   0.31028   0.00000  Uiso   1.00
C10    C     0.11641   0.21561   0.88895   0.00000  Uiso   1.00
C11    C     0.09397   0.26692   0.87089   0.00000  Uiso   1.00
C12    C     0.12843   0.31163   0.88302   0.00000  Uiso   1.00
C13    C     0.16708   0.39699   0.89216   0.00000  Uiso   1.00
C14    C     0.18722   0.14943   0.93392   0.00000  Uiso   1.00
C15    C     0.17330   0.12046   0.83001   0.00000  Uiso   1.00
C16    C     0.20948   0.09049   0.76808   0.00000  Uiso   1.00
C17    C     0.18878   0.06715   0.67584   0.00000  Uiso   1.00
C18    C     0.14778   0.12675   0.01685   0.00000  Uiso   1.00
C19    C     0.16249   0.10207   0.11201   0.00000  Uiso   1.00
C20    C     0.12031   0.08403   0.17706   0.00000  Uiso   1.00
C21    C     0.17131   0.20918   0.91811   0.00000  Uiso   1.00
C22    C     0.20581   0.25382   0.93029   0.00000  Uiso   1.00
C23    C     0.18344   0.30518   0.91224   0.00000  Uiso   1.00
H24    H     0.04339   0.16627   0.85752   0.00000  Uiso   1.00
H25    H     0.05515   0.10857   0.68614   0.00000  Uiso   1.00
H26    H     0.00817   0.12016   0.03002   0.00000  Uiso   1.00
H27    H     0.05149   0.27188   0.84832   0.00000  Uiso   1.00
H28    H     0.09240   0.04174   0.50901   0.00000  Uiso   1.00
H29    H     0.99334   0.06620   0.23411   0.00000  Uiso   1.00
H30    H     0.08467   0.38613   0.85097   0.00000  Uiso   1.00
H31    H     0.22997   0.14442   0.95663   0.00000  Uiso   1.00
H32    H     0.25197   0.08552   0.79068   0.00000  Uiso   1.00
H33    H     0.20498   0.09711   0.13456   0.00000  Uiso   1.00
H34    H     0.24830   0.24883   0.95286   0.00000  Uiso   1.00
H35    H     0.25214   0.02303   0.59386   0.00000  Uiso   1.00
H36    H     0.15307   0.04749   0.31897   0.00000  Uiso   1.00
H37    H     0.24441   0.36742   0.93582   0.00000  Uiso   1.00
O38    O     0.18337   0.99402   0.44050   0.00000  Uiso   1.00
O39    O     0.05340   0.02611   0.39181   0.00000  Uiso   1.00
O40    O     0.17323   0.44586   0.88913   0.00000  Uiso   1.00
N41    N     0.12698   0.04543   0.55174   0.00000  Uiso   1.00
N42    N     0.03436   0.06829   0.22967   0.00000  Uiso   1.00
N43    N     0.11974   0.36740   0.87149   0.00000  Uiso   1.00
N44    N     0.21293   0.03536   0.59740   0.00000  Uiso   1.00
N45    N     0.12031   0.05822   0.27532   0.00000  Uiso   1.00
N46    N     0.20570   0.35733   0.91714   0.00000  Uiso   1.00
C47    C     0.91386   0.83873   0.88022   0.00000  Uiso   1.00
C48    C     0.88160   0.87311   0.80084   0.00000  Uiso   1.00
C49    C     0.90235   0.89641   0.70868   0.00000  Uiso   1.00
C50    C     0.86622   0.92641   0.64663   0.00000  Uiso   1.00
C51    C     0.82448   0.97884   0.51896   0.00000  Uiso   1.00
C52    C     0.90713   0.86682   0.98768   0.00000  Uiso   1.00
C53    C     0.94934   0.88483   0.05261   0.00000  Uiso   1.00
C54    C     0.93470   0.90953   0.14784   0.00000  Uiso   1.00
C55    C     0.93259   0.95215   0.31028   0.00000  Uiso   1.00
C56    C     0.88359   0.78439   0.88895   0.00000  Uiso   1.00
C57    C     0.90603   0.73308   0.87089   0.00000  Uiso   1.00
C58    C     0.87157   0.68837   0.88302   0.00000  Uiso   1.00
C59    C     0.83292   0.60301   0.89216   0.00000  Uiso   1.00
C60    C     0.81278   0.85057   0.93392   0.00000  Uiso   1.00
C61    C     0.82670   0.87954   0.83001   0.00000  Uiso   1.00
C62    C     0.79052   0.90951   0.76808   0.00000  Uiso   1.00
C63    C     0.81122   0.93285   0.67584   0.00000  Uiso   1.00
C64    C     0.85222   0.87325   0.01685   0.00000  Uiso   1.00
C65    C     0.83751   0.89793   0.11201   0.00000  Uiso   1.00
C66    C     0.87969   0.91597   0.17706   0.00000  Uiso   1.00
C67    C     0.82869   0.79082   0.91811   0.00000  Uiso   1.00
C68    C     0.79419   0.74618   0.93029   0.00000  Uiso   1.00
C69    C     0.81656   0.69482   0.91224   0.00000  Uiso   1.00
H70    H     0.95661   0.83373   0.85752   0.00000  Uiso   1.00
H71    H     0.94485   0.89143   0.68614   0.00000  Uiso   1.00
H72    H     0.99183   0.87984   0.03002   0.00000  Uiso   1.00
H73    H     0.94851   0.72812   0.84832   0.00000  Uiso   1.00
H74    H     0.90760   0.95826   0.50901   0.00000  Uiso   1.00
H75    H     0.00666   0.93380   0.23411   0.00000  Uiso   1.00
H76    H     0.91533   0.61387   0.85097   0.00000  Uiso   1.00
H77    H     0.77003   0.85558   0.95663   0.00000  Uiso   1.00
H78    H     0.74803   0.91448   0.79068   0.00000  Uiso   1.00
H79    H     0.79502   0.90289   0.13456   0.00000  Uiso   1.00
H80    H     0.75170   0.75117   0.95286   0.00000  Uiso   1.00
H81    H     0.74786   0.97697   0.59386   0.00000  Uiso   1.00
H82    H     0.84693   0.95251   0.31897   0.00000  Uiso   1.00
H83    H     0.75559   0.63258   0.93582   0.00000  Uiso   1.00
O84    O     0.81663   0.00598   0.44050   0.00000  Uiso   1.00
O85    O     0.94660   0.97389   0.39181   0.00000  Uiso   1.00
O86    O     0.82677   0.55414   0.88913   0.00000  Uiso   1.00
N87    N     0.87302   0.95457   0.55174   0.00000  Uiso   1.00
N88    N     0.96564   0.93171   0.22967   0.00000  Uiso   1.00
N89    N     0.88026   0.63260   0.87149   0.00000  Uiso   1.00
N90    N     0.78707   0.96464   0.59740   0.00000  Uiso   1.00
N91    N     0.87969   0.94178   0.27532   0.00000  Uiso   1.00
N92    N     0.79430   0.64267   0.91714   0.00000  Uiso   1.00
C93    C     0.33873   0.58614   0.38022   0.00000  Uiso   1.00
C94    C     0.37311   0.61840   0.30084   0.00000  Uiso   1.00
C95    C     0.39641   0.59765   0.20868   0.00000  Uiso   1.00
C96    C     0.42641   0.63378   0.14663   0.00000  Uiso   1.00
C97    C     0.47884   0.67552   0.01896   0.00000  Uiso   1.00
C98    C     0.36682   0.59287   0.48768   0.00000  Uiso   1.00
C99    C     0.38483   0.55066   0.55261   0.00000  Uiso   1.00
C100   C     0.40953   0.56530   0.64784   0.00000  Uiso   1.00
C101   C     0.45215   0.56741   0.81028   0.00000  Uiso   1.00
C102   C     0.28439   0.61641   0.38895   0.00000  Uiso   1.00
C103   C     0.23308   0.59397   0.37089   0.00000  Uiso   1.00
C104   C     0.18837   0.62843   0.38302   0.00000  Uiso   1.00
C105   C     0.10301   0.66708   0.39216   0.00000  Uiso   1.00
C106   C     0.35057   0.68722   0.43392   0.00000  Uiso   1.00
C107   C     0.37954   0.67330   0.33001   0.00000  Uiso   1.00
C108   C     0.40951   0.70948   0.26808   0.00000  Uiso   1.00
C109   C     0.43285   0.68878   0.17584   0.00000  Uiso   1.00
C110   C     0.37325   0.64778   0.51685   0.00000  Uiso   1.00
C111   C     0.39793   0.66249   0.61201   0.00000  Uiso   1.00
C112   C     0.41597   0.62031   0.67706   0.00000  Uiso   1.00
C113   C     0.29082   0.67131   0.41811   0.00000  Uiso   1.00
C114   C     0.24618   0.70581   0.43029   0.00000  Uiso   1.00
C115   C     0.19482   0.68344   0.41224   0.00000  Uiso   1.00
H116   H     0.33373   0.54339   0.35752   0.00000  Uiso   1.00
H117   H     0.39143   0.55515   0.18614   0.00000  Uiso   1.00
H118   H     0.37984   0.50817   0.53002   0.00000  Uiso   1.00
H119   H     0.22812   0.55149   0.34832   0.00000  Uiso   1.00
H120   H     0.45826   0.59240   0.00901   0.00000  Uiso   1.00
H121   H     0.43380   0.49334   0.73411   0.00000  Uiso   1.00
H122   H     0.11387   0.58467   0.35097   0.00000  Uiso   1.00
H123   H     0.35558   0.72997   0.45663   0.00000  Uiso   1.00
H124   H     0.41448   0.75197   0.29068   0.00000  Uiso   1.00
H125   H     0.40289   0.70498   0.63456   0.00000  Uiso   1.00
H126   H     0.25117   0.74830   0.45286   0.00000  Uiso   1.00
H127   H     0.47697   0.75214   0.09386   0.00000  Uiso   1.00
H128   H     0.45251   0.65307   0.81897   0.00000  Uiso   1.00
H129   H     0.13258   0.74441   0.43582   0.00000  Uiso   1.00
O130   O     0.50598   0.68337   0.94050   0.00000  Uiso   1.00
O131   O     0.47389   0.55340   0.89181   0.00000  Uiso   1.00
O132   O     0.05414   0.67323   0.38913   0.00000  Uiso   1.00
N133   N     0.45457   0.62698   0.05174   0.00000  Uiso   1.00
N134   N     0.43171   0.53436   0.72967   0.00000  Uiso   1.00
N135   N     0.13260   0.61974   0.37149   0.00000  Uiso   1.00
N136   N     0.46464   0.71293   0.09740   0.00000  Uiso   1.00
N137   N     0.44178   0.62031   0.77532   0.00000  Uiso   1.00
N138   N     0.14267   0.70570   0.41714   0.00000  Uiso   1.00
C139   C     0.66127   0.41386   0.38022   0.00000  Uiso   1.00
C140   C     0.62689   0.38160   0.30084   0.00000  Uiso   1.00
C141   C     0.60359   0.40235   0.20868   0.00000  Uiso   1.00
C142   C     0.57359   0.36622   0.14663   0.00000  Uiso   1.00
C143   C     0.52116   0.32448   0.01896   0.00000  Uiso   1.00
C144   C     0.63318   0.40713   0.48768   0.00000  Uiso   1.00
C145   C     0.61517   0.44934   0.55261   0.00000  Uiso   1.00
C146   C     0.59047   0.43470   0.64784   0.00000  Uiso   1.00
C147   C     0.54785   0.43259   0.81028   0.00000  Uiso   1.00
C148   C     0.71561   0.38359   0.38895   0.00000  Uiso   1.00
C149   C     0.76692   0.40603   0.37089   0.00000  Uiso   1.00
C150   C     0.81163   0.37157   0.38302   0.00000  Uiso   1.00
C151   C     0.89699   0.33292   0.39216   0.00000  Uiso   1.00
C152   C     0.64943   0.31278   0.43392   0.00000  Uiso   1.00
C153   C     0.62046   0.32670   0.33001   0.00000  Uiso   1.00
C154   C     0.59049   0.29052   0.26808   0.00000  Uiso   1.00
C155   C     0.56715   0.31122   0.17584   0.00000  Uiso   1.00
C156   C     0.62675   0.35222   0.51685   0.00000  Uiso   1.00
C157   C     0.60207   0.33751   0.61201   0.00000  Uiso   1.00
C158   C     0.58403   0.37969   0.67706   0.00000  Uiso   1.00
C159   C     0.70918   0.32869   0.41811   0.00000  Uiso   1.00
C160   C     0.75382   0.29419   0.43029   0.00000  Uiso   1.00
C161   C     0.80518   0.31656   0.41224   0.00000  Uiso   1.00
H162   H     0.66627   0.45661   0.35752   0.00000  Uiso   1.00
H163   H     0.60857   0.44485   0.18614   0.00000  Uiso   1.00
H164   H     0.62016   0.49183   0.53002   0.00000  Uiso   1.00
H165   H     0.77188   0.44851   0.34832   0.00000  Uiso   1.00
H166   H     0.54174   0.40760   0.00901   0.00000  Uiso   1.00
H167   H     0.56620   0.50666   0.73411   0.00000  Uiso   1.00
H168   H     0.88613   0.41533   0.35097   0.00000  Uiso   1.00
H169   H     0.64442   0.27003   0.45663   0.00000  Uiso   1.00
H170   H     0.58552   0.24803   0.29068   0.00000  Uiso   1.00
H171   H     0.59711   0.29502   0.63456   0.00000  Uiso   1.00
H172   H     0.74883   0.25170   0.45286   0.00000  Uiso   1.00
H173   H     0.52303   0.24786   0.09386   0.00000  Uiso   1.00
H174   H     0.54749   0.34693   0.81897   0.00000  Uiso   1.00
H175   H     0.86742   0.25559   0.43582   0.00000  Uiso   1.00
O176   O     0.49402   0.31663   0.94050   0.00000  Uiso   1.00
O177   O     0.52611   0.44660   0.89181   0.00000  Uiso   1.00
O178   O     0.94586   0.32677   0.38913   0.00000  Uiso   1.00
N179   N     0.54543   0.37302   0.05174   0.00000  Uiso   1.00
N180   N     0.56829   0.46564   0.72967   0.00000  Uiso   1.00
N181   N     0.86740   0.38026   0.37149   0.00000  Uiso   1.00
N182   N     0.53536   0.28707   0.09740   0.00000  Uiso   1.00
N183   N     0.55822   0.37969   0.77532   0.00000  Uiso   1.00
N184   N     0.85733   0.29430   0.41714   0.00000  Uiso   1.00
C185   C     0.41386   0.33873   0.61978   0.00000  Uiso   1.00
C186   C     0.38160   0.37311   0.69916   0.00000  Uiso   1.00
C187   C     0.40235   0.39641   0.79132   0.00000  Uiso   1.00
C188   C     0.36622   0.42641   0.85337   0.00000  Uiso   1.00
C189   C     0.32448   0.47884   0.98104   0.00000  Uiso   1.00
C190   C     0.40713   0.36682   0.51232   0.00000  Uiso   1.00
C191   C     0.44934   0.38483   0.44739   0.00000  Uiso   1.00
C192   C     0.43470   0.40953   0.35216   0.00000  Uiso   1.00
C193   C     0.43259   0.45215   0.18972   0.00000  Uiso   1.00
C194   C     0.38359   0.28439   0.61105   0.00000  Uiso   1.00
C195   C     0.40603   0.23308   0.62911   0.00000  Uiso   1.00
C196   C     0.37157   0.18837   0.61698   0.00000  Uiso   1.00
C197   C     0.33292   0.10301   0.60784   0.00000  Uiso   1.00
C198   C     0.31278   0.35057   0.56608   0.00000  Uiso   1.00
C199   C     0.32670   0.37954   0.66999   0.00000  Uiso   1.00
C200   C     0.29052   0.40951   0.73192   0.00000  Uiso   1.00
C201   C     0.31122   0.43285   0.82416   0.00000  Uiso   1.00
C202   C     0.35222   0.37325   0.48315   0.00000  Uiso   1.00
C203   C     0.33751   0.39793   0.38799   0.00000  Uiso   1.00
C204   C     0.37969   0.41597   0.32294   0.00000  Uiso   1.00
C205   C     0.32869   0.29082   0.58189   0.00000  Uiso   1.00
C206   C     0.29419   0.24618   0.56971   0.00000  Uiso   1.00
C207   C     0.31656   0.19482   0.58776   0.00000  Uiso   1.00
H208   H     0.45661   0.33373   0.64248   0.00000  Uiso   1.00
H209   H     0.44485   0.39143   0.81386   0.00000  Uiso   1.00
H210   H     0.49183   0.37984   0.46998   0.00000  Uiso   1.00
H211   H     0.44851   0.22812   0.65168   0.00000  Uiso   1.00
H212   H     0.40760   0.45826   0.99099   0.00000  Uiso   1.00
H213   H     0.50666   0.43380   0.26589   0.00000  Uiso   1.00
H214   H     0.41533   0.11387   0.64903   0.00000  Uiso   1.00
H215   H     0.27003   0.35558   0.54337   0.00000  Uiso   1.00
H216   H     0.24803   0.41448   0.70932   0.00000  Uiso   1.00
H217   H     0.29502   0.40289   0.36544   0.00000  Uiso   1.00
H218   H     0.25170   0.25117   0.54714   0.00000  Uiso   1.00
H219   H     0.24786   0.47697   0.90614   0.00000  Uiso   1.00
H220   H     0.34693   0.45251   0.18103   0.00000  Uiso   1.00
H221   H     0.25559   0.13258   0.56418   0.00000  Uiso   1.00
O222   O     0.31663   0.50598   0.05950   0.00000  Uiso   1.00
O223   O     0.44660   0.47389   0.10819   0.00000  Uiso   1.00
O224   O     0.32677   0.05414   0.61087   0.00000  Uiso   1.00
N225   N     0.37302   0.45457   0.94826   0.00000  Uiso   1.00
N226   N     0.46564   0.43171   0.27033   0.00000  Uiso   1.00
N227   N     0.38026   0.13260   0.62851   0.00000  Uiso   1.00
N228   N     0.28707   0.46464   0.90260   0.00000  Uiso   1.00
N229   N     0.37969   0.44178   0.22468   0.00000  Uiso   1.00
N230   N     0.29430   0.14267   0.58286   0.00000  Uiso   1.00
C231   C     0.58614   0.66127   0.61978   0.00000  Uiso   1.00
C232   C     0.61840   0.62689   0.69916   0.00000  Uiso   1.00
C233   C     0.59765   0.60359   0.79132   0.00000  Uiso   1.00
C234   C     0.63378   0.57359   0.85337   0.00000  Uiso   1.00
C235   C     0.67552   0.52116   0.98104   0.00000  Uiso   1.00
C236   C     0.59287   0.63318   0.51232   0.00000  Uiso   1.00
C237   C     0.55066   0.61517   0.44739   0.00000  Uiso   1.00
C238   C     0.56530   0.59047   0.35216   0.00000  Uiso   1.00
C239   C     0.56741   0.54785   0.18972   0.00000  Uiso   1.00
C240   C     0.61641   0.71561   0.61105   0.00000  Uiso   1.00
C241   C     0.59397   0.76692   0.62911   0.00000  Uiso   1.00
C242   C     0.62843   0.81163   0.61698   0.00000  Uiso   1.00
C243   C     0.66708   0.89699   0.60784   0.00000  Uiso   1.00
C244   C     0.68722   0.64943   0.56608   0.00000  Uiso   1.00
C245   C     0.67330   0.62046   0.66999   0.00000  Uiso   1.00
C246   C     0.70948   0.59049   0.73192   0.00000  Uiso   1.00
C247   C     0.68878   0.56715   0.82416   0.00000  Uiso   1.00
C248   C     0.64778   0.62675   0.48315   0.00000  Uiso   1.00
C249   C     0.66249   0.60207   0.38799   0.00000  Uiso   1.00
C250   C     0.62031   0.58403   0.32294   0.00000  Uiso   1.00
C251   C     0.67131   0.70918   0.58189   0.00000  Uiso   1.00
C252   C     0.70581   0.75382   0.56971   0.00000  Uiso   1.00
C253   C     0.68344   0.80518   0.58776   0.00000  Uiso   1.00
H254   H     0.54339   0.66627   0.64248   0.00000  Uiso   1.00
H255   H     0.55515   0.60857   0.81386   0.00000  Uiso   1.00
H256   H     0.50817   0.62016   0.46998   0.00000  Uiso   1.00
H257   H     0.55149   0.77188   0.65168   0.00000  Uiso   1.00
H258   H     0.59240   0.54174   0.99099   0.00000  Uiso   1.00
H259   H     0.49334   0.56620   0.26589   0.00000  Uiso   1.00
H260   H     0.58467   0.88613   0.64903   0.00000  Uiso   1.00
H261   H     0.72997   0.64442   0.54337   0.00000  Uiso   1.00
H262   H     0.75197   0.58552   0.70932   0.00000  Uiso   1.00
H263   H     0.70498   0.59711   0.36544   0.00000  Uiso   1.00
H264   H     0.74830   0.74883   0.54714   0.00000  Uiso   1.00
H265   H     0.75214   0.52303   0.90614   0.00000  Uiso   1.00
H266   H     0.65307   0.54749   0.18103   0.00000  Uiso   1.00
H267   H     0.74441   0.86742   0.56418   0.00000  Uiso   1.00
O268   O     0.68337   0.49402   0.05950   0.00000  Uiso   1.00
O269   O     0.55340   0.52611   0.10819   0.00000  Uiso   1.00
O270   O     0.67323   0.94586   0.61087   0.00000  Uiso   1.00
N271   N     0.62698   0.54543   0.94826   0.00000  Uiso   1.00
N272   N     0.53436   0.56829   0.27033   0.00000  Uiso   1.00
N273   N     0.61974   0.86740   0.62851   0.00000  Uiso   1.00
N274   N     0.71293   0.53536   0.90260   0.00000  Uiso   1.00
N275   N     0.62031   0.55822   0.22468   0.00000  Uiso   1.00
N276   N     0.70570   0.85733   0.58286   0.00000  Uiso   1.00
C277   C     0.16127   0.91386   0.11978   0.00000  Uiso   1.00
C278   C     0.12689   0.88160   0.19916   0.00000  Uiso   1.00
C279   C     0.10359   0.90235   0.29132   0.00000  Uiso   1.00
C280   C     0.07359   0.86622   0.35337   0.00000  Uiso   1.00
C281   C     0.02116   0.82448   0.48104   0.00000  Uiso   1.00
C282   C     0.13318   0.90713   0.01232   0.00000  Uiso   1.00
C283   C     0.11517   0.94934   0.94739   0.00000  Uiso   1.00
C284   C     0.09047   0.93470   0.85216   0.00000  Uiso   1.00
C285   C     0.04785   0.93259   0.68972   0.00000  Uiso   1.00
C286   C     0.21561   0.88359   0.11105   0.00000  Uiso   1.00
C287   C     0.26692   0.90603   0.12911   0.00000  Uiso   1.00
C288   C     0.31163   0.87157   0.11698   0.00000  Uiso   1.00
C289   C     0.39699   0.83292   0.10784   0.00000  Uiso   1.00
C290   C     0.14943   0.81278   0.06608   0.00000  Uiso   1.00
C291   C     0.12046   0.82670   0.16999   0.00000  Uiso   1.00
C292   C     0.09049   0.79052   0.23192   0.00000  Uiso   1.00
C293   C     0.06715   0.81122   0.32416   0.00000  Uiso   1.00
C294   C     0.12675   0.85222   0.98315   0.00000  Uiso   1.00
C295   C     0.10207   0.83751   0.88799   0.00000  Uiso   1.00
C296   C     0.08403   0.87969   0.82294   0.00000  Uiso   1.00
C297   C     0.20918   0.82869   0.08189   0.00000  Uiso   1.00
C298   C     0.25382   0.79419   0.06971   0.00000  Uiso   1.00
C299   C     0.30518   0.81656   0.08776   0.00000  Uiso   1.00
H300   H     0.16627   0.95661   0.14248   0.00000  Uiso   1.00
H301   H     0.10857   0.94485   0.31386   0.00000  Uiso   1.00
H302   H     0.12016   0.99183   0.96998   0.00000  Uiso   1.00
H303   H     0.27188   0.94851   0.15168   0.00000  Uiso   1.00
H304   H     0.04174   0.90760   0.49099   0.00000  Uiso   1.00
H305   H     0.06620   0.00666   0.76589   0.00000  Uiso   1.00
H306   H     0.38613   0.91533   0.14903   0.00000  Uiso   1.00
H307   H     0.14442   0.77003   0.04337   0.00000  Uiso   1.00
H308   H     0.08552   0.74803   0.20932   0.00000  Uiso   1.00
H309   H     0.09711   0.79502   0.86544   0.00000  Uiso   1.00
H310   H     0.24883   0.75170   0.04714   0.00000  Uiso   1.00
H311   H     0.02303   0.74786   0.40614   0.00000  Uiso   1.00
H312   H     0.04749   0.84693   0.68103   0.00000  Uiso   1.00
H313   H     0.36742   0.75559   0.06418   0.00000  Uiso   1.00
O314   O     0.99402   0.81663   0.55950   0.00000  Uiso   1.00
O315   O     0.02611   0.94660   0.60819   0.00000  Uiso   1.00
O316   O     0.44586   0.82677   0.11087   0.00000  Uiso   1.00
N317   N     0.04543   0.87302   0.44826   0.00000  Uiso   1.00
N318   N     0.06829   0.96564   0.77033   0.00000  Uiso   1.00
N319   N     0.36740   0.88026   0.12851   0.00000  Uiso   1.00
N320   N     0.03536   0.78707   0.40260   0.00000  Uiso   1.00
N321   N     0.05822   0.87969   0.72468   0.00000  Uiso   1.00
N322   N     0.35733   0.79430   0.08286   0.00000  Uiso   1.00
C323   C     0.83873   0.08614   0.11978   0.00000  Uiso   1.00
C324   C     0.87311   0.11840   0.19916   0.00000  Uiso   1.00
C325   C     0.89641   0.09765   0.29132   0.00000  Uiso   1.00
C326   C     0.92641   0.13378   0.35337   0.00000  Uiso   1.00
C327   C     0.97884   0.17552   0.48104   0.00000  Uiso   1.00
C328   C     0.86682   0.09287   0.01232   0.00000  Uiso   1.00
C329   C     0.88483   0.05066   0.94739   0.00000  Uiso   1.00
C330   C     0.90953   0.06530   0.85216   0.00000  Uiso   1.00
C331   C     0.95215   0.06741   0.68972   0.00000  Uiso   1.00
C332   C     0.78439   0.11641   0.11105   0.00000  Uiso   1.00
C333   C     0.73308   0.09397   0.12911   0.00000  Uiso   1.00
C334   C     0.68837   0.12843   0.11698   0.00000  Uiso   1.00
C335   C     0.60301   0.16708   0.10784   0.00000  Uiso   1.00
C336   C     0.85057   0.18722   0.06608   0.00000  Uiso   1.00
C337   C     0.87954   0.17330   0.16999   0.00000  Uiso   1.00
C338   C     0.90951   0.20948   0.23192   0.00000  Uiso   1.00
C339   C     0.93285   0.18878   0.32416   0.00000  Uiso   1.00
C340   C     0.87325   0.14778   0.98315   0.00000  Uiso   1.00
C341   C     0.89793   0.16249   0.88799   0.00000  Uiso   1.00
C342   C     0.91597   0.12031   0.82294   0.00000  Uiso   1.00
C343   C     0.79082   0.17131   0.08189   0.00000  Uiso   1.00
C344   C     0.74618   0.20581   0.06971   0.00000  Uiso   1.00
C345   C     0.69482   0.18344   0.08776   0.00000  Uiso   1.00
H346   H     0.83373   0.04339   0.14248   0.00000  Uiso   1.00
H347   H     0.89143   0.05515   0.31386   0.00000  Uiso   1.00
H348   H     0.87984   0.00817   0.96998   0.00000  Uiso   1.00
H349   H     0.72812   0.05149   0.15168   0.00000  Uiso   1.00
H350   H     0.95826   0.09240   0.49099   0.00000  Uiso   1.00
H351   H     0.93380   0.99334   0.76589   0.00000  Uiso   1.00
H352   H     0.61387   0.08467   0.14903   0.00000  Uiso   1.00
H353   H     0.85558   0.22997   0.04337   0.00000  Uiso   1.00
H354   H     0.91448   0.25197   0.20932   0.00000  Uiso   1.00
H355   H     0.90289   0.20498   0.86544   0.00000  Uiso   1.00
H356   H     0.75117   0.24830   0.04714   0.00000  Uiso   1.00
H357   H     0.97697   0.25214   0.40614   0.00000  Uiso   1.00
H358   H     0.95251   0.15307   0.68103   0.00000  Uiso   1.00
H359   H     0.63258   0.24441   0.06418   0.00000  Uiso   1.00
O360   O     0.00598   0.18337   0.55950   0.00000  Uiso   1.00
O361   O     0.97389   0.05340   0.60819   0.00000  Uiso   1.00
O362   O     0.55414   0.17323   0.11087   0.00000  Uiso   1.00
N363   N     0.95457   0.12698   0.44826   0.00000  Uiso   1.00
N364   N     0.93171   0.03436   0.77033   0.00000  Uiso   1.00
N365   N     0.63260   0.11974   0.12851   0.00000  Uiso   1.00
N366   N     0.96464   0.21293   0.40260   0.00000  Uiso   1.00
N367   N     0.94178   0.12031   0.72468   0.00000  Uiso   1.00
N368   N     0.64267   0.20570   0.08286   0.00000  Uiso   1.00
