data_job_01530
_audit_creation_date              2018-12-19
_audit_creation_method            'Materials Studio'
_symmetry_space_group_name_H-M    'P1'
_symmetry_Int_Tables_number       1
_symmetry_cell_setting            triclinic
loop_
_symmetry_equiv_pos_as_xyz
  x,y,z
_cell_length_a                    9.8079
_cell_length_b                    14.1432
_cell_length_c                    16.5762
_cell_angle_alpha                 90.0000
_cell_angle_beta                  90.0000
_cell_angle_gamma                 90.0000
loop_
_atom_site_label
_atom_site_type_symbol
_atom_site_fract_x
_atom_site_fract_y
_atom_site_fract_z
_atom_site_U_iso_or_equiv
_atom_site_adp_type
_atom_site_occupancy
C1     C     0.79991   0.61030   0.38670   0.00000  Uiso   1.00
C2     C     0.64469   0.61531   0.38363   0.00000  Uiso   1.00
C3     C     0.56571   0.69182   0.40737   0.00000  Uiso   1.00
C4     C     0.42536   0.68248   0.39987   0.00000  Uiso   1.00
C5     C     0.19332   0.70286   0.39973   0.00000  Uiso   1.00
C6     C     0.83424   0.52349   0.43734   0.00000  Uiso   1.00
C7     C     0.91465   0.52280   0.50623   0.00000  Uiso   1.00
C8     C     0.93389   0.43615   0.54392   0.00000  Uiso   1.00
C9     C     0.99621   0.31396   0.62713   0.00000  Uiso   1.00
C10    C     0.84625   0.58750   0.30107   0.00000  Uiso   1.00
C11    C     0.93680   0.64061   0.25540   0.00000  Uiso   1.00
C12    C     0.96617   0.60784   0.17838   0.00000  Uiso   1.00
C13    C     0.04715   0.58502   0.05002   0.00000  Uiso   1.00
C14    C     0.69111   0.45766   0.33115   0.00000  Uiso   1.00
C15    C     0.58559   0.53240   0.35346   0.00000  Uiso   1.00
C16    C     0.44533   0.52294   0.34591   0.00000  Uiso   1.00
C17    C     0.36616   0.59942   0.36963   0.00000  Uiso   1.00
C18    C     0.77515   0.44058   0.40716   0.00000  Uiso   1.00
C19    C     0.79428   0.35391   0.44476   0.00000  Uiso   1.00
C20    C     0.87469   0.35309   0.51369   0.00000  Uiso   1.00
C21    C     0.78716   0.50458   0.27090   0.00000  Uiso   1.00
C22    C     0.81641   0.47172   0.19393   0.00000  Uiso   1.00
C23    C     0.90697   0.52477   0.14815   0.00000  Uiso   1.00
H24    H     0.84592   0.67485   0.41020   0.00000  Uiso   1.00
H25    H     0.61148   0.75597   0.43073   0.00000  Uiso   1.00
H26    H     0.96038   0.58697   0.52956   0.00000  Uiso   1.00
H27    H     0.98251   0.70476   0.27877   0.00000  Uiso   1.00
H28    H     0.32549   0.80934   0.44021   0.00000  Uiso   1.00
H29    H     0.06120   0.45298   0.64859   0.00000  Uiso   1.00
H30    H     0.10787   0.70137   0.11975   0.00000  Uiso   1.00
H31    H     0.64511   0.39310   0.30765   0.00000  Uiso   1.00
H32    H     0.39963   0.45877   0.32256   0.00000  Uiso   1.00
H33    H     0.74853   0.28977   0.42139   0.00000  Uiso   1.00
H34    H     0.77066   0.40756   0.17060   0.00000  Uiso   1.00
H35    H     0.15354   0.56811   0.35242   0.00000  Uiso   1.00
H36    H     0.88926   0.21175   0.56080   0.00000  Uiso   1.00
H37    H     0.93593   0.46014   0.03196   0.00000  Uiso   1.00
O38    O     0.08166   0.73699   0.40800   0.00000  Uiso   1.00
O39    O     0.04691   0.26947   0.68137   0.00000  Uiso   1.00
O40    O     0.10813   0.59535   0.98754   0.00000  Uiso   1.00
N41    N     0.31871   0.74356   0.41749   0.00000  Uiso   1.00
N42    N     0.00654   0.41039   0.61232   0.00000  Uiso   1.00
N43    N     0.05020   0.64260   0.11791   0.00000  Uiso   1.00
N44    N     0.22619   0.61376   0.37025   0.00000  Uiso   1.00
N45    N     0.91402   0.28059   0.56508   0.00000  Uiso   1.00
N46    N     0.95768   0.51280   0.07066   0.00000  Uiso   1.00
C47    C     0.70009   0.38970   0.88670   0.00000  Uiso   1.00
C48    C     0.85531   0.38469   0.88363   0.00000  Uiso   1.00
C49    C     0.93429   0.30818   0.90737   0.00000  Uiso   1.00
C50    C     0.07464   0.31752   0.89987   0.00000  Uiso   1.00
C51    C     0.30668   0.29714   0.89973   0.00000  Uiso   1.00
C52    C     0.66576   0.47651   0.93734   0.00000  Uiso   1.00
C53    C     0.58535   0.47720   0.00623   0.00000  Uiso   1.00
C54    C     0.56611   0.56385   0.04392   0.00000  Uiso   1.00
C55    C     0.50379   0.68604   0.12713   0.00000  Uiso   1.00
C56    C     0.65375   0.41250   0.80107   0.00000  Uiso   1.00
C57    C     0.56320   0.35939   0.75540   0.00000  Uiso   1.00
C58    C     0.53383   0.39216   0.67838   0.00000  Uiso   1.00
C59    C     0.45285   0.41498   0.55002   0.00000  Uiso   1.00
C60    C     0.80889   0.54234   0.83115   0.00000  Uiso   1.00
C61    C     0.91441   0.46760   0.85346   0.00000  Uiso   1.00
C62    C     0.05467   0.47706   0.84591   0.00000  Uiso   1.00
C63    C     0.13384   0.40058   0.86963   0.00000  Uiso   1.00
C64    C     0.72485   0.55942   0.90716   0.00000  Uiso   1.00
C65    C     0.70572   0.64609   0.94476   0.00000  Uiso   1.00
C66    C     0.62531   0.64691   0.01369   0.00000  Uiso   1.00
C67    C     0.71284   0.49542   0.77090   0.00000  Uiso   1.00
C68    C     0.68359   0.52828   0.69393   0.00000  Uiso   1.00
C69    C     0.59303   0.47523   0.64815   0.00000  Uiso   1.00
H70    H     0.65408   0.32515   0.91020   0.00000  Uiso   1.00
H71    H     0.88852   0.24403   0.93073   0.00000  Uiso   1.00
H72    H     0.53962   0.41303   0.02956   0.00000  Uiso   1.00
H73    H     0.51749   0.29524   0.77877   0.00000  Uiso   1.00
H74    H     0.17451   0.19066   0.94021   0.00000  Uiso   1.00
H75    H     0.43880   0.54702   0.14859   0.00000  Uiso   1.00
H76    H     0.39213   0.29863   0.61975   0.00000  Uiso   1.00
H77    H     0.85489   0.60690   0.80765   0.00000  Uiso   1.00
H78    H     0.10037   0.54123   0.82256   0.00000  Uiso   1.00
H79    H     0.75147   0.71023   0.92139   0.00000  Uiso   1.00
H80    H     0.72934   0.59244   0.67060   0.00000  Uiso   1.00
H81    H     0.34646   0.43189   0.85242   0.00000  Uiso   1.00
H82    H     0.61074   0.78825   0.06080   0.00000  Uiso   1.00
H83    H     0.56407   0.53986   0.53196   0.00000  Uiso   1.00
O84    O     0.41834   0.26301   0.90800   0.00000  Uiso   1.00
O85    O     0.45309   0.73053   0.18137   0.00000  Uiso   1.00
O86    O     0.39187   0.40465   0.48754   0.00000  Uiso   1.00
N87    N     0.18129   0.25644   0.91749   0.00000  Uiso   1.00
N88    N     0.49346   0.58961   0.11232   0.00000  Uiso   1.00
N89    N     0.44980   0.35740   0.61791   0.00000  Uiso   1.00
N90    N     0.27381   0.38624   0.87025   0.00000  Uiso   1.00
N91    N     0.58598   0.71941   0.06508   0.00000  Uiso   1.00
N92    N     0.54232   0.48720   0.57066   0.00000  Uiso   1.00
C93    C     0.20009   0.11030   0.11330   0.00000  Uiso   1.00
C94    C     0.35531   0.11531   0.11637   0.00000  Uiso   1.00
C95    C     0.43429   0.19182   0.09263   0.00000  Uiso   1.00
C96    C     0.57464   0.18248   0.10013   0.00000  Uiso   1.00
C97    C     0.80668   0.20286   0.10027   0.00000  Uiso   1.00
C98    C     0.16576   0.02349   0.06266   0.00000  Uiso   1.00
C99    C     0.08535   0.02280   0.99377   0.00000  Uiso   1.00
C100   C     0.06611   0.93615   0.95608   0.00000  Uiso   1.00
C101   C     0.00379   0.81396   0.87287   0.00000  Uiso   1.00
C102   C     0.15375   0.08750   0.19893   0.00000  Uiso   1.00
C103   C     0.06320   0.14061   0.24460   0.00000  Uiso   1.00
C104   C     0.03383   0.10784   0.32162   0.00000  Uiso   1.00
C105   C     0.95285   0.08502   0.44998   0.00000  Uiso   1.00
C106   C     0.30889   0.95766   0.16885   0.00000  Uiso   1.00
C107   C     0.41441   0.03240   0.14654   0.00000  Uiso   1.00
C108   C     0.55467   0.02294   0.15409   0.00000  Uiso   1.00
C109   C     0.63384   0.09942   0.13037   0.00000  Uiso   1.00
C110   C     0.22485   0.94058   0.09284   0.00000  Uiso   1.00
C111   C     0.20572   0.85391   0.05524   0.00000  Uiso   1.00
C112   C     0.12531   0.85309   0.98631   0.00000  Uiso   1.00
C113   C     0.21284   0.00458   0.22910   0.00000  Uiso   1.00
C114   C     0.18359   0.97172   0.30607   0.00000  Uiso   1.00
C115   C     0.09303   0.02477   0.35185   0.00000  Uiso   1.00
H116   H     0.15408   0.17485   0.08980   0.00000  Uiso   1.00
H117   H     0.38852   0.25597   0.06927   0.00000  Uiso   1.00
H118   H     0.03962   0.08697   0.97044   0.00000  Uiso   1.00
H119   H     0.01749   0.20476   0.22123   0.00000  Uiso   1.00
H120   H     0.67451   0.30934   0.05979   0.00000  Uiso   1.00
H121   H     0.93880   0.95298   0.85141   0.00000  Uiso   1.00
H122   H     0.89213   0.20137   0.38025   0.00000  Uiso   1.00
H123   H     0.35489   0.89310   0.19235   0.00000  Uiso   1.00
H124   H     0.60037   0.95877   0.17744   0.00000  Uiso   1.00
H125   H     0.25147   0.78977   0.07861   0.00000  Uiso   1.00
H126   H     0.22934   0.90756   0.32940   0.00000  Uiso   1.00
H127   H     0.84646   0.06811   0.14758   0.00000  Uiso   1.00
H128   H     0.11074   0.71175   0.93920   0.00000  Uiso   1.00
H129   H     0.06407   0.96014   0.46804   0.00000  Uiso   1.00
O130   O     0.91834   0.23699   0.09200   0.00000  Uiso   1.00
O131   O     0.95309   0.76947   0.81863   0.00000  Uiso   1.00
O132   O     0.89187   0.09535   0.51246   0.00000  Uiso   1.00
N133   N     0.68129   0.24356   0.08251   0.00000  Uiso   1.00
N134   N     0.99346   0.91039   0.88768   0.00000  Uiso   1.00
N135   N     0.94980   0.14260   0.38209   0.00000  Uiso   1.00
N136   N     0.77381   0.11376   0.12975   0.00000  Uiso   1.00
N137   N     0.08598   0.78059   0.93492   0.00000  Uiso   1.00
N138   N     0.04232   0.01280   0.42934   0.00000  Uiso   1.00
C139   C     0.29991   0.88970   0.61330   0.00000  Uiso   1.00
C140   C     0.14469   0.88469   0.61637   0.00000  Uiso   1.00
C141   C     0.06571   0.80818   0.59263   0.00000  Uiso   1.00
C142   C     0.92536   0.81752   0.60013   0.00000  Uiso   1.00
C143   C     0.69332   0.79714   0.60027   0.00000  Uiso   1.00
C144   C     0.33424   0.97651   0.56266   0.00000  Uiso   1.00
C145   C     0.41465   0.97720   0.49377   0.00000  Uiso   1.00
C146   C     0.43389   0.06385   0.45608   0.00000  Uiso   1.00
C147   C     0.49621   0.18604   0.37287   0.00000  Uiso   1.00
C148   C     0.34625   0.91250   0.69893   0.00000  Uiso   1.00
C149   C     0.43680   0.85939   0.74460   0.00000  Uiso   1.00
C150   C     0.46617   0.89216   0.82162   0.00000  Uiso   1.00
C151   C     0.54715   0.91498   0.94998   0.00000  Uiso   1.00
C152   C     0.19111   0.04234   0.66885   0.00000  Uiso   1.00
C153   C     0.08559   0.96760   0.64654   0.00000  Uiso   1.00
C154   C     0.94533   0.97706   0.65409   0.00000  Uiso   1.00
C155   C     0.86616   0.90058   0.63037   0.00000  Uiso   1.00
C156   C     0.27515   0.05942   0.59284   0.00000  Uiso   1.00
C157   C     0.29428   0.14609   0.55524   0.00000  Uiso   1.00
C158   C     0.37469   0.14691   0.48631   0.00000  Uiso   1.00
C159   C     0.28716   0.99542   0.72910   0.00000  Uiso   1.00
C160   C     0.31641   0.02828   0.80607   0.00000  Uiso   1.00
C161   C     0.40697   0.97523   0.85185   0.00000  Uiso   1.00
H162   H     0.34592   0.82515   0.58980   0.00000  Uiso   1.00
H163   H     0.11148   0.74403   0.56927   0.00000  Uiso   1.00
H164   H     0.46038   0.91303   0.47044   0.00000  Uiso   1.00
H165   H     0.48251   0.79524   0.72123   0.00000  Uiso   1.00
H166   H     0.82549   0.69066   0.55979   0.00000  Uiso   1.00
H167   H     0.56120   0.04702   0.35141   0.00000  Uiso   1.00
H168   H     0.60787   0.79863   0.88025   0.00000  Uiso   1.00
H169   H     0.14511   0.10690   0.69235   0.00000  Uiso   1.00
H170   H     0.89963   0.04123   0.67744   0.00000  Uiso   1.00
H171   H     0.24853   0.21023   0.57861   0.00000  Uiso   1.00
H172   H     0.27066   0.09244   0.82940   0.00000  Uiso   1.00
H173   H     0.65354   0.93189   0.64758   0.00000  Uiso   1.00
H174   H     0.38926   0.28825   0.43920   0.00000  Uiso   1.00
H175   H     0.43593   0.03986   0.96804   0.00000  Uiso   1.00
O176   O     0.58166   0.76301   0.59200   0.00000  Uiso   1.00
O177   O     0.54691   0.23053   0.31863   0.00000  Uiso   1.00
O178   O     0.60813   0.90465   0.01246   0.00000  Uiso   1.00
N179   N     0.81871   0.75644   0.58251   0.00000  Uiso   1.00
N180   N     0.50654   0.08961   0.38768   0.00000  Uiso   1.00
N181   N     0.55020   0.85740   0.88209   0.00000  Uiso   1.00
N182   N     0.72619   0.88624   0.62975   0.00000  Uiso   1.00
N183   N     0.41402   0.21941   0.43492   0.00000  Uiso   1.00
N184   N     0.45768   0.98720   0.92934   0.00000  Uiso   1.00
