data_job_07005
_audit_creation_date              2018-12-19
_audit_creation_method            'Materials Studio'
_symmetry_space_group_name_H-M    'P1'
_symmetry_Int_Tables_number       1
_symmetry_cell_setting            triclinic
loop_
_symmetry_equiv_pos_as_xyz
  x,y,z
_cell_length_a                    22.1297
_cell_length_b                    23.1632
_cell_length_c                    26.9174
_cell_angle_alpha                 115.0462
_cell_angle_beta                  97.7494
_cell_angle_gamma                 65.9645
loop_
_atom_site_label
_atom_site_type_symbol
_atom_site_fract_x
_atom_site_fract_y
_atom_site_fract_z
_atom_site_U_iso_or_equiv
_atom_site_adp_type
_atom_site_occupancy
C1     C     0.85722   0.93487   0.58311   0.00000  Uiso   1.00
C2     C     0.89835   0.88459   0.52966   0.00000  Uiso   1.00
C3     C     0.94518   0.81835   0.51924   0.00000  Uiso   1.00
C4     C     0.97752   0.78052   0.46778   0.00000  Uiso   1.00
C5     C     0.04354   0.69829   0.39082   0.00000  Uiso   1.00
C6     C     0.87061   0.00047   0.60217   0.00000  Uiso   1.00
C7     C     0.89410   0.03164   0.65272   0.00000  Uiso   1.00
C8     C     0.90308   0.09137   0.66230   0.00000  Uiso   1.00
C9     C     0.92598   0.18906   0.69792   0.00000  Uiso   1.00
C10    C     0.78500   0.95424   0.56756   0.00000  Uiso   1.00
C11    C     0.73650   0.94658   0.58902   0.00000  Uiso   1.00
C12    C     0.67340   0.96740   0.56947   0.00000  Uiso   1.00
C13    C     0.56338   0.99332   0.55137   0.00000  Uiso   1.00
C14    C     0.83137   0.98550   0.51025   0.00000  Uiso   1.00
C15    C     0.88431   0.91210   0.49009   0.00000  Uiso   1.00
C16    C     0.91658   0.87437   0.43863   0.00000  Uiso   1.00
C17    C     0.96345   0.80807   0.42813   0.00000  Uiso   1.00
C18    C     0.85657   0.02797   0.56260   0.00000  Uiso   1.00
C19    C     0.86551   0.08766   0.57211   0.00000  Uiso   1.00
C20    C     0.88901   0.11892   0.62265   0.00000  Uiso   1.00
C21    C     0.77096   0.98174   0.52799   0.00000  Uiso   1.00
C22    C     0.70791   0.00259   0.50841   0.00000  Uiso   1.00
C23    C     0.65933   0.99495   0.52983   0.00000  Uiso   1.00
H24    H     0.86815   0.91346   0.61392   0.00000  Uiso   1.00
H25    H     0.95603   0.79708   0.54988   0.00000  Uiso   1.00
H26    H     0.90495   0.01035   0.68334   0.00000  Uiso   1.00
H27    H     0.74738   0.92529   0.61965   0.00000  Uiso   1.00
H28    H     0.04729   0.68020   0.46143   0.00000  Uiso   1.00
H29    H     0.93957   0.12990   0.74284   0.00000  Uiso   1.00
H30    H     0.60730   0.95053   0.60854   0.00000  Uiso   1.00
H31    H     0.82044   0.00692   0.47944   0.00000  Uiso   1.00
H32    H     0.90571   0.89566   0.40801   0.00000  Uiso   1.00
H33    H     0.85463   0.10893   0.54147   0.00000  Uiso   1.00
H34    H     0.69707   0.02387   0.47778   0.00000  Uiso   1.00
H35    H     0.00645   0.76021   0.34629   0.00000  Uiso   1.00
H36    H     0.89873   0.20991   0.62770   0.00000  Uiso   1.00
H37    H     0.56647   0.03055   0.49340   0.00000  Uiso   1.00
O38    O     0.08384   0.64534   0.35930   0.00000  Uiso   1.00
O39    O     0.94250   0.23534   0.72851   0.00000  Uiso   1.00
O40    O     0.50658   0.00001   0.55231   0.00000  Uiso   1.00
N41    N     0.02597   0.71429   0.44413   0.00000  Uiso   1.00
N42    N     0.92527   0.13473   0.70723   0.00000  Uiso   1.00
N43    N     0.61462   0.96705   0.58168   0.00000  Uiso   1.00
N44    N     0.00399   0.75734   0.38217   0.00000  Uiso   1.00
N45    N     0.90329   0.17778   0.64527   0.00000  Uiso   1.00
N46    N     0.59265   0.01011   0.51972   0.00000  Uiso   1.00
C47    C     0.49570   0.47028   0.46051   0.00000  Uiso   1.00
C48    C     0.50666   0.45902   0.40182   0.00000  Uiso   1.00
C49    C     0.55368   0.47237   0.38411   0.00000  Uiso   1.00
C50    C     0.55581   0.45863   0.32878   0.00000  Uiso   1.00
C51    C     0.57939   0.44516   0.24317   0.00000  Uiso   1.00
C52    C     0.42314   0.51821   0.47644   0.00000  Uiso   1.00
C53    C     0.39994   0.58132   0.52148   0.00000  Uiso   1.00
C54    C     0.33176   0.61739   0.52895   0.00000  Uiso   1.00
C55    C     0.22567   0.69579   0.55922   0.00000  Uiso   1.00
C56    C     0.50260   0.40062   0.45749   0.00000  Uiso   1.00
C57    C     0.54620   0.36487   0.48662   0.00000  Uiso   1.00
C58    C     0.54491   0.30195   0.47816   0.00000  Uiso   1.00
C59    C     0.56221   0.19777   0.47901   0.00000  Uiso   1.00
C60    C     0.41588   0.42213   0.39371   0.00000  Uiso   1.00
C61    C     0.46330   0.43287   0.36554   0.00000  Uiso   1.00
C62    C     0.46536   0.41910   0.31021   0.00000  Uiso   1.00
C63    C     0.51237   0.43243   0.29243   0.00000  Uiso   1.00
C64    C     0.37978   0.49206   0.44016   0.00000  Uiso   1.00
C65    C     0.31162   0.52805   0.44757   0.00000  Uiso   1.00
C66    C     0.28832   0.59120   0.49261   0.00000  Uiso   1.00
C67    C     0.45925   0.37447   0.42121   0.00000  Uiso   1.00
C68    C     0.45788   0.31160   0.41271   0.00000  Uiso   1.00
C69    C     0.50147   0.27575   0.44181   0.00000  Uiso   1.00
H70    H     0.52946   0.49065   0.48876   0.00000  Uiso   1.00
H71    H     0.58722   0.49262   0.41220   0.00000  Uiso   1.00
H72    H     0.43350   0.60154   0.54955   0.00000  Uiso   1.00
H73    H     0.57974   0.38512   0.51469   0.00000  Uiso   1.00
H74    H     0.63212   0.48330   0.31134   0.00000  Uiso   1.00
H75    H     0.30800   0.71295   0.60094   0.00000  Uiso   1.00
H76    H     0.61638   0.25659   0.52744   0.00000  Uiso   1.00
H77    H     0.38212   0.40177   0.36547   0.00000  Uiso   1.00
H78    H     0.43180   0.39887   0.28215   0.00000  Uiso   1.00
H79    H     0.27808   0.50779   0.41949   0.00000  Uiso   1.00
H80    H     0.42432   0.29137   0.38463   0.00000  Uiso   1.00
H81    H     0.50598   0.40721   0.20578   0.00000  Uiso   1.00
H82    H     0.18185   0.63686   0.49539   0.00000  Uiso   1.00
H83    H     0.49023   0.18051   0.42188   0.00000  Uiso   1.00
O84    O     0.60437   0.44497   0.20598   0.00000  Uiso   1.00
O85    O     0.17914   0.74626   0.58593   0.00000  Uiso   1.00
O86    O     0.58373   0.14753   0.48950   0.00000  Uiso   1.00
N87    N     0.59562   0.46578   0.29793   0.00000  Uiso   1.00
N88    N     0.29259   0.68050   0.56868   0.00000  Uiso   1.00
N89    N     0.58089   0.25385   0.49998   0.00000  Uiso   1.00
N90    N     0.52775   0.42483   0.24113   0.00000  Uiso   1.00
N91    N     0.22471   0.63955   0.51188   0.00000  Uiso   1.00
N92    N     0.51301   0.21290   0.44318   0.00000  Uiso   1.00
C93    C     0.21114   0.23266   0.50887   0.00000  Uiso   1.00
C94    C     0.21851   0.18823   0.44728   0.00000  Uiso   1.00
C95    C     0.16701   0.18137   0.41272   0.00000  Uiso   1.00
C96    C     0.18403   0.13824   0.35765   0.00000  Uiso   1.00
C97    C     0.18541   0.07455   0.26503   0.00000  Uiso   1.00
C98    C     0.25308   0.18395   0.53593   0.00000  Uiso   1.00
C99    C     0.23064   0.17350   0.57592   0.00000  Uiso   1.00
C100   C     0.27676   0.12678   0.59547   0.00000  Uiso   1.00
C101   C     0.33180   0.05648   0.64052   0.00000  Uiso   1.00
C102   C     0.24532   0.28167   0.51848   0.00000  Uiso   1.00
C103   C     0.21636   0.35337   0.54379   0.00000  Uiso   1.00
C104   C     0.25595   0.38892   0.54867   0.00000  Uiso   1.00
C105   C     0.29895   0.47034   0.56661   0.00000  Uiso   1.00
C106   C     0.33294   0.16828   0.47252   0.00000  Uiso   1.00
C107   C     0.28467   0.15326   0.42754   0.00000  Uiso   1.00
C108   C     0.30177   0.11014   0.37250   0.00000  Uiso   1.00
C109   C     0.25030   0.10321   0.33787   0.00000  Uiso   1.00
C110   C     0.31923   0.14899   0.51619   0.00000  Uiso   1.00
C111   C     0.36539   0.10227   0.53570   0.00000  Uiso   1.00
C112   C     0.34303   0.09175   0.57569   0.00000  Uiso   1.00
C113   C     0.31147   0.24670   0.49873   0.00000  Uiso   1.00
C114   C     0.35112   0.28214   0.50357   0.00000  Uiso   1.00
C115   C     0.32223   0.35388   0.52889   0.00000  Uiso   1.00
H116   H     0.15964   0.25988   0.52424   0.00000  Uiso   1.00
H117   H     0.11582   0.20843   0.42802   0.00000  Uiso   1.00
H118   H     0.17944   0.20057   0.59119   0.00000  Uiso   1.00
H119   H     0.16517   0.38041   0.55907   0.00000  Uiso   1.00
H120   H     0.09642   0.13595   0.31263   0.00000  Uiso   1.00
H121   H     0.23057   0.11940   0.65670   0.00000  Uiso   1.00
H122   H     0.20046   0.49863   0.58897   0.00000  Uiso   1.00
H123   H     0.38445   0.14106   0.45714   0.00000  Uiso   1.00
H124   H     0.35297   0.08308   0.35723   0.00000  Uiso   1.00
H125   H     0.41658   0.07522   0.52041   0.00000  Uiso   1.00
H126   H     0.40231   0.25506   0.48829   0.00000  Uiso   1.00
H127   H     0.28889   0.03421   0.25518   0.00000  Uiso   1.00
H128   H     0.42304   0.01766   0.59926   0.00000  Uiso   1.00
H129   H     0.39294   0.39689   0.53152   0.00000  Uiso   1.00
O130   O     0.16789   0.04907   0.21940   0.00000  Uiso   1.00
O131   O     0.34389   0.02736   0.67081   0.00000  Uiso   1.00
O132   O     0.30439   0.52490   0.58195   0.00000  Uiso   1.00
N133   N     0.14604   0.11997   0.31282   0.00000  Uiso   1.00
N134   N     0.27145   0.10449   0.63450   0.00000  Uiso   1.00
N135   N     0.24332   0.45904   0.57119   0.00000  Uiso   1.00
N136   N     0.24961   0.06523   0.28191   0.00000  Uiso   1.00
N137   N     0.37502   0.04974   0.60359   0.00000  Uiso   1.00
N138   N     0.34688   0.40429   0.54028   0.00000  Uiso   1.00
C139   C     0.82050   0.49847   0.98457   0.00000  Uiso   1.00
C140   C     0.82247   0.46296   0.92210   0.00000  Uiso   1.00
C141   C     0.76776   0.46473   0.88988   0.00000  Uiso   1.00
C142   C     0.77999   0.42892   0.83348   0.00000  Uiso   1.00
C143   C     0.77322   0.37933   0.74002   0.00000  Uiso   1.00
C144   C     0.85847   0.54503   0.99810   0.00000  Uiso   1.00
C145   C     0.83403   0.61582   0.02979   0.00000  Uiso   1.00
C146   C     0.87657   0.64909   0.03737   0.00000  Uiso   1.00
C147   C     0.92571   0.72692   0.06194   0.00000  Uiso   1.00
C148   C     0.86210   0.44166   0.00413   0.00000  Uiso   1.00
C149   C     0.84072   0.42554   0.04091   0.00000  Uiso   1.00
C150   C     0.88631   0.37179   0.05358   0.00000  Uiso   1.00
C151   C     0.94108   0.28912   0.08751   0.00000  Uiso   1.00
C152   C     0.93948   0.43170   0.94171   0.00000  Uiso   1.00
C153   C     0.88710   0.42670   0.89882   0.00000  Uiso   1.00
C154   C     0.89941   0.39087   0.84246   0.00000  Uiso   1.00
C155   C     0.84473   0.39259   0.81016   0.00000  Uiso   1.00
C156   C     0.92310   0.50877   0.97482   0.00000  Uiso   1.00
C157   C     0.96568   0.54195   0.98237   0.00000  Uiso   1.00
C158   C     0.94132   0.61276   0.01405   0.00000  Uiso   1.00
C159   C     0.92673   0.40540   0.98085   0.00000  Uiso   1.00
C160   C     0.97236   0.35167   0.99348   0.00000  Uiso   1.00
C161   C     0.95106   0.33547   0.03026   0.00000  Uiso   1.00
H162   H     0.77018   0.52670   0.00270   0.00000  Uiso   1.00
H163   H     0.71776   0.49281   0.90791   0.00000  Uiso   1.00
H164   H     0.78402   0.64386   0.04780   0.00000  Uiso   1.00
H165   H     0.79070   0.45361   0.05891   0.00000  Uiso   1.00
H166   H     0.68813   0.43926   0.79256   0.00000  Uiso   1.00
H167   H     0.82786   0.75776   0.08754   0.00000  Uiso   1.00
H168   H     0.84195   0.35659   0.11097   0.00000  Uiso   1.00
H169   H     0.98980   0.40347   0.92358   0.00000  Uiso   1.00
H170   H     0.94943   0.36281   0.82445   0.00000  Uiso   1.00
H171   H     0.01569   0.51387   0.96434   0.00000  Uiso   1.00
H172   H     0.02237   0.32362   0.97545   0.00000  Uiso   1.00
H173   H     0.87617   0.33375   0.72482   0.00000  Uiso   1.00
H174   H     0.01590   0.65226   0.01980   0.00000  Uiso   1.00
H175   H     0.02999   0.25108   0.04323   0.00000  Uiso   1.00
O176   O     0.75163   0.36200   0.69490   0.00000  Uiso   1.00
O177   O     0.93495   0.77986   0.08192   0.00000  Uiso   1.00
O178   O     0.95343   0.25353   0.11266   0.00000  Uiso   1.00
N179   N     0.73793   0.41999   0.79022   0.00000  Uiso   1.00
N180   N     0.86856   0.71778   0.06600   0.00000  Uiso   1.00
N181   N     0.88174   0.34273   0.08792   0.00000  Uiso   1.00
N182   N     0.83911   0.36322   0.75377   0.00000  Uiso   1.00
N183   N     0.96974   0.66101   0.02955   0.00000  Uiso   1.00
N184   N     0.98292   0.28595   0.05147   0.00000  Uiso   1.00
C185   C     0.40002   0.20473   0.05583   0.00000  Uiso   1.00
C186   C     0.41136   0.16478   0.99377   0.00000  Uiso   1.00
C187   C     0.46587   0.14958   0.96334   0.00000  Uiso   1.00
C188   C     0.46699   0.11249   0.90701   0.00000  Uiso   1.00
C189   C     0.49246   0.05363   0.81443   0.00000  Uiso   1.00
C190   C     0.39031   0.15741   0.07700   0.00000  Uiso   1.00
C191   C     0.42710   0.13603   0.11655   0.00000  Uiso   1.00
C192   C     0.41049   0.09275   0.13029   0.00000  Uiso   1.00
C193   C     0.40324   0.02250   0.16696   0.00000  Uiso   1.00
C194   C     0.33335   0.26537   0.06526   0.00000  Uiso   1.00
C195   C     0.32224   0.33475   0.09497   0.00000  Uiso   1.00
C196   C     0.25767   0.38236   0.09884   0.00000  Uiso   1.00
C197   C     0.16199   0.47973   0.11729   0.00000  Uiso   1.00
C198   C     0.30510   0.16589   0.00991   0.00000  Uiso   1.00
C199   C     0.35981   0.14368   0.96882   0.00000  Uiso   1.00
C200   C     0.36085   0.10661   0.91252   0.00000  Uiso   1.00
C201   C     0.41534   0.09135   0.88201   0.00000  Uiso   1.00
C202   C     0.33875   0.13632   0.05205   0.00000  Uiso   1.00
C203   C     0.32208   0.09306   0.06574   0.00000  Uiso   1.00
C204   C     0.35884   0.07161   0.10530   0.00000  Uiso   1.00
C205   C     0.28179   0.24427   0.04032   0.00000  Uiso   1.00
C206   C     0.21722   0.29178   0.04415   0.00000  Uiso   1.00
C207   C     0.20602   0.36123   0.07385   0.00000  Uiso   1.00
H208   H     0.44016   0.22115   0.07526   0.00000  Uiso   1.00
H209   H     0.50576   0.16591   0.98266   0.00000  Uiso   1.00
H210   H     0.46699   0.15237   0.13586   0.00000  Uiso   1.00
H211   H     0.36215   0.35106   0.11427   0.00000  Uiso   1.00
H212   H     0.55576   0.09534   0.86900   0.00000  Uiso   1.00
H213   H     0.47400   0.06681   0.19203   0.00000  Uiso   1.00
H214   H     0.25293   0.48579   0.14651   0.00000  Uiso   1.00
H215   H     0.26496   0.14946   0.99048   0.00000  Uiso   1.00
H216   H     0.32094   0.09029   0.89323   0.00000  Uiso   1.00
H217   H     0.28218   0.07675   0.04643   0.00000  Uiso   1.00
H218   H     0.17734   0.27544   0.02484   0.00000  Uiso   1.00
H219   H     0.40576   0.03396   0.79641   0.00000  Uiso   1.00
H220   H     0.32400   0.00543   0.11945   0.00000  Uiso   1.00
H221   H     0.10293   0.42441   0.07393   0.00000  Uiso   1.00
O222   O     0.52076   0.02699   0.77026   0.00000  Uiso   1.00
O223   O     0.41349   0.98958   0.19408   0.00000  Uiso   1.00
O224   O     0.12345   0.53927   0.13435   0.00000  Uiso   1.00
N225   N     0.51277   0.08902   0.86526   0.00000  Uiso   1.00
N226   N     0.43634   0.06234   0.16727   0.00000  Uiso   1.00
N227   N     0.22965   0.45405   0.12473   0.00000  Uiso   1.00
N228   N     0.43205   0.05600   0.82620   0.00000  Uiso   1.00
N229   N     0.35562   0.02932   0.12821   0.00000  Uiso   1.00
N230   N     0.14893   0.42103   0.08567   0.00000  Uiso   1.00
C231   C     0.84181   0.03662   0.01669   0.00000  Uiso   1.00
C232   C     0.83456   0.97511   0.96790   0.00000  Uiso   1.00
C233   C     0.85365   0.90899   0.96554   0.00000  Uiso   1.00
C234   C     0.84282   0.85992   0.91722   0.00000  Uiso   1.00
C235   C     0.83593   0.76191   0.84821   0.00000  Uiso   1.00
C236   C     0.77252   0.09372   0.03132   0.00000  Uiso   1.00
C237   C     0.73945   0.12732   0.08229   0.00000  Uiso   1.00
C238   C     0.67639   0.17810   0.08736   0.00000  Uiso   1.00
C239   C     0.57320   0.26426   0.11683   0.00000  Uiso   1.00
C240   C     0.88188   0.06187   0.99492   0.00000  Uiso   1.00
C241   C     0.94077   0.06872   0.01529   0.00000  Uiso   1.00
C242   C     0.96978   0.09270   0.98971   0.00000  Uiso   1.00
C243   C     0.03639   0.12942   0.96266   0.00000  Uiso   1.00
C244   C     0.78861   0.06704   0.93507   0.00000  Uiso   1.00
C245   C     0.80566   0.99164   0.92356   0.00000  Uiso   1.00
C246   C     0.79479   0.94265   0.87523   0.00000  Uiso   1.00
C247   C     0.81387   0.87647   0.87280   0.00000  Uiso   1.00
C248   C     0.74362   0.11024   0.98699   0.00000  Uiso   1.00
C249   C     0.68059   0.16098   0.99198   0.00000  Uiso   1.00
C250   C     0.64744   0.19465   0.04295   0.00000  Uiso   1.00
C251   C     0.85299   0.07839   0.95058   0.00000  Uiso   1.00
C252   C     0.88191   0.10237   0.92497   0.00000  Uiso   1.00
C253   C     0.94083   0.10925   0.94530   0.00000  Uiso   1.00
H254   H     0.86430   0.02376   0.05121   0.00000  Uiso   1.00
H255   H     0.87601   0.89623   0.99986   0.00000  Uiso   1.00
H256   H     0.76183   0.11453   0.11660   0.00000  Uiso   1.00
H257   H     0.96311   0.05593   0.04960   0.00000  Uiso   1.00
H258   H     0.87623   0.76213   0.92339   0.00000  Uiso   1.00
H259   H     0.63548   0.22245   0.16953   0.00000  Uiso   1.00
H260   H     0.05993   0.09889   0.02826   0.00000  Uiso   1.00
H261   H     0.76611   0.07990   0.90055   0.00000  Uiso   1.00
H262   H     0.77243   0.95545   0.84093   0.00000  Uiso   1.00
H263   H     0.65825   0.17375   0.95766   0.00000  Uiso   1.00
H264   H     0.85953   0.11515   0.89067   0.00000  Uiso   1.00
H265   H     0.79215   0.81020   0.79439   0.00000  Uiso   1.00
H266   H     0.55141   0.27052   0.04054   0.00000  Uiso   1.00
H267   H     0.97586   0.14695   0.89926   0.00000  Uiso   1.00
O268   O     0.84010   0.70329   0.82240   0.00000  Uiso   1.00
O269   O     0.52426   0.30722   0.14533   0.00000  Uiso   1.00
O270   O     0.08112   0.14510   0.95998   0.00000  Uiso   1.00
N271   N     0.85558   0.79052   0.90121   0.00000  Uiso   1.00
N272   N     0.63050   0.22088   0.13134   0.00000  Uiso   1.00
N273   N     0.02731   0.10538   0.99926   0.00000  Uiso   1.00
N274   N     0.81035   0.81638   0.83180   0.00000  Uiso   1.00
N275   N     0.58526   0.24675   0.06192   0.00000  Uiso   1.00
N276   N     0.98207   0.13124   0.92985   0.00000  Uiso   1.00
C277   C     0.25600   0.33098   0.23014   0.00000  Uiso   1.00
C278   C     0.22444   0.37713   0.28791   0.00000  Uiso   1.00
C279   C     0.18610   0.44759   0.30743   0.00000  Uiso   1.00
C280   C     0.16174   0.48051   0.36151   0.00000  Uiso   1.00
C281   C     0.11066   0.55769   0.44613   0.00000  Uiso   1.00
C282   C     0.23070   0.27283   0.20728   0.00000  Uiso   1.00
C283   C     0.19763   0.25560   0.15900   0.00000  Uiso   1.00
C284   C     0.17855   0.20071   0.14519   0.00000  Uiso   1.00
C285   C     0.13724   0.11593   0.10460   0.00000  Uiso   1.00
C286   C     0.32992   0.29717   0.23726   0.00000  Uiso   1.00
C287   C     0.38027   0.30038   0.21419   0.00000  Uiso   1.00
C288   C     0.44473   0.26597   0.22562   0.00000  Uiso   1.00
C289   C     0.55746   0.21897   0.23160   0.00000  Uiso   1.00
C290   C     0.28093   0.26414   0.29146   0.00000  Uiso   1.00
C291   C     0.23799   0.34083   0.32121   0.00000  Uiso   1.00
C292   C     0.21369   0.37364   0.37527   0.00000  Uiso   1.00
C293   C     0.17531   0.44414   0.39487   0.00000  Uiso   1.00
C294   C     0.24425   0.23653   0.24058   0.00000  Uiso   1.00
C295   C     0.22522   0.18165   0.22684   0.00000  Uiso   1.00
C296   C     0.19212   0.16434   0.17855   0.00000  Uiso   1.00
C297   C     0.34347   0.26087   0.27057   0.00000  Uiso   1.00
C298   C     0.40786   0.22644   0.28203   0.00000  Uiso   1.00
C299   C     0.45830   0.22960   0.25899   0.00000  Uiso   1.00
H300   H     0.24545   0.35924   0.20421   0.00000  Uiso   1.00
H301   H     0.17562   0.47567   0.28164   0.00000  Uiso   1.00
H302   H     0.18716   0.28370   0.13323   0.00000  Uiso   1.00
H303   H     0.36977   0.32848   0.18842   0.00000  Uiso   1.00
H304   H     0.10415   0.58874   0.38217   0.00000  Uiso   1.00
H305   H     0.12851   0.18394   0.06922   0.00000  Uiso   1.00
H306   H     0.51358   0.27837   0.18560   0.00000  Uiso   1.00
H307   H     0.29148   0.23587   0.31739   0.00000  Uiso   1.00
H308   H     0.22418   0.34554   0.40104   0.00000  Uiso   1.00
H309   H     0.23571   0.15356   0.25262   0.00000  Uiso   1.00
H310   H     0.41832   0.19835   0.30781   0.00000  Uiso   1.00
H311   H     0.14356   0.48311   0.47908   0.00000  Uiso   1.00
H312   H     0.16792   0.07831   0.16612   0.00000  Uiso   1.00
H313   H     0.55299   0.17274   0.28250   0.00000  Uiso   1.00
O314   O     0.07873   0.61028   0.48360   0.00000  Uiso   1.00
O315   O     0.11070   0.07920   0.07302   0.00000  Uiso   1.00
O316   O     0.61590   0.20309   0.22570   0.00000  Uiso   1.00
N317   N     0.12268   0.54883   0.39350   0.00000  Uiso   1.00
N318   N     0.14544   0.17038   0.10092   0.00000  Uiso   1.00
N319   N     0.50545   0.25864   0.20971   0.00000  Uiso   1.00
N320   N     0.14388   0.49200   0.44565   0.00000  Uiso   1.00
N321   N     0.16664   0.11354   0.15306   0.00000  Uiso   1.00
N322   N     0.52665   0.20181   0.26185   0.00000  Uiso   1.00
C323   C     0.72201   0.73183   0.27190   0.00000  Uiso   1.00
C324   C     0.73602   0.74289   0.33160   0.00000  Uiso   1.00
C325   C     0.70876   0.72402   0.36284   0.00000  Uiso   1.00
C326   C     0.72788   0.73860   0.41665   0.00000  Uiso   1.00
C327   C     0.74285   0.75083   0.50602   0.00000  Uiso   1.00
C328   C     0.78914   0.69028   0.24072   0.00000  Uiso   1.00
C329   C     0.80653   0.62718   0.19555   0.00000  Uiso   1.00
C330   C     0.87037   0.59748   0.17285   0.00000  Uiso   1.00
C331   C     0.96779   0.52806   0.12111   0.00000  Uiso   1.00
C332   C     0.69737   0.80306   0.27079   0.00000  Uiso   1.00
C333   C     0.63761   0.83478   0.25090   0.00000  Uiso   1.00
C334   C     0.62420   0.90003   0.25350   0.00000  Uiso   1.00
C335   C     0.57913   0.00572   0.24846   0.00000  Uiso   1.00
C336   C     0.80446   0.79130   0.31189   0.00000  Uiso   1.00
C337   C     0.78080   0.77520   0.35331   0.00000  Uiso   1.00
C338   C     0.79997   0.78982   0.40708   0.00000  Uiso   1.00
C339   C     0.77274   0.77096   0.43841   0.00000  Uiso   1.00
C340   C     0.83392   0.72258   0.26243   0.00000  Uiso   1.00
C341   C     0.89775   0.69298   0.23979   0.00000  Uiso   1.00
C342   C     0.91524   0.62984   0.19460   0.00000  Uiso   1.00
C343   C     0.74215   0.83537   0.29251   0.00000  Uiso   1.00
C344   C     0.72883   0.90058   0.29514   0.00000  Uiso   1.00
C345   C     0.66906   0.93239   0.27526   0.00000  Uiso   1.00
H346   H     0.68715   0.70668   0.25499   0.00000  Uiso   1.00
H347   H     0.67411   0.69901   0.34602   0.00000  Uiso   1.00
H348   H     0.77186   0.60219   0.17875   0.00000  Uiso   1.00
H349   H     0.60297   0.80977   0.23409   0.00000  Uiso   1.00
H350   H     0.67942   0.70473   0.45651   0.00000  Uiso   1.00
H351   H     0.88554   0.50060   0.10380   0.00000  Uiso   1.00
H352   H     0.52939   0.93831   0.22050   0.00000  Uiso   1.00
H353   H     0.83932   0.81645   0.32879   0.00000  Uiso   1.00
H354   H     0.83463   0.81482   0.42388   0.00000  Uiso   1.00
H355   H     0.93239   0.71799   0.25661   0.00000  Uiso   1.00
H356   H     0.76349   0.92557   0.31195   0.00000  Uiso   1.00
H357   H     0.80971   0.79872   0.51971   0.00000  Uiso   1.00
H358   H     0.01582   0.59459   0.16699   0.00000  Uiso   1.00
H359   H     0.65968   0.03229   0.28370   0.00000  Uiso   1.00
O360   O     0.73875   0.74865   0.54932   0.00000  Uiso   1.00
O361   O     0.00916   0.48084   0.08657   0.00000  Uiso   1.00
O362   O     0.54190   0.05510   0.23969   0.00000  Uiso   1.00
N363   N     0.71071   0.72709   0.45834   0.00000  Uiso   1.00
N364   N     0.90343   0.53623   0.12858   0.00000  Uiso   1.00
N365   N     0.57047   0.94544   0.23768   0.00000  Uiso   1.00
N366   N     0.78082   0.77767   0.49234   0.00000  Uiso   1.00
N367   N     0.97353   0.58681   0.16259   0.00000  Uiso   1.00
N368   N     0.64057   0.99602   0.27168   0.00000  Uiso   1.00
C369   C     0.87276   0.11238   0.26049   0.00000  Uiso   1.00
C370   C     0.85771   0.14313   0.32212   0.00000  Uiso   1.00
C371   C     0.90436   0.13899   0.36183   0.00000  Uiso   1.00
C372   C     0.88058   0.17051   0.41599   0.00000  Uiso   1.00
C373   C     0.86756   0.21304   0.50957   0.00000  Uiso   1.00
C374   C     0.83963   0.17238   0.24293   0.00000  Uiso   1.00
C375   C     0.87106   0.19283   0.21605   0.00000  Uiso   1.00
C376   C     0.83205   0.24897   0.20353   0.00000  Uiso   1.00
C377   C     0.79095   0.33690   0.17413   0.00000  Uiso   1.00
C378   C     0.83515   0.06504   0.23394   0.00000  Uiso   1.00
C379   C     0.86282   0.99524   0.19949   0.00000  Uiso   1.00
C380   C     0.82004   0.96101   0.17939   0.00000  Uiso   1.00
C381   C     0.77199   0.88227   0.13604   0.00000  Uiso   1.00
C382   C     0.74758   0.17571   0.28605   0.00000  Uiso   1.00
C383   C     0.78972   0.17753   0.33600   0.00000  Uiso   1.00
C384   C     0.76587   0.20906   0.39011   0.00000  Uiso   1.00
C385   C     0.81247   0.20496   0.42989   0.00000  Uiso   1.00
C386   C     0.77164   0.20678   0.25681   0.00000  Uiso   1.00
C387   C     0.73257   0.26290   0.24432   0.00000  Uiso   1.00
C388   C     0.76394   0.28343   0.21744   0.00000  Uiso   1.00
C389   C     0.76716   0.09944   0.24782   0.00000  Uiso   1.00
C390   C     0.72433   0.06531   0.22777   0.00000  Uiso   1.00
C391   C     0.75193   0.99547   0.19330   0.00000  Uiso   1.00
H392   H     0.92569   0.08561   0.24968   0.00000  Uiso   1.00
H393   H     0.95697   0.11237   0.35108   0.00000  Uiso   1.00
H394   H     0.92368   0.16620   0.20531   0.00000  Uiso   1.00
H395   H     0.91543   0.96864   0.18876   0.00000  Uiso   1.00
H396   H     0.96167   0.15724   0.46961   0.00000  Uiso   1.00
H397   H     0.89147   0.27073   0.16224   0.00000  Uiso   1.00
H398   H     0.87408   0.85413   0.12733   0.00000  Uiso   1.00
H399   H     0.69465   0.20249   0.29685   0.00000  Uiso   1.00
H400   H     0.71325   0.23567   0.40083   0.00000  Uiso   1.00
H401   H     0.67996   0.28950   0.25507   0.00000  Uiso   1.00
H402   H     0.67172   0.09195   0.23852   0.00000  Uiso   1.00
H403   H     0.76385   0.25732   0.51000   0.00000  Uiso   1.00
H404   H     0.69366   0.37080   0.20262   0.00000  Uiso   1.00
H405   H     0.67627   0.95421   0.16772   0.00000  Uiso   1.00
O406   O     0.87917   0.22701   0.55736   0.00000  Uiso   1.00
O407   O     0.78707   0.37590   0.15409   0.00000  Uiso   1.00
O408   O     0.76426   0.82934   0.10830   0.00000  Uiso   1.00
N409   N     0.91256   0.17622   0.46484   0.00000  Uiso   1.00
N410   N     0.84693   0.28234   0.17748   0.00000  Uiso   1.00
N411   N     0.83067   0.89286   0.14483   0.00000  Uiso   1.00
N412   N     0.80612   0.23008   0.48658   0.00000  Uiso   1.00
N413   N     0.74049   0.33619   0.19921   0.00000  Uiso   1.00
N414   N     0.72423   0.94671   0.16656   0.00000  Uiso   1.00
C415   C     0.26167   0.85340   0.77965   0.00000  Uiso   1.00
C416   C     0.25071   0.87966   0.84142   0.00000  Uiso   1.00
C417   C     0.30004   0.87136   0.87856   0.00000  Uiso   1.00
C418   C     0.27984   0.89914   0.93333   0.00000  Uiso   1.00
C419   C     0.27304   0.93458   0.02666   0.00000  Uiso   1.00
C420   C     0.22232   0.80787   0.75283   0.00000  Uiso   1.00
C421   C     0.24778   0.73922   0.71549   0.00000  Uiso   1.00
C422   C     0.20368   0.70658   0.69568   0.00000  Uiso   1.00
C423   C     0.15279   0.63059   0.65144   0.00000  Uiso   1.00
C424   C     0.22727   0.91660   0.76610   0.00000  Uiso   1.00
C425   C     0.25689   0.93936   0.73989   0.00000  Uiso   1.00
C426   C     0.21694   0.99826   0.73125   0.00000  Uiso   1.00
C427   C     0.17374   0.09109   0.70761   0.00000  Uiso   1.00
C428   C     0.13807   0.91751   0.81087   0.00000  Uiso   1.00
C429   C     0.18357   0.91448   0.85838   0.00000  Uiso   1.00
C430   C     0.16329   0.94229   0.91311   0.00000  Uiso   1.00
C431   C     0.21259   0.93403   0.95032   0.00000  Uiso   1.00
C432   C     0.15519   0.84269   0.76979   0.00000  Uiso   1.00
C433   C     0.11103   0.81015   0.75003   0.00000  Uiso   1.00
C434   C     0.13642   0.74147   0.71267   0.00000  Uiso   1.00
C435   C     0.16013   0.95143   0.78306   0.00000  Uiso   1.00
C436   C     0.12013   0.01030   0.77444   0.00000  Uiso   1.00
C437   C     0.14969   0.03315   0.74823   0.00000  Uiso   1.00
H438   H     0.31393   0.82629   0.76645   0.00000  Uiso   1.00
H439   H     0.35199   0.84440   0.86542   0.00000  Uiso   1.00
H440   H     0.29974   0.71229   0.70237   0.00000  Uiso   1.00
H441   H     0.30884   0.91240   0.72678   0.00000  Uiso   1.00
H442   H     0.36458   0.87981   0.98263   0.00000  Uiso   1.00
H443   H     0.25440   0.60126   0.63881   0.00000  Uiso   1.00
H444   H     0.27359   0.02323   0.69027   0.00000  Uiso   1.00
H445   H     0.08579   0.94462   0.82407   0.00000  Uiso   1.00
H446   H     0.11134   0.96923   0.92622   0.00000  Uiso   1.00
H447   H     0.05908   0.83712   0.76316   0.00000  Uiso   1.00
H448   H     0.06818   0.03723   0.78757   0.00000  Uiso   1.00
H449   H     0.16926   0.98113   0.03197   0.00000  Uiso   1.00
H450   H     0.05907   0.70257   0.68815   0.00000  Uiso   1.00
H451   H     0.07826   0.12455   0.73962   0.00000  Uiso   1.00
O452   O     0.28784   0.94450   0.07345   0.00000  Uiso   1.00
O453   O     0.14327   0.57905   0.62236   0.00000  Uiso   1.00
O454   O     0.16845   0.13268   0.68989   0.00000  Uiso   1.00
N455   N     0.31511   0.90029   0.98023   0.00000  Uiso   1.00
N456   N     0.21209   0.63985   0.65878   0.00000  Uiso   1.00
N457   N     0.23003   0.03436   0.70688   0.00000  Uiso   1.00
N458   N     0.21000   0.95481   0.00678   0.00000  Uiso   1.00
N459   N     0.10699   0.69437   0.68533   0.00000  Uiso   1.00
N460   N     0.12493   0.08888   0.73343   0.00000  Uiso   1.00
C461   C     0.67137   0.10031   0.74023   0.00000  Uiso   1.00
C462   C     0.64676   0.15452   0.79827   0.00000  Uiso   1.00
C463   C     0.58711   0.17307   0.82365   0.00000  Uiso   1.00
C464   C     0.57369   0.22379   0.87689   0.00000  Uiso   1.00
C465   C     0.52867   0.30328   0.96292   0.00000  Uiso   1.00
C466   C     0.68503   0.13721   0.71038   0.00000  Uiso   1.00
C467   C     0.65757   0.14120   0.66186   0.00000  Uiso   1.00
C468   C     0.67638   0.17734   0.64112   0.00000  Uiso   1.00
C469   C     0.69082   0.22992   0.59068   0.00000  Uiso   1.00
C470   C     0.73866   0.04831   0.74592   0.00000  Uiso   1.00
C471   C     0.75630   0.97755   0.72727   0.00000  Uiso   1.00
C472   C     0.82027   0.93884   0.73644   0.00000  Uiso   1.00
C473   C     0.91797   0.85338   0.74118   0.00000  Uiso   1.00
C474   C     0.75359   0.15739   0.78968   0.00000  Uiso   1.00
C475   C     0.69142   0.18553   0.82513   0.00000  Uiso   1.00
C476   C     0.67809   0.23623   0.87835   0.00000  Uiso   1.00
C477   C     0.61843   0.25485   0.90380   0.00000  Uiso   1.00
C478   C     0.72969   0.16822   0.73724   0.00000  Uiso   1.00
C479   C     0.74855   0.20436   0.71656   0.00000  Uiso   1.00
C480   C     0.72112   0.20841   0.66803   0.00000  Uiso   1.00
C481   C     0.78332   0.07932   0.77278   0.00000  Uiso   1.00
C482   C     0.84727   0.04071   0.78198   0.00000  Uiso   1.00
C483   C     0.86501   0.96990   0.76335   0.00000  Uiso   1.00
H484   H     0.63660   0.07617   0.71932   0.00000  Uiso   1.00
H485   H     0.55256   0.14907   0.80285   0.00000  Uiso   1.00
H486   H     0.62302   0.11720   0.64108   0.00000  Uiso   1.00
H487   H     0.72173   0.95357   0.70649   0.00000  Uiso   1.00
H488   H     0.47908   0.24358   0.90729   0.00000  Uiso   1.00
H489   H     0.62765   0.17636   0.56619   0.00000  Uiso   1.00
H490   H     0.83580   0.83132   0.70411   0.00000  Uiso   1.00
H491   H     0.78837   0.18153   0.81059   0.00000  Uiso   1.00
H492   H     0.71266   0.26022   0.89912   0.00000  Uiso   1.00
H493   H     0.78311   0.22835   0.73736   0.00000  Uiso   1.00
H494   H     0.88182   0.06472   0.80276   0.00000  Uiso   1.00
H495   H     0.60901   0.33380   0.98543   0.00000  Uiso   1.00
H496   H     0.75759   0.26657   0.64433   0.00000  Uiso   1.00
H497   H     0.96574   0.92154   0.78225   0.00000  Uiso   1.00
O498   O     0.49149   0.33856   0.00294   0.00000  Uiso   1.00
O499   O     0.68643   0.25036   0.55543   0.00000  Uiso   1.00
O500   O     0.95952   0.79768   0.73638   0.00000  Uiso   1.00
N501   N     0.52005   0.25401   0.91353   0.00000  Uiso   1.00
N502   N     0.65896   0.19117   0.59463   0.00000  Uiso   1.00
N503   N     0.85356   0.86858   0.72356   0.00000  Uiso   1.00
N504   N     0.58997   0.30255   0.95558   0.00000  Uiso   1.00
N505   N     0.72888   0.23971   0.63668   0.00000  Uiso   1.00
N506   N     0.92348   0.91713   0.76561   0.00000  Uiso   1.00
C507   C     0.16891   0.34121   0.81589   0.00000  Uiso   1.00
C508   C     0.17257   0.39905   0.86996   0.00000  Uiso   1.00
C509   C     0.14355   0.46930   0.88187   0.00000  Uiso   1.00
C510   C     0.15266   0.51394   0.93368   0.00000  Uiso   1.00
C511   C     0.15277   0.60751   0.01178   0.00000  Uiso   1.00
C512   C     0.24040   0.29290   0.79570   0.00000  Uiso   1.00
C513   C     0.26841   0.27390   0.74517   0.00000  Uiso   1.00
C514   C     0.33462   0.22918   0.73447   0.00000  Uiso   1.00
C515   C     0.44003   0.15792   0.69726   0.00000  Uiso   1.00
C516   C     0.14021   0.30039   0.83054   0.00000  Uiso   1.00
C517   C     0.08398   0.28768   0.80929   0.00000  Uiso   1.00
C518   C     0.06585   0.24924   0.82791   0.00000  Uiso   1.00
C519   C     0.01569   0.18962   0.84479   0.00000  Uiso   1.00
C520   C     0.23669   0.29555   0.88672   0.00000  Uiso   1.00
C521   C     0.20939   0.37424   0.90843   0.00000  Uiso   1.00
C522   C     0.21854   0.41878   0.96024   0.00000  Uiso   1.00
C523   C     0.18954   0.48909   0.97222   0.00000  Uiso   1.00
C524   C     0.27722   0.26810   0.83417   0.00000  Uiso   1.00
C525   C     0.34340   0.22339   0.82354   0.00000  Uiso   1.00
C526   C     0.37150   0.20433   0.77301   0.00000  Uiso   1.00
C527   C     0.17702   0.27559   0.86901   0.00000  Uiso   1.00
C528   C     0.15897   0.23716   0.88766   0.00000  Uiso   1.00
C529   C     0.10273   0.22439   0.86645   0.00000  Uiso   1.00
H530   H     0.14025   0.36052   0.78593   0.00000  Uiso   1.00
H531   H     0.11507   0.48847   0.85208   0.00000  Uiso   1.00
H532   H     0.23990   0.29310   0.71541   0.00000  Uiso   1.00
H533   H     0.05551   0.30688   0.77952   0.00000  Uiso   1.00
H534   H     0.10340   0.61940   0.94238   0.00000  Uiso   1.00
H535   H     0.36663   0.20743   0.65418   0.00000  Uiso   1.00
H536   H     0.97778   0.23647   0.78937   0.00000  Uiso   1.00
H537   H     0.26535   0.27624   0.91667   0.00000  Uiso   1.00
H538   H     0.24703   0.39958   0.99000   0.00000  Uiso   1.00
H539   H     0.37188   0.20420   0.85332   0.00000  Uiso   1.00
H540   H     0.18748   0.21798   0.91743   0.00000  Uiso   1.00
H541   H     0.21052   0.54725   0.05432   0.00000  Uiso   1.00
H542   H     0.47374   0.13527   0.76612   0.00000  Uiso   1.00
H543   H     0.08490   0.16432   0.90131   0.00000  Uiso   1.00
O544   O     0.14267   0.66598   0.04423   0.00000  Uiso   1.00
O545   O     0.48800   0.12547   0.66611   0.00000  Uiso   1.00
O546   O     0.97785   0.16359   0.84348   0.00000  Uiso   1.00
N547   N     0.13112   0.58549   0.95867   0.00000  Uiso   1.00
N548   N     0.37722   0.20033   0.68922   0.00000  Uiso   1.00
N549   N     0.01369   0.22747   0.81560   0.00000  Uiso   1.00
N550   N     0.18875   0.54667   0.01890   0.00000  Uiso   1.00
N551   N     0.43485   0.16151   0.74946   0.00000  Uiso   1.00
N552   N     0.07133   0.18865   0.87584   0.00000  Uiso   1.00
