data_job_01643
_audit_creation_date              2018-12-19
_audit_creation_method            'Materials Studio'
_symmetry_space_group_name_H-M    'P1'
_symmetry_Int_Tables_number       1
_symmetry_cell_setting            triclinic
loop_
_symmetry_equiv_pos_as_xyz
  x,y,z
_cell_length_a                    17.9498
_cell_length_b                    7.4625
_cell_length_c                    23.4956
_cell_angle_alpha                 90.0000
_cell_angle_beta                  51.0209
_cell_angle_gamma                 90.0000
loop_
_atom_site_label
_atom_site_type_symbol
_atom_site_fract_x
_atom_site_fract_y
_atom_site_fract_z
_atom_site_U_iso_or_equiv
_atom_site_adp_type
_atom_site_occupancy
C1     C     0.22498   0.11697   0.48398   0.00000  Uiso   1.00
C2     C     0.27864   0.98576   0.41998   0.00000  Uiso   1.00
C3     C     0.31336   0.02245   0.34919   0.00000  Uiso   1.00
C4     C     0.36047   0.88442   0.29850   0.00000  Uiso   1.00
C5     C     0.44194   0.70631   0.19617   0.00000  Uiso   1.00
C6     C     0.12991   0.02710   0.54416   0.00000  Uiso   1.00
C7     C     0.03958   0.09857   0.57778   0.00000  Uiso   1.00
C8     C     0.96149   0.99533   0.63162   0.00000  Uiso   1.00
C9     C     0.81206   0.88145   0.72212   0.00000  Uiso   1.00
C10    C     0.28141   0.12534   0.51238   0.00000  Uiso   1.00
C11    C     0.31843   0.27941   0.51930   0.00000  Uiso   1.00
C12    C     0.36788   0.25890   0.54641   0.00000  Uiso   1.00
C13    C     0.45366   0.29755   0.58756   0.00000  Uiso   1.00
C14    C     0.24692   0.80658   0.51984   0.00000  Uiso   1.00
C15    C     0.29055   0.81717   0.43946   0.00000  Uiso   1.00
C16    C     0.33763   0.67904   0.38886   0.00000  Uiso   1.00
C17    C     0.37241   0.71553   0.31801   0.00000  Uiso   1.00
C18    C     0.14183   0.85851   0.56364   0.00000  Uiso   1.00
C19    C     0.06385   0.75516   0.61745   0.00000  Uiso   1.00
C20    C     0.97343   0.82644   0.65114   0.00000  Uiso   1.00
C21    C     0.29333   0.95675   0.53185   0.00000  Uiso   1.00
C22    C     0.34271   0.93599   0.55897   0.00000  Uiso   1.00
C23    C     0.37981   0.09000   0.56592   0.00000  Uiso   1.00
H24    H     0.21569   0.24822   0.46882   0.00000  Uiso   1.00
H25    H     0.30411   0.15294   0.33414   0.00000  Uiso   1.00
H26    H     0.03038   0.22904   0.56270   0.00000  Uiso   1.00
H27    H     0.30920   0.40985   0.50422   0.00000  Uiso   1.00
H28    H     0.40736   0.97293   0.19342   0.00000  Uiso   1.00
H29    H     0.83019   0.13342   0.67536   0.00000  Uiso   1.00
H30    H     0.41812   0.51471   0.55205   0.00000  Uiso   1.00
H31    H     0.25619   0.67532   0.53501   0.00000  Uiso   1.00
H32    H     0.34684   0.54859   0.40395   0.00000  Uiso   1.00
H33    H     0.07310   0.62470   0.63251   0.00000  Uiso   1.00
H34    H     0.35192   0.80551   0.57403   0.00000  Uiso   1.00
H35    H     0.44204   0.48241   0.25008   0.00000  Uiso   1.00
H36    H     0.86486   0.64292   0.73203   0.00000  Uiso   1.00
H37    H     0.45280   0.02419   0.60871   0.00000  Uiso   1.00
O38    O     0.48357   0.65463   0.13435   0.00000  Uiso   1.00
O39    O     0.72634   0.86521   0.76665   0.00000  Uiso   1.00
O40    O     0.49770   0.36544   0.60487   0.00000  Uiso   1.00
N41    N     0.40310   0.87489   0.22474   0.00000  Uiso   1.00
N42    N     0.86348   0.02493   0.67531   0.00000  Uiso   1.00
N43    N     0.41312   0.38140   0.56005   0.00000  Uiso   1.00
N44    N     0.42176   0.61095   0.25523   0.00000  Uiso   1.00
N45    N     0.88214   0.76099   0.70580   0.00000  Uiso   1.00
N46    N     0.43178   0.11746   0.59054   0.00000  Uiso   1.00
C47    C     0.77502   0.61697   0.01602   0.00000  Uiso   1.00
C48    C     0.72136   0.48576   0.08002   0.00000  Uiso   1.00
C49    C     0.68664   0.52245   0.15081   0.00000  Uiso   1.00
C50    C     0.63953   0.38442   0.20150   0.00000  Uiso   1.00
C51    C     0.55806   0.20631   0.30383   0.00000  Uiso   1.00
C52    C     0.87009   0.52710   0.95584   0.00000  Uiso   1.00
C53    C     0.96042   0.59857   0.92222   0.00000  Uiso   1.00
C54    C     0.03851   0.49533   0.86838   0.00000  Uiso   1.00
C55    C     0.18794   0.38145   0.77788   0.00000  Uiso   1.00
C56    C     0.71859   0.62534   0.98762   0.00000  Uiso   1.00
C57    C     0.68157   0.77941   0.98070   0.00000  Uiso   1.00
C58    C     0.63212   0.75890   0.95359   0.00000  Uiso   1.00
C59    C     0.54634   0.79755   0.91244   0.00000  Uiso   1.00
C60    C     0.75308   0.30658   0.98016   0.00000  Uiso   1.00
C61    C     0.70945   0.31717   0.06054   0.00000  Uiso   1.00
C62    C     0.66237   0.17904   0.11114   0.00000  Uiso   1.00
C63    C     0.62759   0.21553   0.18199   0.00000  Uiso   1.00
C64    C     0.85817   0.35851   0.93636   0.00000  Uiso   1.00
C65    C     0.93615   0.25516   0.88255   0.00000  Uiso   1.00
C66    C     0.02657   0.32644   0.84886   0.00000  Uiso   1.00
C67    C     0.70667   0.45675   0.96815   0.00000  Uiso   1.00
C68    C     0.65729   0.43599   0.94103   0.00000  Uiso   1.00
C69    C     0.62019   0.59000   0.93408   0.00000  Uiso   1.00
H70    H     0.78431   0.74822   0.03118   0.00000  Uiso   1.00
H71    H     0.69589   0.65294   0.16586   0.00000  Uiso   1.00
H72    H     0.96962   0.72904   0.93730   0.00000  Uiso   1.00
H73    H     0.69080   0.90985   0.99578   0.00000  Uiso   1.00
H74    H     0.59264   0.47293   0.30658   0.00000  Uiso   1.00
H75    H     0.16981   0.63342   0.82464   0.00000  Uiso   1.00
H76    H     0.58188   0.01471   0.94795   0.00000  Uiso   1.00
H77    H     0.74381   0.17532   0.96499   0.00000  Uiso   1.00
H78    H     0.65316   0.04859   0.09605   0.00000  Uiso   1.00
H79    H     0.92690   0.12470   0.86749   0.00000  Uiso   1.00
H80    H     0.64808   0.30551   0.92597   0.00000  Uiso   1.00
H81    H     0.55796   0.98241   0.24992   0.00000  Uiso   1.00
H82    H     0.13514   0.14292   0.76797   0.00000  Uiso   1.00
H83    H     0.54720   0.52419   0.89129   0.00000  Uiso   1.00
O84    O     0.51643   0.15463   0.36565   0.00000  Uiso   1.00
O85    O     0.27366   0.36521   0.73335   0.00000  Uiso   1.00
O86    O     0.50230   0.86544   0.89513   0.00000  Uiso   1.00
N87    N     0.59690   0.37489   0.27526   0.00000  Uiso   1.00
N88    N     0.13652   0.52493   0.82469   0.00000  Uiso   1.00
N89    N     0.58688   0.88140   0.93995   0.00000  Uiso   1.00
N90    N     0.57824   0.11095   0.24477   0.00000  Uiso   1.00
N91    N     0.11786   0.26099   0.79420   0.00000  Uiso   1.00
N92    N     0.56822   0.61746   0.90946   0.00000  Uiso   1.00
C93    C     0.77502   0.88303   0.51602   0.00000  Uiso   1.00
C94    C     0.72136   0.01424   0.58002   0.00000  Uiso   1.00
C95    C     0.68664   0.97755   0.65081   0.00000  Uiso   1.00
C96    C     0.63953   0.11558   0.70150   0.00000  Uiso   1.00
C97    C     0.55806   0.29369   0.80383   0.00000  Uiso   1.00
C98    C     0.87009   0.97290   0.45584   0.00000  Uiso   1.00
C99    C     0.96042   0.90143   0.42222   0.00000  Uiso   1.00
C100   C     0.03851   0.00467   0.36838   0.00000  Uiso   1.00
C101   C     0.18794   0.11855   0.27788   0.00000  Uiso   1.00
C102   C     0.71859   0.87466   0.48762   0.00000  Uiso   1.00
C103   C     0.68157   0.72059   0.48070   0.00000  Uiso   1.00
C104   C     0.63212   0.74110   0.45359   0.00000  Uiso   1.00
C105   C     0.54634   0.70245   0.41244   0.00000  Uiso   1.00
C106   C     0.75308   0.19342   0.48016   0.00000  Uiso   1.00
C107   C     0.70945   0.18283   0.56054   0.00000  Uiso   1.00
C108   C     0.66237   0.32096   0.61114   0.00000  Uiso   1.00
C109   C     0.62759   0.28447   0.68199   0.00000  Uiso   1.00
C110   C     0.85817   0.14149   0.43636   0.00000  Uiso   1.00
C111   C     0.93615   0.24484   0.38255   0.00000  Uiso   1.00
C112   C     0.02657   0.17356   0.34886   0.00000  Uiso   1.00
C113   C     0.70667   0.04325   0.46815   0.00000  Uiso   1.00
C114   C     0.65729   0.06401   0.44103   0.00000  Uiso   1.00
C115   C     0.62019   0.91000   0.43408   0.00000  Uiso   1.00
H116   H     0.78431   0.75178   0.53118   0.00000  Uiso   1.00
H117   H     0.69589   0.84706   0.66586   0.00000  Uiso   1.00
H118   H     0.96962   0.77096   0.43730   0.00000  Uiso   1.00
H119   H     0.69080   0.59015   0.49578   0.00000  Uiso   1.00
H120   H     0.59264   0.02707   0.80658   0.00000  Uiso   1.00
H121   H     0.16981   0.86658   0.32464   0.00000  Uiso   1.00
H122   H     0.58188   0.48529   0.44795   0.00000  Uiso   1.00
H123   H     0.74381   0.32468   0.46499   0.00000  Uiso   1.00
H124   H     0.65316   0.45141   0.59605   0.00000  Uiso   1.00
H125   H     0.92690   0.37530   0.36749   0.00000  Uiso   1.00
H126   H     0.64808   0.19449   0.42597   0.00000  Uiso   1.00
H127   H     0.55796   0.51759   0.74992   0.00000  Uiso   1.00
H128   H     0.13514   0.35708   0.26797   0.00000  Uiso   1.00
H129   H     0.54720   0.97581   0.39129   0.00000  Uiso   1.00
O130   O     0.51643   0.34537   0.86565   0.00000  Uiso   1.00
O131   O     0.27366   0.13479   0.23335   0.00000  Uiso   1.00
O132   O     0.50230   0.63456   0.39513   0.00000  Uiso   1.00
N133   N     0.59690   0.12511   0.77526   0.00000  Uiso   1.00
N134   N     0.13652   0.97507   0.32469   0.00000  Uiso   1.00
N135   N     0.58688   0.61860   0.43995   0.00000  Uiso   1.00
N136   N     0.57824   0.38905   0.74477   0.00000  Uiso   1.00
N137   N     0.11786   0.23901   0.29420   0.00000  Uiso   1.00
N138   N     0.56822   0.88254   0.40946   0.00000  Uiso   1.00
C139   C     0.22498   0.38303   0.98398   0.00000  Uiso   1.00
C140   C     0.27864   0.51424   0.91998   0.00000  Uiso   1.00
C141   C     0.31336   0.47755   0.84919   0.00000  Uiso   1.00
C142   C     0.36047   0.61558   0.79850   0.00000  Uiso   1.00
C143   C     0.44194   0.79369   0.69617   0.00000  Uiso   1.00
C144   C     0.12991   0.47290   0.04416   0.00000  Uiso   1.00
C145   C     0.03958   0.40143   0.07778   0.00000  Uiso   1.00
C146   C     0.96149   0.50467   0.13162   0.00000  Uiso   1.00
C147   C     0.81206   0.61855   0.22212   0.00000  Uiso   1.00
C148   C     0.28141   0.37466   0.01238   0.00000  Uiso   1.00
C149   C     0.31843   0.22059   0.01930   0.00000  Uiso   1.00
C150   C     0.36788   0.24110   0.04641   0.00000  Uiso   1.00
C151   C     0.45366   0.20245   0.08756   0.00000  Uiso   1.00
C152   C     0.24692   0.69342   0.01984   0.00000  Uiso   1.00
C153   C     0.29055   0.68283   0.93946   0.00000  Uiso   1.00
C154   C     0.33763   0.82096   0.88886   0.00000  Uiso   1.00
C155   C     0.37241   0.78447   0.81801   0.00000  Uiso   1.00
C156   C     0.14183   0.64149   0.06364   0.00000  Uiso   1.00
C157   C     0.06385   0.74484   0.11745   0.00000  Uiso   1.00
C158   C     0.97343   0.67356   0.15114   0.00000  Uiso   1.00
C159   C     0.29333   0.54325   0.03185   0.00000  Uiso   1.00
C160   C     0.34271   0.56401   0.05897   0.00000  Uiso   1.00
C161   C     0.37981   0.41000   0.06592   0.00000  Uiso   1.00
H162   H     0.21569   0.25178   0.96882   0.00000  Uiso   1.00
H163   H     0.30411   0.34706   0.83414   0.00000  Uiso   1.00
H164   H     0.03038   0.27096   0.06270   0.00000  Uiso   1.00
H165   H     0.30920   0.09015   0.00422   0.00000  Uiso   1.00
H166   H     0.40736   0.52707   0.69342   0.00000  Uiso   1.00
H167   H     0.83019   0.36658   0.17536   0.00000  Uiso   1.00
H168   H     0.41812   0.98529   0.05205   0.00000  Uiso   1.00
H169   H     0.25619   0.82468   0.03501   0.00000  Uiso   1.00
H170   H     0.34684   0.95141   0.90395   0.00000  Uiso   1.00
H171   H     0.07310   0.87530   0.13251   0.00000  Uiso   1.00
H172   H     0.35192   0.69449   0.07403   0.00000  Uiso   1.00
H173   H     0.44204   0.01759   0.75008   0.00000  Uiso   1.00
H174   H     0.86486   0.85708   0.23203   0.00000  Uiso   1.00
H175   H     0.45280   0.47581   0.10871   0.00000  Uiso   1.00
O176   O     0.48357   0.84537   0.63435   0.00000  Uiso   1.00
O177   O     0.72634   0.63479   0.26665   0.00000  Uiso   1.00
O178   O     0.49770   0.13456   0.10487   0.00000  Uiso   1.00
N179   N     0.40310   0.62511   0.72474   0.00000  Uiso   1.00
N180   N     0.86348   0.47507   0.17531   0.00000  Uiso   1.00
N181   N     0.41312   0.11860   0.06005   0.00000  Uiso   1.00
N182   N     0.42176   0.88905   0.75523   0.00000  Uiso   1.00
N183   N     0.88214   0.73901   0.20580   0.00000  Uiso   1.00
N184   N     0.43178   0.38254   0.09054   0.00000  Uiso   1.00
