data_job_02324
_audit_creation_date              2018-12-19
_audit_creation_method            'Materials Studio'
_symmetry_space_group_name_H-M    'P1'
_symmetry_Int_Tables_number       1
_symmetry_cell_setting            triclinic
loop_
_symmetry_equiv_pos_as_xyz
  x,y,z
_cell_length_a                    23.0196
_cell_length_b                    10.3501
_cell_length_c                    40.4809
_cell_angle_alpha                 90.0000
_cell_angle_beta                  148.5365
_cell_angle_gamma                 90.0000
loop_
_atom_site_label
_atom_site_type_symbol
_atom_site_fract_x
_atom_site_fract_y
_atom_site_fract_z
_atom_site_U_iso_or_equiv
_atom_site_adp_type
_atom_site_occupancy
C1     C     0.22452   0.74803   0.33874   0.00000  Uiso   1.00
C2     C     0.33072   0.71025   0.37202   0.00000  Uiso   1.00
C3     C     0.41170   0.79503   0.40000   0.00000  Uiso   1.00
C4     C     0.50265   0.74139   0.42802   0.00000  Uiso   1.00
C5     C     0.66608   0.70307   0.47967   0.00000  Uiso   1.00
C6     C     0.12867   0.69182   0.27217   0.00000  Uiso   1.00
C7     C     0.03976   0.76111   0.21619   0.00000  Uiso   1.00
C8     C     0.96063   0.69194   0.16014   0.00000  Uiso   1.00
C9     C     0.81033   0.62499   0.05677   0.00000  Uiso   1.00
C10    C     0.22617   0.67340   0.37202   0.00000  Uiso   1.00
C11    C     0.21922   0.72719   0.39998   0.00000  Uiso   1.00
C12    C     0.22215   0.64251   0.42799   0.00000  Uiso   1.00
C13    C     0.22324   0.54696   0.47965   0.00000  Uiso   1.00
C14    C     0.24205   0.50199   0.33874   0.00000  Uiso   1.00
C15    C     0.34024   0.57662   0.37202   0.00000  Uiso   1.00
C16    C     0.43110   0.52282   0.40000   0.00000  Uiso   1.00
C17    C     0.51220   0.60751   0.42802   0.00000  Uiso   1.00
C18    C     0.13819   0.55819   0.27217   0.00000  Uiso   1.00
C19    C     0.05917   0.48890   0.21619   0.00000  Uiso   1.00
C20    C     0.97017   0.55806   0.16014   0.00000  Uiso   1.00
C21    C     0.23570   0.53976   0.37202   0.00000  Uiso   1.00
C22    C     0.23863   0.45498   0.39998   0.00000  Uiso   1.00
C23    C     0.23168   0.50863   0.42799   0.00000  Uiso   1.00
H24    H     0.21710   0.85207   0.33873   0.00000  Uiso   1.00
H25    H     0.40429   0.89845   0.39999   0.00000  Uiso   1.00
H26    H     0.03241   0.86452   0.21620   0.00000  Uiso   1.00
H27    H     0.21185   0.83061   0.39997   0.00000  Uiso   1.00
H28    H     0.61601   0.89094   0.46788   0.00000  Uiso   1.00
H29    H     0.83187   0.81940   0.08036   0.00000  Uiso   1.00
H30    H     0.21023   0.74789   0.46786   0.00000  Uiso   1.00
H31    H     0.24946   0.39794   0.33874   0.00000  Uiso   1.00
H32    H     0.43844   0.41940   0.40000   0.00000  Uiso   1.00
H33    H     0.06656   0.38548   0.21621   0.00000  Uiso   1.00
H34    H     0.24600   0.35157   0.39997   0.00000  Uiso   1.00
H35    H     0.64373   0.50213   0.46788   0.00000  Uiso   1.00
H36    H     0.85958   0.43059   0.08036   0.00000  Uiso   1.00
H37    H     0.23795   0.35908   0.46787   0.00000  Uiso   1.00
O38    O     0.75358   0.71885   0.50816   0.00000  Uiso   1.00
O39    O     0.72481   0.62499   0.99975   0.00000  Uiso   1.00
O40    O     0.22122   0.53118   0.50815   0.00000  Uiso   1.00
N41    N     0.59661   0.79649   0.45948   0.00000  Uiso   1.00
N42    N     0.86349   0.72960   0.09718   0.00000  Uiso   1.00
N43    N     0.21720   0.66275   0.45944   0.00000  Uiso   1.00
N44    N     0.61152   0.58727   0.45949   0.00000  Uiso   1.00
N45    N     0.87841   0.52039   0.09718   0.00000  Uiso   1.00
N46    N     0.23212   0.45353   0.45945   0.00000  Uiso   1.00
C47    C     0.72452   0.24803   0.33874   0.00000  Uiso   1.00
C48    C     0.83072   0.21025   0.37202   0.00000  Uiso   1.00
C49    C     0.91170   0.29503   0.40000   0.00000  Uiso   1.00
C50    C     0.00265   0.24139   0.42802   0.00000  Uiso   1.00
C51    C     0.16608   0.20307   0.47967   0.00000  Uiso   1.00
C52    C     0.62867   0.19182   0.27217   0.00000  Uiso   1.00
C53    C     0.53976   0.26111   0.21619   0.00000  Uiso   1.00
C54    C     0.46063   0.19194   0.16014   0.00000  Uiso   1.00
C55    C     0.31033   0.12499   0.05677   0.00000  Uiso   1.00
C56    C     0.72617   0.17340   0.37202   0.00000  Uiso   1.00
C57    C     0.71922   0.22719   0.39998   0.00000  Uiso   1.00
C58    C     0.72215   0.14251   0.42799   0.00000  Uiso   1.00
C59    C     0.72324   0.04696   0.47965   0.00000  Uiso   1.00
C60    C     0.74205   0.00199   0.33874   0.00000  Uiso   1.00
C61    C     0.84024   0.07662   0.37202   0.00000  Uiso   1.00
C62    C     0.93110   0.02282   0.40000   0.00000  Uiso   1.00
C63    C     0.01220   0.10751   0.42802   0.00000  Uiso   1.00
C64    C     0.63819   0.05819   0.27217   0.00000  Uiso   1.00
C65    C     0.55917   0.98890   0.21619   0.00000  Uiso   1.00
C66    C     0.47017   0.05806   0.16014   0.00000  Uiso   1.00
C67    C     0.73570   0.03976   0.37202   0.00000  Uiso   1.00
C68    C     0.73863   0.95498   0.39998   0.00000  Uiso   1.00
C69    C     0.73168   0.00863   0.42799   0.00000  Uiso   1.00
H70    H     0.71710   0.35207   0.33873   0.00000  Uiso   1.00
H71    H     0.90429   0.39845   0.39999   0.00000  Uiso   1.00
H72    H     0.53241   0.36452   0.21620   0.00000  Uiso   1.00
H73    H     0.71185   0.33061   0.39997   0.00000  Uiso   1.00
H74    H     0.11601   0.39094   0.46788   0.00000  Uiso   1.00
H75    H     0.33187   0.31940   0.08036   0.00000  Uiso   1.00
H76    H     0.71023   0.24789   0.46786   0.00000  Uiso   1.00
H77    H     0.74946   0.89794   0.33874   0.00000  Uiso   1.00
H78    H     0.93844   0.91940   0.40000   0.00000  Uiso   1.00
H79    H     0.56656   0.88548   0.21621   0.00000  Uiso   1.00
H80    H     0.74600   0.85157   0.39997   0.00000  Uiso   1.00
H81    H     0.14373   0.00213   0.46788   0.00000  Uiso   1.00
H82    H     0.35958   0.93059   0.08036   0.00000  Uiso   1.00
H83    H     0.73795   0.85908   0.46787   0.00000  Uiso   1.00
O84    O     0.25358   0.21885   0.50816   0.00000  Uiso   1.00
O85    O     0.22481   0.12499   0.99975   0.00000  Uiso   1.00
O86    O     0.72122   0.03118   0.50815   0.00000  Uiso   1.00
N87    N     0.09661   0.29649   0.45948   0.00000  Uiso   1.00
N88    N     0.36349   0.22960   0.09718   0.00000  Uiso   1.00
N89    N     0.71720   0.16275   0.45944   0.00000  Uiso   1.00
N90    N     0.11152   0.08727   0.45949   0.00000  Uiso   1.00
N91    N     0.37841   0.02039   0.09718   0.00000  Uiso   1.00
N92    N     0.73212   0.95353   0.45945   0.00000  Uiso   1.00
C93    C     0.22452   0.25197   0.83874   0.00000  Uiso   1.00
C94    C     0.33072   0.28975   0.87202   0.00000  Uiso   1.00
C95    C     0.41170   0.20497   0.90000   0.00000  Uiso   1.00
C96    C     0.50265   0.25861   0.92802   0.00000  Uiso   1.00
C97    C     0.66608   0.29693   0.97967   0.00000  Uiso   1.00
C98    C     0.12867   0.30818   0.77217   0.00000  Uiso   1.00
C99    C     0.03976   0.23889   0.71619   0.00000  Uiso   1.00
C100   C     0.96063   0.30806   0.66014   0.00000  Uiso   1.00
C101   C     0.81033   0.37501   0.55677   0.00000  Uiso   1.00
C102   C     0.22617   0.32660   0.87202   0.00000  Uiso   1.00
C103   C     0.21922   0.27281   0.89998   0.00000  Uiso   1.00
C104   C     0.22215   0.35749   0.92799   0.00000  Uiso   1.00
C105   C     0.22324   0.45304   0.97965   0.00000  Uiso   1.00
C106   C     0.24205   0.49801   0.83874   0.00000  Uiso   1.00
C107   C     0.34024   0.42338   0.87202   0.00000  Uiso   1.00
C108   C     0.43110   0.47718   0.90000   0.00000  Uiso   1.00
C109   C     0.51220   0.39249   0.92802   0.00000  Uiso   1.00
C110   C     0.13819   0.44181   0.77217   0.00000  Uiso   1.00
C111   C     0.05917   0.51110   0.71619   0.00000  Uiso   1.00
C112   C     0.97017   0.44194   0.66014   0.00000  Uiso   1.00
C113   C     0.23570   0.46024   0.87202   0.00000  Uiso   1.00
C114   C     0.23863   0.54502   0.89998   0.00000  Uiso   1.00
C115   C     0.23168   0.49137   0.92799   0.00000  Uiso   1.00
H116   H     0.21710   0.14793   0.83873   0.00000  Uiso   1.00
H117   H     0.40429   0.10155   0.89999   0.00000  Uiso   1.00
H118   H     0.03241   0.13548   0.71620   0.00000  Uiso   1.00
H119   H     0.21185   0.16939   0.89997   0.00000  Uiso   1.00
H120   H     0.61601   0.10906   0.96788   0.00000  Uiso   1.00
H121   H     0.83187   0.18060   0.58036   0.00000  Uiso   1.00
H122   H     0.21023   0.25211   0.96786   0.00000  Uiso   1.00
H123   H     0.24946   0.60206   0.83874   0.00000  Uiso   1.00
H124   H     0.43844   0.58060   0.90000   0.00000  Uiso   1.00
H125   H     0.06656   0.61452   0.71621   0.00000  Uiso   1.00
H126   H     0.24600   0.64843   0.89997   0.00000  Uiso   1.00
H127   H     0.64373   0.49787   0.96788   0.00000  Uiso   1.00
H128   H     0.85958   0.56941   0.58036   0.00000  Uiso   1.00
H129   H     0.23795   0.64092   0.96787   0.00000  Uiso   1.00
O130   O     0.75358   0.28115   0.00816   0.00000  Uiso   1.00
O131   O     0.72481   0.37501   0.49975   0.00000  Uiso   1.00
O132   O     0.22122   0.46882   0.00815   0.00000  Uiso   1.00
N133   N     0.59661   0.20351   0.95948   0.00000  Uiso   1.00
N134   N     0.86349   0.27040   0.59718   0.00000  Uiso   1.00
N135   N     0.21720   0.33725   0.95944   0.00000  Uiso   1.00
N136   N     0.61152   0.41273   0.95949   0.00000  Uiso   1.00
N137   N     0.87841   0.47961   0.59718   0.00000  Uiso   1.00
N138   N     0.23212   0.54647   0.95945   0.00000  Uiso   1.00
C139   C     0.72452   0.75197   0.83874   0.00000  Uiso   1.00
C140   C     0.83072   0.78975   0.87202   0.00000  Uiso   1.00
C141   C     0.91170   0.70497   0.90000   0.00000  Uiso   1.00
C142   C     0.00265   0.75861   0.92802   0.00000  Uiso   1.00
C143   C     0.16608   0.79693   0.97967   0.00000  Uiso   1.00
C144   C     0.62867   0.80818   0.77217   0.00000  Uiso   1.00
C145   C     0.53976   0.73889   0.71619   0.00000  Uiso   1.00
C146   C     0.46063   0.80806   0.66014   0.00000  Uiso   1.00
C147   C     0.31033   0.87501   0.55677   0.00000  Uiso   1.00
C148   C     0.72617   0.82660   0.87202   0.00000  Uiso   1.00
C149   C     0.71922   0.77281   0.89998   0.00000  Uiso   1.00
C150   C     0.72215   0.85749   0.92799   0.00000  Uiso   1.00
C151   C     0.72324   0.95304   0.97965   0.00000  Uiso   1.00
C152   C     0.74205   0.99801   0.83874   0.00000  Uiso   1.00
C153   C     0.84024   0.92338   0.87202   0.00000  Uiso   1.00
C154   C     0.93110   0.97718   0.90000   0.00000  Uiso   1.00
C155   C     0.01220   0.89249   0.92802   0.00000  Uiso   1.00
C156   C     0.63819   0.94181   0.77217   0.00000  Uiso   1.00
C157   C     0.55917   0.01110   0.71619   0.00000  Uiso   1.00
C158   C     0.47017   0.94194   0.66014   0.00000  Uiso   1.00
C159   C     0.73570   0.96024   0.87202   0.00000  Uiso   1.00
C160   C     0.73863   0.04502   0.89998   0.00000  Uiso   1.00
C161   C     0.73168   0.99137   0.92799   0.00000  Uiso   1.00
H162   H     0.71710   0.64793   0.83873   0.00000  Uiso   1.00
H163   H     0.90429   0.60155   0.89999   0.00000  Uiso   1.00
H164   H     0.53241   0.63548   0.71620   0.00000  Uiso   1.00
H165   H     0.71185   0.66939   0.89997   0.00000  Uiso   1.00
H166   H     0.11601   0.60906   0.96788   0.00000  Uiso   1.00
H167   H     0.33187   0.68060   0.58036   0.00000  Uiso   1.00
H168   H     0.71023   0.75211   0.96786   0.00000  Uiso   1.00
H169   H     0.74946   0.10206   0.83874   0.00000  Uiso   1.00
H170   H     0.93844   0.08060   0.90000   0.00000  Uiso   1.00
H171   H     0.56656   0.11452   0.71621   0.00000  Uiso   1.00
H172   H     0.74600   0.14843   0.89997   0.00000  Uiso   1.00
H173   H     0.14373   0.99787   0.96788   0.00000  Uiso   1.00
H174   H     0.35958   0.06941   0.58036   0.00000  Uiso   1.00
H175   H     0.73795   0.14092   0.96787   0.00000  Uiso   1.00
O176   O     0.25358   0.78115   0.00816   0.00000  Uiso   1.00
O177   O     0.22481   0.87501   0.49975   0.00000  Uiso   1.00
O178   O     0.72122   0.96882   0.00815   0.00000  Uiso   1.00
N179   N     0.09661   0.70351   0.95948   0.00000  Uiso   1.00
N180   N     0.36349   0.77040   0.59718   0.00000  Uiso   1.00
N181   N     0.71720   0.83725   0.95944   0.00000  Uiso   1.00
N182   N     0.11152   0.91273   0.95949   0.00000  Uiso   1.00
N183   N     0.37841   0.97961   0.59718   0.00000  Uiso   1.00
N184   N     0.73212   0.04647   0.95945   0.00000  Uiso   1.00
