data_job_03828
_audit_creation_date              2018-12-19
_audit_creation_method            'Materials Studio'
_symmetry_space_group_name_H-M    'P1'
_symmetry_Int_Tables_number       1
_symmetry_cell_setting            triclinic
loop_
_symmetry_equiv_pos_as_xyz
  x,y,z
_cell_length_a                    9.9831
_cell_length_b                    16.5043
_cell_length_c                    20.4253
_cell_angle_alpha                 90.0000
_cell_angle_beta                  127.4618
_cell_angle_gamma                 90.0000
loop_
_atom_site_label
_atom_site_type_symbol
_atom_site_fract_x
_atom_site_fract_y
_atom_site_fract_z
_atom_site_U_iso_or_equiv
_atom_site_adp_type
_atom_site_occupancy
C1     C     0.38053   0.37100   0.28841   0.00000  Uiso   1.00
C2     C     0.26454   0.37764   0.19460   0.00000  Uiso   1.00
C3     C     0.31373   0.39923   0.14639   0.00000  Uiso   1.00
C4     C     0.18856   0.40183   0.06166   0.00000  Uiso   1.00
C5     C     0.03403   0.41497   0.92135   0.00000  Uiso   1.00
C6     C     0.30634   0.42709   0.31824   0.00000  Uiso   1.00
C7     C     0.39070   0.49025   0.37399   0.00000  Uiso   1.00
C8     C     0.30073   0.53448   0.39335   0.00000  Uiso   1.00
C9     C     0.21114   0.62436   0.44502   0.00000  Uiso   1.00
C10    C     0.35844   0.28513   0.30803   0.00000  Uiso   1.00
C11    C     0.48660   0.22894   0.35523   0.00000  Uiso   1.00
C12    C     0.44049   0.15364   0.36601   0.00000  Uiso   1.00
C13    C     0.43179   0.02311   0.40185   0.00000  Uiso   1.00
C14    C     0.07077   0.33722   0.22367   0.00000  Uiso   1.00
C15    C     0.09629   0.35929   0.15943   0.00000  Uiso   1.00
C16    C     0.97101   0.36186   0.07475   0.00000  Uiso   1.00
C17    C     0.02001   0.38345   0.02643   0.00000  Uiso   1.00
C18    C     0.13810   0.40875   0.28307   0.00000  Uiso   1.00
C19    C     0.04799   0.45288   0.30235   0.00000  Uiso   1.00
C20    C     0.13218   0.51610   0.35811   0.00000  Uiso   1.00
C21    C     0.19019   0.26678   0.27286   0.00000  Uiso   1.00
C22    C     0.14388   0.19157   0.28359   0.00000  Uiso   1.00
C23    C     0.27194   0.13527   0.33078   0.00000  Uiso   1.00
H24    H     0.51152   0.38529   0.31580   0.00000  Uiso   1.00
H25    H     0.44395   0.41343   0.17363   0.00000  Uiso   1.00
H26    H     0.52090   0.50443   0.40120   0.00000  Uiso   1.00
H27    H     0.61678   0.24315   0.38244   0.00000  Uiso   1.00
H28    H     0.29482   0.43657   0.00051   0.00000  Uiso   1.00
H29    H     0.45711   0.62844   0.48037   0.00000  Uiso   1.00
H30    H     0.65929   0.07748   0.44081   0.00000  Uiso   1.00
H31    H     0.93978   0.32294   0.19628   0.00000  Uiso   1.00
H32    H     0.84082   0.34766   0.04756   0.00000  Uiso   1.00
H33    H     0.91779   0.43867   0.27513   0.00000  Uiso   1.00
H34    H     0.01366   0.17739   0.25636   0.00000  Uiso   1.00
H35    H     0.80530   0.38319   0.89818   0.00000  Uiso   1.00
H36    H     0.96760   0.57506   0.37805   0.00000  Uiso   1.00
H37    H     0.16977   0.02411   0.33848   0.00000  Uiso   1.00
O38    O     0.99527   0.42729   0.85367   0.00000  Uiso   1.00
O39    O     0.20821   0.67901   0.48324   0.00000  Uiso   1.00
O40    O     0.47346   0.95617   0.43133   0.00000  Uiso   1.00
N41    N     0.19319   0.42060   0.99684   0.00000  Uiso   1.00
N42    N     0.34492   0.59999   0.44547   0.00000  Uiso   1.00
N43    N     0.53395   0.08490   0.40850   0.00000  Uiso   1.00
N44    N     0.92979   0.39188   0.94177   0.00000  Uiso   1.00
N45    N     0.08152   0.57127   0.39041   0.00000  Uiso   1.00
N46    N     0.27054   0.05618   0.35344   0.00000  Uiso   1.00
C47    C     0.61947   0.87100   0.21159   0.00000  Uiso   1.00
C48    C     0.73546   0.87764   0.30540   0.00000  Uiso   1.00
C49    C     0.68627   0.89923   0.35361   0.00000  Uiso   1.00
C50    C     0.81144   0.90183   0.43834   0.00000  Uiso   1.00
C51    C     0.96597   0.91497   0.57865   0.00000  Uiso   1.00
C52    C     0.69366   0.92709   0.18176   0.00000  Uiso   1.00
C53    C     0.60930   0.99025   0.12601   0.00000  Uiso   1.00
C54    C     0.69927   0.03448   0.10665   0.00000  Uiso   1.00
C55    C     0.78886   0.12436   0.05498   0.00000  Uiso   1.00
C56    C     0.64156   0.78513   0.19197   0.00000  Uiso   1.00
C57    C     0.51340   0.72894   0.14477   0.00000  Uiso   1.00
C58    C     0.55951   0.65364   0.13399   0.00000  Uiso   1.00
C59    C     0.56821   0.52311   0.09815   0.00000  Uiso   1.00
C60    C     0.92923   0.83722   0.27633   0.00000  Uiso   1.00
C61    C     0.90371   0.85929   0.34057   0.00000  Uiso   1.00
C62    C     0.02899   0.86186   0.42525   0.00000  Uiso   1.00
C63    C     0.97999   0.88345   0.47357   0.00000  Uiso   1.00
C64    C     0.86190   0.90875   0.21693   0.00000  Uiso   1.00
C65    C     0.95201   0.95288   0.19765   0.00000  Uiso   1.00
C66    C     0.86782   0.01610   0.14189   0.00000  Uiso   1.00
C67    C     0.80981   0.76678   0.22714   0.00000  Uiso   1.00
C68    C     0.85612   0.69157   0.21641   0.00000  Uiso   1.00
C69    C     0.72806   0.63527   0.16922   0.00000  Uiso   1.00
H70    H     0.48848   0.88529   0.18420   0.00000  Uiso   1.00
H71    H     0.55605   0.91343   0.32637   0.00000  Uiso   1.00
H72    H     0.47910   0.00443   0.09880   0.00000  Uiso   1.00
H73    H     0.38322   0.74315   0.11756   0.00000  Uiso   1.00
H74    H     0.70518   0.93657   0.49949   0.00000  Uiso   1.00
H75    H     0.54289   0.12844   0.01963   0.00000  Uiso   1.00
H76    H     0.34071   0.57748   0.05919   0.00000  Uiso   1.00
H77    H     0.06022   0.82294   0.30372   0.00000  Uiso   1.00
H78    H     0.15918   0.84766   0.45244   0.00000  Uiso   1.00
H79    H     0.08221   0.93867   0.22487   0.00000  Uiso   1.00
H80    H     0.98634   0.67739   0.24364   0.00000  Uiso   1.00
H81    H     0.19470   0.88319   0.60182   0.00000  Uiso   1.00
H82    H     0.03240   0.07506   0.12195   0.00000  Uiso   1.00
H83    H     0.83023   0.52411   0.16152   0.00000  Uiso   1.00
O84    O     0.00473   0.92729   0.64633   0.00000  Uiso   1.00
O85    O     0.79179   0.17901   0.01676   0.00000  Uiso   1.00
O86    O     0.52654   0.45617   0.06867   0.00000  Uiso   1.00
N87    N     0.80681   0.92060   0.50316   0.00000  Uiso   1.00
N88    N     0.65508   0.09999   0.05453   0.00000  Uiso   1.00
N89    N     0.46605   0.58490   0.09150   0.00000  Uiso   1.00
N90    N     0.07021   0.89188   0.55823   0.00000  Uiso   1.00
N91    N     0.91848   0.07127   0.10959   0.00000  Uiso   1.00
N92    N     0.72946   0.55618   0.14656   0.00000  Uiso   1.00
C93    C     0.61947   0.62900   0.71159   0.00000  Uiso   1.00
C94    C     0.73546   0.62236   0.80540   0.00000  Uiso   1.00
C95    C     0.68627   0.60077   0.85361   0.00000  Uiso   1.00
C96    C     0.81144   0.59817   0.93834   0.00000  Uiso   1.00
C97    C     0.96597   0.58503   0.07865   0.00000  Uiso   1.00
C98    C     0.69366   0.57291   0.68176   0.00000  Uiso   1.00
C99    C     0.60930   0.50975   0.62601   0.00000  Uiso   1.00
C100   C     0.69927   0.46552   0.60665   0.00000  Uiso   1.00
C101   C     0.78886   0.37564   0.55498   0.00000  Uiso   1.00
C102   C     0.64156   0.71487   0.69197   0.00000  Uiso   1.00
C103   C     0.51340   0.77106   0.64477   0.00000  Uiso   1.00
C104   C     0.55951   0.84636   0.63399   0.00000  Uiso   1.00
C105   C     0.56821   0.97689   0.59815   0.00000  Uiso   1.00
C106   C     0.92923   0.66278   0.77633   0.00000  Uiso   1.00
C107   C     0.90371   0.64071   0.84057   0.00000  Uiso   1.00
C108   C     0.02899   0.63814   0.92525   0.00000  Uiso   1.00
C109   C     0.97999   0.61655   0.97357   0.00000  Uiso   1.00
C110   C     0.86190   0.59125   0.71693   0.00000  Uiso   1.00
C111   C     0.95201   0.54712   0.69765   0.00000  Uiso   1.00
C112   C     0.86782   0.48390   0.64189   0.00000  Uiso   1.00
C113   C     0.80981   0.73322   0.72714   0.00000  Uiso   1.00
C114   C     0.85612   0.80843   0.71641   0.00000  Uiso   1.00
C115   C     0.72806   0.86473   0.66922   0.00000  Uiso   1.00
H116   H     0.48848   0.61471   0.68420   0.00000  Uiso   1.00
H117   H     0.55605   0.58657   0.82637   0.00000  Uiso   1.00
H118   H     0.47910   0.49557   0.59880   0.00000  Uiso   1.00
H119   H     0.38322   0.75685   0.61756   0.00000  Uiso   1.00
H120   H     0.70518   0.56343   0.99949   0.00000  Uiso   1.00
H121   H     0.54289   0.37156   0.51963   0.00000  Uiso   1.00
H122   H     0.34071   0.92252   0.55919   0.00000  Uiso   1.00
H123   H     0.06022   0.67706   0.80372   0.00000  Uiso   1.00
H124   H     0.15918   0.65234   0.95244   0.00000  Uiso   1.00
H125   H     0.08221   0.56133   0.72487   0.00000  Uiso   1.00
H126   H     0.98634   0.82261   0.74364   0.00000  Uiso   1.00
H127   H     0.19470   0.61681   0.10182   0.00000  Uiso   1.00
H128   H     0.03240   0.42494   0.62195   0.00000  Uiso   1.00
H129   H     0.83023   0.97589   0.66152   0.00000  Uiso   1.00
O130   O     0.00473   0.57271   0.14633   0.00000  Uiso   1.00
O131   O     0.79179   0.32099   0.51676   0.00000  Uiso   1.00
O132   O     0.52654   0.04383   0.56867   0.00000  Uiso   1.00
N133   N     0.80681   0.57940   0.00316   0.00000  Uiso   1.00
N134   N     0.65508   0.40001   0.55453   0.00000  Uiso   1.00
N135   N     0.46605   0.91510   0.59150   0.00000  Uiso   1.00
N136   N     0.07021   0.60812   0.05823   0.00000  Uiso   1.00
N137   N     0.91848   0.42873   0.60959   0.00000  Uiso   1.00
N138   N     0.72946   0.94382   0.64656   0.00000  Uiso   1.00
C139   C     0.38053   0.12900   0.78841   0.00000  Uiso   1.00
C140   C     0.26454   0.12236   0.69460   0.00000  Uiso   1.00
C141   C     0.31373   0.10077   0.64639   0.00000  Uiso   1.00
C142   C     0.18856   0.09817   0.56166   0.00000  Uiso   1.00
C143   C     0.03403   0.08503   0.42135   0.00000  Uiso   1.00
C144   C     0.30634   0.07291   0.81824   0.00000  Uiso   1.00
C145   C     0.39070   0.00975   0.87399   0.00000  Uiso   1.00
C146   C     0.30073   0.96552   0.89335   0.00000  Uiso   1.00
C147   C     0.21114   0.87564   0.94502   0.00000  Uiso   1.00
C148   C     0.35844   0.21487   0.80803   0.00000  Uiso   1.00
C149   C     0.48660   0.27106   0.85523   0.00000  Uiso   1.00
C150   C     0.44049   0.34636   0.86601   0.00000  Uiso   1.00
C151   C     0.43179   0.47689   0.90185   0.00000  Uiso   1.00
C152   C     0.07077   0.16278   0.72367   0.00000  Uiso   1.00
C153   C     0.09629   0.14071   0.65943   0.00000  Uiso   1.00
C154   C     0.97101   0.13814   0.57475   0.00000  Uiso   1.00
C155   C     0.02001   0.11655   0.52643   0.00000  Uiso   1.00
C156   C     0.13810   0.09125   0.78307   0.00000  Uiso   1.00
C157   C     0.04799   0.04712   0.80235   0.00000  Uiso   1.00
C158   C     0.13218   0.98390   0.85811   0.00000  Uiso   1.00
C159   C     0.19019   0.23322   0.77286   0.00000  Uiso   1.00
C160   C     0.14388   0.30843   0.78359   0.00000  Uiso   1.00
C161   C     0.27194   0.36473   0.83078   0.00000  Uiso   1.00
H162   H     0.51152   0.11471   0.81580   0.00000  Uiso   1.00
H163   H     0.44395   0.08657   0.67363   0.00000  Uiso   1.00
H164   H     0.52090   0.99557   0.90120   0.00000  Uiso   1.00
H165   H     0.61678   0.25685   0.88244   0.00000  Uiso   1.00
H166   H     0.29482   0.06343   0.50051   0.00000  Uiso   1.00
H167   H     0.45711   0.87156   0.98037   0.00000  Uiso   1.00
H168   H     0.65929   0.42252   0.94081   0.00000  Uiso   1.00
H169   H     0.93978   0.17706   0.69628   0.00000  Uiso   1.00
H170   H     0.84082   0.15234   0.54756   0.00000  Uiso   1.00
H171   H     0.91779   0.06133   0.77513   0.00000  Uiso   1.00
H172   H     0.01366   0.32261   0.75636   0.00000  Uiso   1.00
H173   H     0.80530   0.11681   0.39818   0.00000  Uiso   1.00
H174   H     0.96760   0.92494   0.87805   0.00000  Uiso   1.00
H175   H     0.16977   0.47589   0.83848   0.00000  Uiso   1.00
O176   O     0.99527   0.07271   0.35367   0.00000  Uiso   1.00
O177   O     0.20821   0.82099   0.98324   0.00000  Uiso   1.00
O178   O     0.47346   0.54383   0.93133   0.00000  Uiso   1.00
N179   N     0.19319   0.07940   0.49684   0.00000  Uiso   1.00
N180   N     0.34492   0.90001   0.94547   0.00000  Uiso   1.00
N181   N     0.53395   0.41510   0.90850   0.00000  Uiso   1.00
N182   N     0.92979   0.10812   0.44177   0.00000  Uiso   1.00
N183   N     0.08152   0.92873   0.89041   0.00000  Uiso   1.00
N184   N     0.27054   0.44382   0.85344   0.00000  Uiso   1.00
