data_job_00901
_audit_creation_date              2018-12-19
_audit_creation_method            'Materials Studio'
_symmetry_space_group_name_H-M    'P1'
_symmetry_Int_Tables_number       1
_symmetry_cell_setting            triclinic
loop_
_symmetry_equiv_pos_as_xyz
  x,y,z
_cell_length_a                    21.2298
_cell_length_b                    21.2298
_cell_length_c                    12.4373
_cell_angle_alpha                 90.0000
_cell_angle_beta                  90.0000
_cell_angle_gamma                 90.0000
loop_
_atom_site_label
_atom_site_type_symbol
_atom_site_fract_x
_atom_site_fract_y
_atom_site_fract_z
_atom_site_U_iso_or_equiv
_atom_site_adp_type
_atom_site_occupancy
C1     C     0.79733   0.77678   0.93276   0.00000  Uiso   1.00
C2     C     0.83289   0.81407   0.84734   0.00000  Uiso   1.00
C3     C     0.80880   0.83314   0.74884   0.00000  Uiso   1.00
C4     C     0.84886   0.86683   0.68192   0.00000  Uiso   1.00
C5     C     0.89467   0.92257   0.54460   0.00000  Uiso   1.00
C6     C     0.83663   0.71799   0.95424   0.00000  Uiso   1.00
C7     C     0.81568   0.65626   0.94565   0.00000  Uiso   1.00
C8     C     0.85889   0.60907   0.96873   0.00000  Uiso   1.00
C9     C     0.91048   0.51563   0.99746   0.00000  Uiso   1.00
C10    C     0.80058   0.81604   0.03528   0.00000  Uiso   1.00
C11    C     0.74933   0.83676   0.09484   0.00000  Uiso   1.00
C12    C     0.76219   0.87211   0.18616   0.00000  Uiso   1.00
C13    C     0.75782   0.93092   0.34071   0.00000  Uiso   1.00
C14    C     0.91130   0.80271   0.98906   0.00000  Uiso   1.00
C15    C     0.89479   0.82815   0.87792   0.00000  Uiso   1.00
C16    C     0.93490   0.86183   0.81112   0.00000  Uiso   1.00
C17    C     0.91088   0.88094   0.71255   0.00000  Uiso   1.00
C18    C     0.89853   0.73207   0.98482   0.00000  Uiso   1.00
C19    C     0.94178   0.68495   0.00793   0.00000  Uiso   1.00
C20    C     0.92090   0.62317   0.99936   0.00000  Uiso   1.00
C21    C     0.86249   0.83013   0.06585   0.00000  Uiso   1.00
C22    C     0.87543   0.86545   0.15711   0.00000  Uiso   1.00
C23    C     0.82420   0.88622   0.21679   0.00000  Uiso   1.00
H24    H     0.74914   0.76581   0.90896   0.00000  Uiso   1.00
H25    H     0.76089   0.82223   0.72520   0.00000  Uiso   1.00
H26    H     0.76777   0.64538   0.92199   0.00000  Uiso   1.00
H27    H     0.70143   0.82585   0.07115   0.00000  Uiso   1.00
H28    H     0.80124   0.89096   0.53495   0.00000  Uiso   1.00
H29    H     0.81573   0.51807   0.94992   0.00000  Uiso   1.00
H30    H     0.67584   0.89863   0.26445   0.00000  Uiso   1.00
H31    H     0.95950   0.81367   0.01286   0.00000  Uiso   1.00
H32    H     0.98280   0.87272   0.83481   0.00000  Uiso   1.00
H33    H     0.98968   0.69587   0.03159   0.00000  Uiso   1.00
H34    H     0.92334   0.87634   0.18075   0.00000  Uiso   1.00
H35    H     0.98135   0.93194   0.62391   0.00000  Uiso   1.00
H36    H     0.99584   0.55905   0.03888   0.00000  Uiso   1.00
H37    H     0.85595   0.93960   0.35341   0.00000  Uiso   1.00
O38    O     0.90283   0.94941   0.46041   0.00000  Uiso   1.00
O39    O     0.92184   0.46020   0.00485   0.00000  Uiso   1.00
O40    O     0.73831   0.95948   0.41750   0.00000  Uiso   1.00
N41    N     0.84043   0.89252   0.58033   0.00000  Uiso   1.00
N42    N     0.85398   0.54389   0.96828   0.00000  Uiso   1.00
N43    N     0.72319   0.89966   0.26236   0.00000  Uiso   1.00
N44    N     0.93734   0.91456   0.62820   0.00000  Uiso   1.00
N45    N     0.95089   0.56593   0.01615   0.00000  Uiso   1.00
N46    N     0.82010   0.92171   0.31023   0.00000  Uiso   1.00
C47    C     0.20267   0.22322   0.93276   0.00000  Uiso   1.00
C48    C     0.16711   0.18593   0.84734   0.00000  Uiso   1.00
C49    C     0.19120   0.16686   0.74884   0.00000  Uiso   1.00
C50    C     0.15114   0.13317   0.68192   0.00000  Uiso   1.00
C51    C     0.10533   0.07743   0.54460   0.00000  Uiso   1.00
C52    C     0.16337   0.28201   0.95424   0.00000  Uiso   1.00
C53    C     0.18432   0.34374   0.94565   0.00000  Uiso   1.00
C54    C     0.14111   0.39093   0.96873   0.00000  Uiso   1.00
C55    C     0.08952   0.48437   0.99746   0.00000  Uiso   1.00
C56    C     0.19942   0.18396   0.03528   0.00000  Uiso   1.00
C57    C     0.25067   0.16324   0.09484   0.00000  Uiso   1.00
C58    C     0.23781   0.12789   0.18616   0.00000  Uiso   1.00
C59    C     0.24218   0.06908   0.34071   0.00000  Uiso   1.00
C60    C     0.08870   0.19729   0.98906   0.00000  Uiso   1.00
C61    C     0.10521   0.17185   0.87792   0.00000  Uiso   1.00
C62    C     0.06510   0.13817   0.81112   0.00000  Uiso   1.00
C63    C     0.08912   0.11906   0.71255   0.00000  Uiso   1.00
C64    C     0.10147   0.26793   0.98482   0.00000  Uiso   1.00
C65    C     0.05822   0.31505   0.00793   0.00000  Uiso   1.00
C66    C     0.07910   0.37683   0.99936   0.00000  Uiso   1.00
C67    C     0.13751   0.16987   0.06585   0.00000  Uiso   1.00
C68    C     0.12457   0.13455   0.15711   0.00000  Uiso   1.00
C69    C     0.17580   0.11378   0.21679   0.00000  Uiso   1.00
H70    H     0.25086   0.23419   0.90896   0.00000  Uiso   1.00
H71    H     0.23911   0.17777   0.72520   0.00000  Uiso   1.00
H72    H     0.23223   0.35462   0.92199   0.00000  Uiso   1.00
H73    H     0.29857   0.17415   0.07115   0.00000  Uiso   1.00
H74    H     0.19876   0.10904   0.53495   0.00000  Uiso   1.00
H75    H     0.18427   0.48193   0.94992   0.00000  Uiso   1.00
H76    H     0.32416   0.10137   0.26445   0.00000  Uiso   1.00
H77    H     0.04050   0.18633   0.01286   0.00000  Uiso   1.00
H78    H     0.01720   0.12728   0.83481   0.00000  Uiso   1.00
H79    H     0.01032   0.30413   0.03159   0.00000  Uiso   1.00
H80    H     0.07666   0.12366   0.18075   0.00000  Uiso   1.00
H81    H     0.01865   0.06806   0.62391   0.00000  Uiso   1.00
H82    H     0.00416   0.44095   0.03888   0.00000  Uiso   1.00
H83    H     0.14405   0.06040   0.35341   0.00000  Uiso   1.00
O84    O     0.09717   0.05059   0.46041   0.00000  Uiso   1.00
O85    O     0.07816   0.53980   0.00485   0.00000  Uiso   1.00
O86    O     0.26169   0.04052   0.41750   0.00000  Uiso   1.00
N87    N     0.15957   0.10748   0.58033   0.00000  Uiso   1.00
N88    N     0.14602   0.45611   0.96828   0.00000  Uiso   1.00
N89    N     0.27681   0.10034   0.26236   0.00000  Uiso   1.00
N90    N     0.06266   0.08544   0.62820   0.00000  Uiso   1.00
N91    N     0.04911   0.43407   0.01615   0.00000  Uiso   1.00
N92    N     0.17990   0.07829   0.31023   0.00000  Uiso   1.00
C93    C     0.77678   0.20267   0.06724   0.00000  Uiso   1.00
C94    C     0.81407   0.16711   0.15266   0.00000  Uiso   1.00
C95    C     0.83314   0.19120   0.25116   0.00000  Uiso   1.00
C96    C     0.86683   0.15114   0.31808   0.00000  Uiso   1.00
C97    C     0.92257   0.10533   0.45540   0.00000  Uiso   1.00
C98    C     0.71799   0.16337   0.04576   0.00000  Uiso   1.00
C99    C     0.65626   0.18432   0.05435   0.00000  Uiso   1.00
C100   C     0.60907   0.14111   0.03127   0.00000  Uiso   1.00
C101   C     0.51563   0.08952   0.00254   0.00000  Uiso   1.00
C102   C     0.81604   0.19942   0.96472   0.00000  Uiso   1.00
C103   C     0.83676   0.25067   0.90516   0.00000  Uiso   1.00
C104   C     0.87211   0.23781   0.81384   0.00000  Uiso   1.00
C105   C     0.93092   0.24218   0.65929   0.00000  Uiso   1.00
C106   C     0.80271   0.08870   0.01094   0.00000  Uiso   1.00
C107   C     0.82815   0.10521   0.12208   0.00000  Uiso   1.00
C108   C     0.86183   0.06510   0.18888   0.00000  Uiso   1.00
C109   C     0.88094   0.08912   0.28745   0.00000  Uiso   1.00
C110   C     0.73207   0.10147   0.01518   0.00000  Uiso   1.00
C111   C     0.68495   0.05822   0.99207   0.00000  Uiso   1.00
C112   C     0.62317   0.07910   0.00064   0.00000  Uiso   1.00
C113   C     0.83013   0.13751   0.93415   0.00000  Uiso   1.00
C114   C     0.86545   0.12457   0.84289   0.00000  Uiso   1.00
C115   C     0.88622   0.17580   0.78321   0.00000  Uiso   1.00
H116   H     0.76581   0.25086   0.09104   0.00000  Uiso   1.00
H117   H     0.82223   0.23911   0.27480   0.00000  Uiso   1.00
H118   H     0.64538   0.23223   0.07801   0.00000  Uiso   1.00
H119   H     0.82585   0.29857   0.92885   0.00000  Uiso   1.00
H120   H     0.89096   0.19876   0.46505   0.00000  Uiso   1.00
H121   H     0.51807   0.18427   0.05008   0.00000  Uiso   1.00
H122   H     0.89863   0.32416   0.73555   0.00000  Uiso   1.00
H123   H     0.81367   0.04050   0.98714   0.00000  Uiso   1.00
H124   H     0.87272   0.01720   0.16519   0.00000  Uiso   1.00
H125   H     0.69587   0.01032   0.96841   0.00000  Uiso   1.00
H126   H     0.87634   0.07666   0.81925   0.00000  Uiso   1.00
H127   H     0.93194   0.01865   0.37609   0.00000  Uiso   1.00
H128   H     0.55905   0.00416   0.96112   0.00000  Uiso   1.00
H129   H     0.93960   0.14405   0.64659   0.00000  Uiso   1.00
O130   O     0.94941   0.09717   0.53959   0.00000  Uiso   1.00
O131   O     0.46020   0.07816   0.99515   0.00000  Uiso   1.00
O132   O     0.95948   0.26169   0.58250   0.00000  Uiso   1.00
N133   N     0.89252   0.15957   0.41967   0.00000  Uiso   1.00
N134   N     0.54389   0.14602   0.03172   0.00000  Uiso   1.00
N135   N     0.89966   0.27681   0.73764   0.00000  Uiso   1.00
N136   N     0.91456   0.06266   0.37180   0.00000  Uiso   1.00
N137   N     0.56593   0.04911   0.98385   0.00000  Uiso   1.00
N138   N     0.92171   0.17990   0.68977   0.00000  Uiso   1.00
C139   C     0.22322   0.79733   0.06724   0.00000  Uiso   1.00
C140   C     0.18593   0.83289   0.15266   0.00000  Uiso   1.00
C141   C     0.16686   0.80880   0.25116   0.00000  Uiso   1.00
C142   C     0.13317   0.84886   0.31808   0.00000  Uiso   1.00
C143   C     0.07743   0.89467   0.45540   0.00000  Uiso   1.00
C144   C     0.28201   0.83663   0.04576   0.00000  Uiso   1.00
C145   C     0.34374   0.81568   0.05435   0.00000  Uiso   1.00
C146   C     0.39093   0.85889   0.03127   0.00000  Uiso   1.00
C147   C     0.48437   0.91048   0.00254   0.00000  Uiso   1.00
C148   C     0.18396   0.80058   0.96472   0.00000  Uiso   1.00
C149   C     0.16324   0.74933   0.90516   0.00000  Uiso   1.00
C150   C     0.12789   0.76219   0.81384   0.00000  Uiso   1.00
C151   C     0.06908   0.75782   0.65929   0.00000  Uiso   1.00
C152   C     0.19729   0.91130   0.01094   0.00000  Uiso   1.00
C153   C     0.17185   0.89479   0.12208   0.00000  Uiso   1.00
C154   C     0.13817   0.93490   0.18888   0.00000  Uiso   1.00
C155   C     0.11906   0.91088   0.28745   0.00000  Uiso   1.00
C156   C     0.26793   0.89853   0.01518   0.00000  Uiso   1.00
C157   C     0.31505   0.94178   0.99207   0.00000  Uiso   1.00
C158   C     0.37683   0.92090   0.00064   0.00000  Uiso   1.00
C159   C     0.16987   0.86249   0.93415   0.00000  Uiso   1.00
C160   C     0.13455   0.87543   0.84289   0.00000  Uiso   1.00
C161   C     0.11378   0.82420   0.78321   0.00000  Uiso   1.00
H162   H     0.23419   0.74914   0.09104   0.00000  Uiso   1.00
H163   H     0.17777   0.76089   0.27480   0.00000  Uiso   1.00
H164   H     0.35462   0.76777   0.07801   0.00000  Uiso   1.00
H165   H     0.17415   0.70143   0.92885   0.00000  Uiso   1.00
H166   H     0.10904   0.80124   0.46505   0.00000  Uiso   1.00
H167   H     0.48193   0.81573   0.05008   0.00000  Uiso   1.00
H168   H     0.10137   0.67584   0.73555   0.00000  Uiso   1.00
H169   H     0.18633   0.95950   0.98714   0.00000  Uiso   1.00
H170   H     0.12728   0.98280   0.16519   0.00000  Uiso   1.00
H171   H     0.30413   0.98968   0.96841   0.00000  Uiso   1.00
H172   H     0.12366   0.92334   0.81925   0.00000  Uiso   1.00
H173   H     0.06806   0.98135   0.37609   0.00000  Uiso   1.00
H174   H     0.44095   0.99584   0.96112   0.00000  Uiso   1.00
H175   H     0.06040   0.85595   0.64659   0.00000  Uiso   1.00
O176   O     0.05059   0.90283   0.53959   0.00000  Uiso   1.00
O177   O     0.53980   0.92184   0.99515   0.00000  Uiso   1.00
O178   O     0.04052   0.73831   0.58250   0.00000  Uiso   1.00
N179   N     0.10748   0.84043   0.41967   0.00000  Uiso   1.00
N180   N     0.45611   0.85398   0.03172   0.00000  Uiso   1.00
N181   N     0.10034   0.72319   0.73764   0.00000  Uiso   1.00
N182   N     0.08544   0.93734   0.37180   0.00000  Uiso   1.00
N183   N     0.43407   0.95089   0.98385   0.00000  Uiso   1.00
N184   N     0.07829   0.82010   0.68977   0.00000  Uiso   1.00
C185   C     0.29733   0.72322   0.43276   0.00000  Uiso   1.00
C186   C     0.33289   0.68593   0.34734   0.00000  Uiso   1.00
C187   C     0.30880   0.66686   0.24884   0.00000  Uiso   1.00
C188   C     0.34886   0.63317   0.18192   0.00000  Uiso   1.00
C189   C     0.39467   0.57743   0.04460   0.00000  Uiso   1.00
C190   C     0.33663   0.78201   0.45424   0.00000  Uiso   1.00
C191   C     0.31568   0.84374   0.44565   0.00000  Uiso   1.00
C192   C     0.35889   0.89093   0.46873   0.00000  Uiso   1.00
C193   C     0.41048   0.98437   0.49746   0.00000  Uiso   1.00
C194   C     0.30058   0.68396   0.53528   0.00000  Uiso   1.00
C195   C     0.24933   0.66324   0.59484   0.00000  Uiso   1.00
C196   C     0.26219   0.62789   0.68616   0.00000  Uiso   1.00
C197   C     0.25782   0.56908   0.84071   0.00000  Uiso   1.00
C198   C     0.41130   0.69729   0.48906   0.00000  Uiso   1.00
C199   C     0.39479   0.67185   0.37792   0.00000  Uiso   1.00
C200   C     0.43490   0.63817   0.31112   0.00000  Uiso   1.00
C201   C     0.41088   0.61906   0.21255   0.00000  Uiso   1.00
C202   C     0.39853   0.76793   0.48482   0.00000  Uiso   1.00
C203   C     0.44178   0.81505   0.50793   0.00000  Uiso   1.00
C204   C     0.42090   0.87683   0.49936   0.00000  Uiso   1.00
C205   C     0.36249   0.66987   0.56585   0.00000  Uiso   1.00
C206   C     0.37543   0.63455   0.65711   0.00000  Uiso   1.00
C207   C     0.32420   0.61378   0.71679   0.00000  Uiso   1.00
H208   H     0.24914   0.73419   0.40896   0.00000  Uiso   1.00
H209   H     0.26089   0.67777   0.22520   0.00000  Uiso   1.00
H210   H     0.26777   0.85462   0.42199   0.00000  Uiso   1.00
H211   H     0.20143   0.67415   0.57115   0.00000  Uiso   1.00
H212   H     0.30124   0.60904   0.03495   0.00000  Uiso   1.00
H213   H     0.31573   0.98193   0.44992   0.00000  Uiso   1.00
H214   H     0.17584   0.60137   0.76445   0.00000  Uiso   1.00
H215   H     0.45950   0.68633   0.51286   0.00000  Uiso   1.00
H216   H     0.48280   0.62728   0.33481   0.00000  Uiso   1.00
H217   H     0.48968   0.80413   0.53159   0.00000  Uiso   1.00
H218   H     0.42334   0.62366   0.68075   0.00000  Uiso   1.00
H219   H     0.48135   0.56806   0.12391   0.00000  Uiso   1.00
H220   H     0.49584   0.94095   0.53888   0.00000  Uiso   1.00
H221   H     0.35595   0.56040   0.85341   0.00000  Uiso   1.00
O222   O     0.40283   0.55059   0.96041   0.00000  Uiso   1.00
O223   O     0.42184   0.03980   0.50485   0.00000  Uiso   1.00
O224   O     0.23831   0.54052   0.91750   0.00000  Uiso   1.00
N225   N     0.34043   0.60748   0.08033   0.00000  Uiso   1.00
N226   N     0.35398   0.95611   0.46828   0.00000  Uiso   1.00
N227   N     0.22319   0.60034   0.76236   0.00000  Uiso   1.00
N228   N     0.43734   0.58544   0.12820   0.00000  Uiso   1.00
N229   N     0.45089   0.93407   0.51615   0.00000  Uiso   1.00
N230   N     0.32010   0.57829   0.81023   0.00000  Uiso   1.00
C231   C     0.70267   0.27678   0.43276   0.00000  Uiso   1.00
C232   C     0.66711   0.31407   0.34734   0.00000  Uiso   1.00
C233   C     0.69120   0.33314   0.24884   0.00000  Uiso   1.00
C234   C     0.65114   0.36683   0.18192   0.00000  Uiso   1.00
C235   C     0.60533   0.42257   0.04460   0.00000  Uiso   1.00
C236   C     0.66337   0.21799   0.45424   0.00000  Uiso   1.00
C237   C     0.68432   0.15626   0.44565   0.00000  Uiso   1.00
C238   C     0.64111   0.10907   0.46873   0.00000  Uiso   1.00
C239   C     0.58952   0.01563   0.49746   0.00000  Uiso   1.00
C240   C     0.69942   0.31604   0.53528   0.00000  Uiso   1.00
C241   C     0.75067   0.33676   0.59484   0.00000  Uiso   1.00
C242   C     0.73781   0.37211   0.68616   0.00000  Uiso   1.00
C243   C     0.74218   0.43092   0.84071   0.00000  Uiso   1.00
C244   C     0.58870   0.30271   0.48906   0.00000  Uiso   1.00
C245   C     0.60521   0.32815   0.37792   0.00000  Uiso   1.00
C246   C     0.56510   0.36183   0.31112   0.00000  Uiso   1.00
C247   C     0.58912   0.38094   0.21255   0.00000  Uiso   1.00
C248   C     0.60147   0.23207   0.48482   0.00000  Uiso   1.00
C249   C     0.55822   0.18495   0.50793   0.00000  Uiso   1.00
C250   C     0.57910   0.12317   0.49936   0.00000  Uiso   1.00
C251   C     0.63751   0.33013   0.56585   0.00000  Uiso   1.00
C252   C     0.62457   0.36545   0.65711   0.00000  Uiso   1.00
C253   C     0.67580   0.38622   0.71679   0.00000  Uiso   1.00
H254   H     0.75086   0.26581   0.40896   0.00000  Uiso   1.00
H255   H     0.73911   0.32223   0.22520   0.00000  Uiso   1.00
H256   H     0.73223   0.14538   0.42199   0.00000  Uiso   1.00
H257   H     0.79857   0.32585   0.57115   0.00000  Uiso   1.00
H258   H     0.69876   0.39096   0.03495   0.00000  Uiso   1.00
H259   H     0.68427   0.01807   0.44992   0.00000  Uiso   1.00
H260   H     0.82416   0.39863   0.76445   0.00000  Uiso   1.00
H261   H     0.54050   0.31367   0.51286   0.00000  Uiso   1.00
H262   H     0.51720   0.37272   0.33481   0.00000  Uiso   1.00
H263   H     0.51032   0.19587   0.53159   0.00000  Uiso   1.00
H264   H     0.57666   0.37634   0.68075   0.00000  Uiso   1.00
H265   H     0.51865   0.43194   0.12391   0.00000  Uiso   1.00
H266   H     0.50416   0.05905   0.53888   0.00000  Uiso   1.00
H267   H     0.64405   0.43960   0.85341   0.00000  Uiso   1.00
O268   O     0.59717   0.44941   0.96041   0.00000  Uiso   1.00
O269   O     0.57816   0.96020   0.50485   0.00000  Uiso   1.00
O270   O     0.76169   0.45948   0.91750   0.00000  Uiso   1.00
N271   N     0.65957   0.39252   0.08033   0.00000  Uiso   1.00
N272   N     0.64602   0.04389   0.46828   0.00000  Uiso   1.00
N273   N     0.77681   0.39966   0.76236   0.00000  Uiso   1.00
N274   N     0.56266   0.41456   0.12820   0.00000  Uiso   1.00
N275   N     0.54911   0.06593   0.51615   0.00000  Uiso   1.00
N276   N     0.67990   0.42171   0.81023   0.00000  Uiso   1.00
C277   C     0.27678   0.29733   0.56724   0.00000  Uiso   1.00
C278   C     0.31407   0.33289   0.65266   0.00000  Uiso   1.00
C279   C     0.33314   0.30880   0.75116   0.00000  Uiso   1.00
C280   C     0.36683   0.34886   0.81808   0.00000  Uiso   1.00
C281   C     0.42257   0.39467   0.95540   0.00000  Uiso   1.00
C282   C     0.21799   0.33663   0.54576   0.00000  Uiso   1.00
C283   C     0.15626   0.31568   0.55435   0.00000  Uiso   1.00
C284   C     0.10907   0.35889   0.53127   0.00000  Uiso   1.00
C285   C     0.01563   0.41048   0.50254   0.00000  Uiso   1.00
C286   C     0.31604   0.30058   0.46472   0.00000  Uiso   1.00
C287   C     0.33676   0.24933   0.40516   0.00000  Uiso   1.00
C288   C     0.37211   0.26219   0.31384   0.00000  Uiso   1.00
C289   C     0.43092   0.25782   0.15929   0.00000  Uiso   1.00
C290   C     0.30271   0.41130   0.51094   0.00000  Uiso   1.00
C291   C     0.32815   0.39479   0.62208   0.00000  Uiso   1.00
C292   C     0.36183   0.43490   0.68888   0.00000  Uiso   1.00
C293   C     0.38094   0.41088   0.78745   0.00000  Uiso   1.00
C294   C     0.23207   0.39853   0.51518   0.00000  Uiso   1.00
C295   C     0.18495   0.44178   0.49207   0.00000  Uiso   1.00
C296   C     0.12317   0.42090   0.50064   0.00000  Uiso   1.00
C297   C     0.33013   0.36249   0.43415   0.00000  Uiso   1.00
C298   C     0.36545   0.37543   0.34289   0.00000  Uiso   1.00
C299   C     0.38622   0.32420   0.28321   0.00000  Uiso   1.00
H300   H     0.26581   0.24914   0.59104   0.00000  Uiso   1.00
H301   H     0.32223   0.26089   0.77480   0.00000  Uiso   1.00
H302   H     0.14538   0.26777   0.57801   0.00000  Uiso   1.00
H303   H     0.32585   0.20143   0.42885   0.00000  Uiso   1.00
H304   H     0.39096   0.30124   0.96505   0.00000  Uiso   1.00
H305   H     0.01807   0.31573   0.55008   0.00000  Uiso   1.00
H306   H     0.39863   0.17584   0.23555   0.00000  Uiso   1.00
H307   H     0.31367   0.45950   0.48714   0.00000  Uiso   1.00
H308   H     0.37272   0.48280   0.66519   0.00000  Uiso   1.00
H309   H     0.19587   0.48968   0.46841   0.00000  Uiso   1.00
H310   H     0.37634   0.42334   0.31925   0.00000  Uiso   1.00
H311   H     0.43194   0.48135   0.87609   0.00000  Uiso   1.00
H312   H     0.05905   0.49584   0.46112   0.00000  Uiso   1.00
H313   H     0.43960   0.35595   0.14659   0.00000  Uiso   1.00
O314   O     0.44941   0.40283   0.03959   0.00000  Uiso   1.00
O315   O     0.96020   0.42184   0.49515   0.00000  Uiso   1.00
O316   O     0.45948   0.23831   0.08250   0.00000  Uiso   1.00
N317   N     0.39252   0.34043   0.91967   0.00000  Uiso   1.00
N318   N     0.04389   0.35398   0.53172   0.00000  Uiso   1.00
N319   N     0.39966   0.22319   0.23764   0.00000  Uiso   1.00
N320   N     0.41456   0.43734   0.87180   0.00000  Uiso   1.00
N321   N     0.06593   0.45089   0.48385   0.00000  Uiso   1.00
N322   N     0.42171   0.32010   0.18977   0.00000  Uiso   1.00
C323   C     0.72322   0.70267   0.56724   0.00000  Uiso   1.00
C324   C     0.68593   0.66711   0.65266   0.00000  Uiso   1.00
C325   C     0.66686   0.69120   0.75116   0.00000  Uiso   1.00
C326   C     0.63317   0.65114   0.81808   0.00000  Uiso   1.00
C327   C     0.57743   0.60533   0.95540   0.00000  Uiso   1.00
C328   C     0.78201   0.66337   0.54576   0.00000  Uiso   1.00
C329   C     0.84374   0.68432   0.55435   0.00000  Uiso   1.00
C330   C     0.89093   0.64111   0.53127   0.00000  Uiso   1.00
C331   C     0.98437   0.58952   0.50254   0.00000  Uiso   1.00
C332   C     0.68396   0.69942   0.46472   0.00000  Uiso   1.00
C333   C     0.66324   0.75067   0.40516   0.00000  Uiso   1.00
C334   C     0.62789   0.73781   0.31384   0.00000  Uiso   1.00
C335   C     0.56908   0.74218   0.15929   0.00000  Uiso   1.00
C336   C     0.69729   0.58870   0.51094   0.00000  Uiso   1.00
C337   C     0.67185   0.60521   0.62208   0.00000  Uiso   1.00
C338   C     0.63817   0.56510   0.68888   0.00000  Uiso   1.00
C339   C     0.61906   0.58912   0.78745   0.00000  Uiso   1.00
C340   C     0.76793   0.60147   0.51518   0.00000  Uiso   1.00
C341   C     0.81505   0.55822   0.49207   0.00000  Uiso   1.00
C342   C     0.87683   0.57910   0.50064   0.00000  Uiso   1.00
C343   C     0.66987   0.63751   0.43415   0.00000  Uiso   1.00
C344   C     0.63455   0.62457   0.34289   0.00000  Uiso   1.00
C345   C     0.61378   0.67580   0.28321   0.00000  Uiso   1.00
H346   H     0.73419   0.75086   0.59104   0.00000  Uiso   1.00
H347   H     0.67777   0.73911   0.77480   0.00000  Uiso   1.00
H348   H     0.85462   0.73223   0.57801   0.00000  Uiso   1.00
H349   H     0.67415   0.79857   0.42885   0.00000  Uiso   1.00
H350   H     0.60904   0.69876   0.96505   0.00000  Uiso   1.00
H351   H     0.98193   0.68427   0.55008   0.00000  Uiso   1.00
H352   H     0.60137   0.82416   0.23555   0.00000  Uiso   1.00
H353   H     0.68633   0.54050   0.48714   0.00000  Uiso   1.00
H354   H     0.62728   0.51720   0.66519   0.00000  Uiso   1.00
H355   H     0.80413   0.51032   0.46841   0.00000  Uiso   1.00
H356   H     0.62366   0.57666   0.31925   0.00000  Uiso   1.00
H357   H     0.56806   0.51865   0.87609   0.00000  Uiso   1.00
H358   H     0.94095   0.50416   0.46112   0.00000  Uiso   1.00
H359   H     0.56040   0.64405   0.14659   0.00000  Uiso   1.00
O360   O     0.55059   0.59717   0.03959   0.00000  Uiso   1.00
O361   O     0.03980   0.57816   0.49515   0.00000  Uiso   1.00
O362   O     0.54052   0.76169   0.08250   0.00000  Uiso   1.00
N363   N     0.60748   0.65957   0.91967   0.00000  Uiso   1.00
N364   N     0.95611   0.64602   0.53172   0.00000  Uiso   1.00
N365   N     0.60034   0.77681   0.23764   0.00000  Uiso   1.00
N366   N     0.58544   0.56266   0.87180   0.00000  Uiso   1.00
N367   N     0.93407   0.54911   0.48385   0.00000  Uiso   1.00
N368   N     0.57829   0.67990   0.18977   0.00000  Uiso   1.00
