data_job_05764
_audit_creation_date              2018-12-19
_audit_creation_method            'Materials Studio'
_symmetry_space_group_name_H-M    'P1'
_symmetry_Int_Tables_number       1
_symmetry_cell_setting            triclinic
loop_
_symmetry_equiv_pos_as_xyz
  x,y,z
_cell_length_a                    46.5648
_cell_length_b                    7.7345
_cell_length_c                    17.2779
_cell_angle_alpha                 90.0000
_cell_angle_beta                  90.0000
_cell_angle_gamma                 90.0000
loop_
_atom_site_label
_atom_site_type_symbol
_atom_site_fract_x
_atom_site_fract_y
_atom_site_fract_z
_atom_site_U_iso_or_equiv
_atom_site_adp_type
_atom_site_occupancy
C1     C     0.63002   0.61462   0.76235   0.00000  Uiso   1.00
C2     C     0.62924   0.46813   0.70332   0.00000  Uiso   1.00
C3     C     0.63064   0.48725   0.62354   0.00000  Uiso   1.00
C4     C     0.62959   0.33726   0.57949   0.00000  Uiso   1.00
C5     C     0.62872   0.13463   0.48256   0.00000  Uiso   1.00
C6     C     0.60284   0.59567   0.81084   0.00000  Uiso   1.00
C7     C     0.58205   0.72203   0.82148   0.00000  Uiso   1.00
C8     C     0.55878   0.67940   0.86795   0.00000  Uiso   1.00
C9     C     0.51693   0.67481   0.93800   0.00000  Uiso   1.00
C10    C     0.65499   0.57420   0.81650   0.00000  Uiso   1.00
C11    C     0.67805   0.68254   0.83192   0.00000  Uiso   1.00
C12    C     0.69869   0.62185   0.88317   0.00000  Uiso   1.00
C13    C     0.73782   0.58394   0.96201   0.00000  Uiso   1.00
C14    C     0.62566   0.31423   0.82598   0.00000  Uiso   1.00
C15    C     0.62687   0.30497   0.73788   0.00000  Uiso   1.00
C16    C     0.62581   0.15491   0.69393   0.00000  Uiso   1.00
C17    C     0.62722   0.17381   0.61411   0.00000  Uiso   1.00
C18    C     0.60047   0.43251   0.84540   0.00000  Uiso   1.00
C19    C     0.57722   0.38969   0.89187   0.00000  Uiso   1.00
C20    C     0.55640   0.51594   0.90257   0.00000  Uiso   1.00
C21    C     0.65262   0.41104   0.85106   0.00000  Uiso   1.00
C22    C     0.67323   0.35018   0.90231   0.00000  Uiso   1.00
C23    C     0.69631   0.45839   0.91779   0.00000  Uiso   1.00
H24    H     0.63186   0.74165   0.73545   0.00000  Uiso   1.00
H25    H     0.63247   0.61355   0.59682   0.00000  Uiso   1.00
H26    H     0.58389   0.84829   0.79473   0.00000  Uiso   1.00
H27    H     0.67988   0.80879   0.80517   0.00000  Uiso   1.00
H28    H     0.63209   0.39957   0.45836   0.00000  Uiso   1.00
H29    H     0.52966   0.89456   0.87569   0.00000  Uiso   1.00
H30    H     0.73207   0.81128   0.89770   0.00000  Uiso   1.00
H31    H     0.62381   0.18720   0.85288   0.00000  Uiso   1.00
H32    H     0.62398   0.02867   0.72069   0.00000  Uiso   1.00
H33    H     0.57540   0.26341   0.91860   0.00000  Uiso   1.00
H34    H     0.67139   0.22391   0.92904   0.00000  Uiso   1.00
H35    H     0.62520   0.92486   0.55890   0.00000  Uiso   1.00
H36    H     0.52276   0.41986   0.97623   0.00000  Uiso   1.00
H37    H     0.72518   0.33657   0.99823   0.00000  Uiso   1.00
O38    O     0.62889   0.06794   0.41955   0.00000  Uiso   1.00
O39    O     0.49450   0.71736   0.96708   0.00000  Uiso   1.00
O40    O     0.76006   0.60808   0.99595   0.00000  Uiso   1.00
N41    N     0.63045   0.30960   0.50017   0.00000  Uiso   1.00
N42    N     0.53468   0.77238   0.89033   0.00000  Uiso   1.00
N43    N     0.72391   0.69453   0.91092   0.00000  Uiso   1.00
N44    N     0.62674   0.05417   0.55426   0.00000  Uiso   1.00
N45    N     0.53097   0.51694   0.94443   0.00000  Uiso   1.00
N46    N     0.72021   0.43910   0.96502   0.00000  Uiso   1.00
C47    C     0.86998   0.88538   0.26235   0.00000  Uiso   1.00
C48    C     0.87076   0.03187   0.20332   0.00000  Uiso   1.00
C49    C     0.86936   0.01275   0.12354   0.00000  Uiso   1.00
C50    C     0.87041   0.16274   0.07949   0.00000  Uiso   1.00
C51    C     0.87128   0.36537   0.98256   0.00000  Uiso   1.00
C52    C     0.89716   0.90433   0.31084   0.00000  Uiso   1.00
C53    C     0.91795   0.77797   0.32148   0.00000  Uiso   1.00
C54    C     0.94122   0.82060   0.36795   0.00000  Uiso   1.00
C55    C     0.98307   0.82519   0.43800   0.00000  Uiso   1.00
C56    C     0.84501   0.92580   0.31650   0.00000  Uiso   1.00
C57    C     0.82195   0.81746   0.33192   0.00000  Uiso   1.00
C58    C     0.80131   0.87815   0.38317   0.00000  Uiso   1.00
C59    C     0.76218   0.91606   0.46201   0.00000  Uiso   1.00
C60    C     0.87434   0.18577   0.32598   0.00000  Uiso   1.00
C61    C     0.87313   0.19503   0.23788   0.00000  Uiso   1.00
C62    C     0.87419   0.34509   0.19393   0.00000  Uiso   1.00
C63    C     0.87278   0.32619   0.11411   0.00000  Uiso   1.00
C64    C     0.89953   0.06749   0.34540   0.00000  Uiso   1.00
C65    C     0.92278   0.11031   0.39187   0.00000  Uiso   1.00
C66    C     0.94360   0.98406   0.40257   0.00000  Uiso   1.00
C67    C     0.84738   0.08896   0.35106   0.00000  Uiso   1.00
C68    C     0.82677   0.14982   0.40231   0.00000  Uiso   1.00
C69    C     0.80369   0.04161   0.41779   0.00000  Uiso   1.00
H70    H     0.86814   0.75835   0.23545   0.00000  Uiso   1.00
H71    H     0.86753   0.88645   0.09682   0.00000  Uiso   1.00
H72    H     0.91611   0.65171   0.29473   0.00000  Uiso   1.00
H73    H     0.82012   0.69121   0.30517   0.00000  Uiso   1.00
H74    H     0.86791   0.10043   0.95836   0.00000  Uiso   1.00
H75    H     0.97034   0.60544   0.37569   0.00000  Uiso   1.00
H76    H     0.76793   0.68872   0.39770   0.00000  Uiso   1.00
H77    H     0.87619   0.31280   0.35288   0.00000  Uiso   1.00
H78    H     0.87602   0.47133   0.22069   0.00000  Uiso   1.00
H79    H     0.92460   0.23659   0.41860   0.00000  Uiso   1.00
H80    H     0.82861   0.27609   0.42904   0.00000  Uiso   1.00
H81    H     0.87480   0.57514   0.05890   0.00000  Uiso   1.00
H82    H     0.97724   0.08014   0.47623   0.00000  Uiso   1.00
H83    H     0.77482   0.16343   0.49823   0.00000  Uiso   1.00
O84    O     0.87111   0.43206   0.91955   0.00000  Uiso   1.00
O85    O     0.00550   0.78264   0.46708   0.00000  Uiso   1.00
O86    O     0.73994   0.89192   0.49595   0.00000  Uiso   1.00
N87    N     0.86955   0.19040   0.00017   0.00000  Uiso   1.00
N88    N     0.96532   0.72762   0.39033   0.00000  Uiso   1.00
N89    N     0.77609   0.80547   0.41092   0.00000  Uiso   1.00
N90    N     0.87326   0.44583   0.05426   0.00000  Uiso   1.00
N91    N     0.96903   0.98306   0.44443   0.00000  Uiso   1.00
N92    N     0.77979   0.06090   0.46502   0.00000  Uiso   1.00
C93    C     0.36998   0.61462   0.73765   0.00000  Uiso   1.00
C94    C     0.37076   0.46813   0.79668   0.00000  Uiso   1.00
C95    C     0.36936   0.48725   0.87646   0.00000  Uiso   1.00
C96    C     0.37041   0.33726   0.92051   0.00000  Uiso   1.00
C97    C     0.37128   0.13463   0.01744   0.00000  Uiso   1.00
C98    C     0.39716   0.59567   0.68916   0.00000  Uiso   1.00
C99    C     0.41795   0.72203   0.67852   0.00000  Uiso   1.00
C100   C     0.44122   0.67940   0.63205   0.00000  Uiso   1.00
C101   C     0.48307   0.67481   0.56200   0.00000  Uiso   1.00
C102   C     0.34501   0.57420   0.68350   0.00000  Uiso   1.00
C103   C     0.32195   0.68254   0.66808   0.00000  Uiso   1.00
C104   C     0.30131   0.62185   0.61683   0.00000  Uiso   1.00
C105   C     0.26218   0.58394   0.53799   0.00000  Uiso   1.00
C106   C     0.37434   0.31423   0.67402   0.00000  Uiso   1.00
C107   C     0.37313   0.30497   0.76212   0.00000  Uiso   1.00
C108   C     0.37419   0.15491   0.80607   0.00000  Uiso   1.00
C109   C     0.37278   0.17381   0.88589   0.00000  Uiso   1.00
C110   C     0.39953   0.43251   0.65460   0.00000  Uiso   1.00
C111   C     0.42278   0.38969   0.60813   0.00000  Uiso   1.00
C112   C     0.44360   0.51594   0.59743   0.00000  Uiso   1.00
C113   C     0.34738   0.41104   0.64894   0.00000  Uiso   1.00
C114   C     0.32677   0.35018   0.59769   0.00000  Uiso   1.00
C115   C     0.30369   0.45839   0.58221   0.00000  Uiso   1.00
H116   H     0.36814   0.74165   0.76455   0.00000  Uiso   1.00
H117   H     0.36753   0.61355   0.90318   0.00000  Uiso   1.00
H118   H     0.41611   0.84829   0.70527   0.00000  Uiso   1.00
H119   H     0.32012   0.80879   0.69483   0.00000  Uiso   1.00
H120   H     0.36791   0.39957   0.04164   0.00000  Uiso   1.00
H121   H     0.47034   0.89456   0.62431   0.00000  Uiso   1.00
H122   H     0.26793   0.81128   0.60230   0.00000  Uiso   1.00
H123   H     0.37619   0.18720   0.64712   0.00000  Uiso   1.00
H124   H     0.37602   0.02867   0.77931   0.00000  Uiso   1.00
H125   H     0.42460   0.26341   0.58140   0.00000  Uiso   1.00
H126   H     0.32861   0.22391   0.57096   0.00000  Uiso   1.00
H127   H     0.37480   0.92486   0.94110   0.00000  Uiso   1.00
H128   H     0.47724   0.41986   0.52377   0.00000  Uiso   1.00
H129   H     0.27482   0.33657   0.50177   0.00000  Uiso   1.00
O130   O     0.37111   0.06794   0.08045   0.00000  Uiso   1.00
O131   O     0.50550   0.71736   0.53292   0.00000  Uiso   1.00
O132   O     0.23994   0.60808   0.50405   0.00000  Uiso   1.00
N133   N     0.36955   0.30960   0.99983   0.00000  Uiso   1.00
N134   N     0.46532   0.77238   0.60967   0.00000  Uiso   1.00
N135   N     0.27609   0.69453   0.58908   0.00000  Uiso   1.00
N136   N     0.37326   0.05417   0.94574   0.00000  Uiso   1.00
N137   N     0.46903   0.51694   0.55557   0.00000  Uiso   1.00
N138   N     0.27979   0.43910   0.53498   0.00000  Uiso   1.00
C139   C     0.13002   0.88538   0.23765   0.00000  Uiso   1.00
C140   C     0.12924   0.03187   0.29668   0.00000  Uiso   1.00
C141   C     0.13064   0.01275   0.37646   0.00000  Uiso   1.00
C142   C     0.12959   0.16274   0.42051   0.00000  Uiso   1.00
C143   C     0.12872   0.36537   0.51744   0.00000  Uiso   1.00
C144   C     0.10284   0.90433   0.18916   0.00000  Uiso   1.00
C145   C     0.08205   0.77797   0.17852   0.00000  Uiso   1.00
C146   C     0.05878   0.82060   0.13205   0.00000  Uiso   1.00
C147   C     0.01693   0.82519   0.06200   0.00000  Uiso   1.00
C148   C     0.15499   0.92580   0.18350   0.00000  Uiso   1.00
C149   C     0.17805   0.81746   0.16808   0.00000  Uiso   1.00
C150   C     0.19869   0.87815   0.11683   0.00000  Uiso   1.00
C151   C     0.23782   0.91606   0.03799   0.00000  Uiso   1.00
C152   C     0.12566   0.18577   0.17402   0.00000  Uiso   1.00
C153   C     0.12687   0.19503   0.26212   0.00000  Uiso   1.00
C154   C     0.12581   0.34509   0.30607   0.00000  Uiso   1.00
C155   C     0.12722   0.32619   0.38589   0.00000  Uiso   1.00
C156   C     0.10047   0.06749   0.15460   0.00000  Uiso   1.00
C157   C     0.07722   0.11031   0.10813   0.00000  Uiso   1.00
C158   C     0.05640   0.98406   0.09743   0.00000  Uiso   1.00
C159   C     0.15262   0.08896   0.14894   0.00000  Uiso   1.00
C160   C     0.17323   0.14982   0.09769   0.00000  Uiso   1.00
C161   C     0.19631   0.04161   0.08221   0.00000  Uiso   1.00
H162   H     0.13186   0.75835   0.26455   0.00000  Uiso   1.00
H163   H     0.13247   0.88645   0.40318   0.00000  Uiso   1.00
H164   H     0.08389   0.65171   0.20527   0.00000  Uiso   1.00
H165   H     0.17988   0.69121   0.19483   0.00000  Uiso   1.00
H166   H     0.13209   0.10043   0.54164   0.00000  Uiso   1.00
H167   H     0.02966   0.60544   0.12431   0.00000  Uiso   1.00
H168   H     0.23207   0.68872   0.10230   0.00000  Uiso   1.00
H169   H     0.12381   0.31280   0.14712   0.00000  Uiso   1.00
H170   H     0.12398   0.47133   0.27931   0.00000  Uiso   1.00
H171   H     0.07540   0.23659   0.08140   0.00000  Uiso   1.00
H172   H     0.17139   0.27609   0.07096   0.00000  Uiso   1.00
H173   H     0.12520   0.57514   0.44110   0.00000  Uiso   1.00
H174   H     0.02276   0.08014   0.02377   0.00000  Uiso   1.00
H175   H     0.22518   0.16343   0.00177   0.00000  Uiso   1.00
O176   O     0.12889   0.43206   0.58045   0.00000  Uiso   1.00
O177   O     0.99450   0.78264   0.03292   0.00000  Uiso   1.00
O178   O     0.26006   0.89192   0.00405   0.00000  Uiso   1.00
N179   N     0.13045   0.19040   0.49983   0.00000  Uiso   1.00
N180   N     0.03468   0.72762   0.10967   0.00000  Uiso   1.00
N181   N     0.22391   0.80547   0.08908   0.00000  Uiso   1.00
N182   N     0.12674   0.44583   0.44574   0.00000  Uiso   1.00
N183   N     0.03097   0.98306   0.05557   0.00000  Uiso   1.00
N184   N     0.22021   0.06090   0.03498   0.00000  Uiso   1.00
C185   C     0.36998   0.38538   0.23765   0.00000  Uiso   1.00
C186   C     0.37076   0.53187   0.29668   0.00000  Uiso   1.00
C187   C     0.36936   0.51275   0.37646   0.00000  Uiso   1.00
C188   C     0.37041   0.66274   0.42051   0.00000  Uiso   1.00
C189   C     0.37128   0.86537   0.51744   0.00000  Uiso   1.00
C190   C     0.39716   0.40433   0.18916   0.00000  Uiso   1.00
C191   C     0.41795   0.27797   0.17852   0.00000  Uiso   1.00
C192   C     0.44122   0.32060   0.13205   0.00000  Uiso   1.00
C193   C     0.48307   0.32519   0.06200   0.00000  Uiso   1.00
C194   C     0.34501   0.42580   0.18350   0.00000  Uiso   1.00
C195   C     0.32195   0.31746   0.16808   0.00000  Uiso   1.00
C196   C     0.30131   0.37815   0.11683   0.00000  Uiso   1.00
C197   C     0.26218   0.41606   0.03799   0.00000  Uiso   1.00
C198   C     0.37434   0.68577   0.17402   0.00000  Uiso   1.00
C199   C     0.37313   0.69503   0.26212   0.00000  Uiso   1.00
C200   C     0.37419   0.84509   0.30607   0.00000  Uiso   1.00
C201   C     0.37278   0.82619   0.38589   0.00000  Uiso   1.00
C202   C     0.39953   0.56749   0.15460   0.00000  Uiso   1.00
C203   C     0.42278   0.61031   0.10813   0.00000  Uiso   1.00
C204   C     0.44360   0.48406   0.09743   0.00000  Uiso   1.00
C205   C     0.34738   0.58896   0.14894   0.00000  Uiso   1.00
C206   C     0.32677   0.64982   0.09769   0.00000  Uiso   1.00
C207   C     0.30369   0.54161   0.08221   0.00000  Uiso   1.00
H208   H     0.36814   0.25835   0.26455   0.00000  Uiso   1.00
H209   H     0.36753   0.38645   0.40318   0.00000  Uiso   1.00
H210   H     0.41611   0.15171   0.20527   0.00000  Uiso   1.00
H211   H     0.32012   0.19121   0.19483   0.00000  Uiso   1.00
H212   H     0.36791   0.60043   0.54164   0.00000  Uiso   1.00
H213   H     0.47034   0.10544   0.12431   0.00000  Uiso   1.00
H214   H     0.26793   0.18872   0.10230   0.00000  Uiso   1.00
H215   H     0.37619   0.81280   0.14712   0.00000  Uiso   1.00
H216   H     0.37602   0.97133   0.27931   0.00000  Uiso   1.00
H217   H     0.42460   0.73659   0.08140   0.00000  Uiso   1.00
H218   H     0.32861   0.77609   0.07096   0.00000  Uiso   1.00
H219   H     0.37480   0.07514   0.44110   0.00000  Uiso   1.00
H220   H     0.47724   0.58014   0.02377   0.00000  Uiso   1.00
H221   H     0.27482   0.66343   0.00177   0.00000  Uiso   1.00
O222   O     0.37111   0.93206   0.58045   0.00000  Uiso   1.00
O223   O     0.50550   0.28264   0.03292   0.00000  Uiso   1.00
O224   O     0.23994   0.39192   0.00405   0.00000  Uiso   1.00
N225   N     0.36955   0.69040   0.49983   0.00000  Uiso   1.00
N226   N     0.46532   0.22762   0.10967   0.00000  Uiso   1.00
N227   N     0.27609   0.30547   0.08908   0.00000  Uiso   1.00
N228   N     0.37326   0.94583   0.44574   0.00000  Uiso   1.00
N229   N     0.46903   0.48306   0.05557   0.00000  Uiso   1.00
N230   N     0.27979   0.56090   0.03498   0.00000  Uiso   1.00
C231   C     0.13002   0.11462   0.73765   0.00000  Uiso   1.00
C232   C     0.12924   0.96813   0.79668   0.00000  Uiso   1.00
C233   C     0.13064   0.98725   0.87646   0.00000  Uiso   1.00
C234   C     0.12959   0.83726   0.92051   0.00000  Uiso   1.00
C235   C     0.12872   0.63463   0.01744   0.00000  Uiso   1.00
C236   C     0.10284   0.09567   0.68916   0.00000  Uiso   1.00
C237   C     0.08205   0.22203   0.67852   0.00000  Uiso   1.00
C238   C     0.05878   0.17940   0.63205   0.00000  Uiso   1.00
C239   C     0.01693   0.17481   0.56200   0.00000  Uiso   1.00
C240   C     0.15499   0.07420   0.68350   0.00000  Uiso   1.00
C241   C     0.17805   0.18254   0.66808   0.00000  Uiso   1.00
C242   C     0.19869   0.12185   0.61683   0.00000  Uiso   1.00
C243   C     0.23782   0.08394   0.53799   0.00000  Uiso   1.00
C244   C     0.12566   0.81423   0.67402   0.00000  Uiso   1.00
C245   C     0.12687   0.80497   0.76212   0.00000  Uiso   1.00
C246   C     0.12581   0.65491   0.80607   0.00000  Uiso   1.00
C247   C     0.12722   0.67381   0.88589   0.00000  Uiso   1.00
C248   C     0.10047   0.93251   0.65460   0.00000  Uiso   1.00
C249   C     0.07722   0.88969   0.60813   0.00000  Uiso   1.00
C250   C     0.05640   0.01594   0.59743   0.00000  Uiso   1.00
C251   C     0.15262   0.91104   0.64894   0.00000  Uiso   1.00
C252   C     0.17323   0.85018   0.59769   0.00000  Uiso   1.00
C253   C     0.19631   0.95839   0.58221   0.00000  Uiso   1.00
H254   H     0.13186   0.24165   0.76455   0.00000  Uiso   1.00
H255   H     0.13247   0.11355   0.90318   0.00000  Uiso   1.00
H256   H     0.08389   0.34829   0.70527   0.00000  Uiso   1.00
H257   H     0.17988   0.30879   0.69483   0.00000  Uiso   1.00
H258   H     0.13209   0.89957   0.04164   0.00000  Uiso   1.00
H259   H     0.02966   0.39456   0.62431   0.00000  Uiso   1.00
H260   H     0.23207   0.31128   0.60230   0.00000  Uiso   1.00
H261   H     0.12381   0.68720   0.64712   0.00000  Uiso   1.00
H262   H     0.12398   0.52867   0.77931   0.00000  Uiso   1.00
H263   H     0.07540   0.76341   0.58140   0.00000  Uiso   1.00
H264   H     0.17139   0.72391   0.57096   0.00000  Uiso   1.00
H265   H     0.12520   0.42486   0.94110   0.00000  Uiso   1.00
H266   H     0.02276   0.91986   0.52377   0.00000  Uiso   1.00
H267   H     0.22518   0.83657   0.50177   0.00000  Uiso   1.00
O268   O     0.12889   0.56794   0.08045   0.00000  Uiso   1.00
O269   O     0.99450   0.21736   0.53292   0.00000  Uiso   1.00
O270   O     0.26006   0.10808   0.50405   0.00000  Uiso   1.00
N271   N     0.13045   0.80960   0.99983   0.00000  Uiso   1.00
N272   N     0.03468   0.27238   0.60967   0.00000  Uiso   1.00
N273   N     0.22391   0.19453   0.58908   0.00000  Uiso   1.00
N274   N     0.12674   0.55417   0.94574   0.00000  Uiso   1.00
N275   N     0.03097   0.01694   0.55557   0.00000  Uiso   1.00
N276   N     0.22021   0.93910   0.53498   0.00000  Uiso   1.00
C277   C     0.63002   0.38538   0.26235   0.00000  Uiso   1.00
C278   C     0.62924   0.53187   0.20332   0.00000  Uiso   1.00
C279   C     0.63064   0.51275   0.12354   0.00000  Uiso   1.00
C280   C     0.62959   0.66274   0.07949   0.00000  Uiso   1.00
C281   C     0.62872   0.86537   0.98256   0.00000  Uiso   1.00
C282   C     0.60284   0.40433   0.31084   0.00000  Uiso   1.00
C283   C     0.58205   0.27797   0.32148   0.00000  Uiso   1.00
C284   C     0.55878   0.32060   0.36795   0.00000  Uiso   1.00
C285   C     0.51693   0.32519   0.43800   0.00000  Uiso   1.00
C286   C     0.65499   0.42580   0.31650   0.00000  Uiso   1.00
C287   C     0.67805   0.31746   0.33192   0.00000  Uiso   1.00
C288   C     0.69869   0.37815   0.38317   0.00000  Uiso   1.00
C289   C     0.73782   0.41606   0.46201   0.00000  Uiso   1.00
C290   C     0.62566   0.68577   0.32598   0.00000  Uiso   1.00
C291   C     0.62687   0.69503   0.23788   0.00000  Uiso   1.00
C292   C     0.62581   0.84509   0.19393   0.00000  Uiso   1.00
C293   C     0.62722   0.82619   0.11411   0.00000  Uiso   1.00
C294   C     0.60047   0.56749   0.34540   0.00000  Uiso   1.00
C295   C     0.57722   0.61031   0.39187   0.00000  Uiso   1.00
C296   C     0.55640   0.48406   0.40257   0.00000  Uiso   1.00
C297   C     0.65262   0.58896   0.35106   0.00000  Uiso   1.00
C298   C     0.67323   0.64982   0.40231   0.00000  Uiso   1.00
C299   C     0.69631   0.54161   0.41779   0.00000  Uiso   1.00
H300   H     0.63186   0.25835   0.23545   0.00000  Uiso   1.00
H301   H     0.63247   0.38645   0.09682   0.00000  Uiso   1.00
H302   H     0.58389   0.15171   0.29473   0.00000  Uiso   1.00
H303   H     0.67988   0.19121   0.30517   0.00000  Uiso   1.00
H304   H     0.63209   0.60043   0.95836   0.00000  Uiso   1.00
H305   H     0.52966   0.10544   0.37569   0.00000  Uiso   1.00
H306   H     0.73207   0.18872   0.39770   0.00000  Uiso   1.00
H307   H     0.62381   0.81280   0.35288   0.00000  Uiso   1.00
H308   H     0.62398   0.97133   0.22069   0.00000  Uiso   1.00
H309   H     0.57540   0.73659   0.41860   0.00000  Uiso   1.00
H310   H     0.67139   0.77609   0.42904   0.00000  Uiso   1.00
H311   H     0.62520   0.07514   0.05890   0.00000  Uiso   1.00
H312   H     0.52276   0.58014   0.47623   0.00000  Uiso   1.00
H313   H     0.72518   0.66343   0.49823   0.00000  Uiso   1.00
O314   O     0.62889   0.93206   0.91955   0.00000  Uiso   1.00
O315   O     0.49450   0.28264   0.46708   0.00000  Uiso   1.00
O316   O     0.76006   0.39192   0.49595   0.00000  Uiso   1.00
N317   N     0.63045   0.69040   0.00017   0.00000  Uiso   1.00
N318   N     0.53468   0.22762   0.39033   0.00000  Uiso   1.00
N319   N     0.72391   0.30547   0.41092   0.00000  Uiso   1.00
N320   N     0.62674   0.94583   0.05426   0.00000  Uiso   1.00
N321   N     0.53097   0.48306   0.44443   0.00000  Uiso   1.00
N322   N     0.72021   0.56090   0.46502   0.00000  Uiso   1.00
C323   C     0.86998   0.11462   0.76235   0.00000  Uiso   1.00
C324   C     0.87076   0.96813   0.70332   0.00000  Uiso   1.00
C325   C     0.86936   0.98725   0.62354   0.00000  Uiso   1.00
C326   C     0.87041   0.83726   0.57949   0.00000  Uiso   1.00
C327   C     0.87128   0.63463   0.48256   0.00000  Uiso   1.00
C328   C     0.89716   0.09567   0.81084   0.00000  Uiso   1.00
C329   C     0.91795   0.22203   0.82148   0.00000  Uiso   1.00
C330   C     0.94122   0.17940   0.86795   0.00000  Uiso   1.00
C331   C     0.98307   0.17481   0.93800   0.00000  Uiso   1.00
C332   C     0.84501   0.07420   0.81650   0.00000  Uiso   1.00
C333   C     0.82195   0.18254   0.83192   0.00000  Uiso   1.00
C334   C     0.80131   0.12185   0.88317   0.00000  Uiso   1.00
C335   C     0.76218   0.08394   0.96201   0.00000  Uiso   1.00
C336   C     0.87434   0.81423   0.82598   0.00000  Uiso   1.00
C337   C     0.87313   0.80497   0.73788   0.00000  Uiso   1.00
C338   C     0.87419   0.65491   0.69393   0.00000  Uiso   1.00
C339   C     0.87278   0.67381   0.61411   0.00000  Uiso   1.00
C340   C     0.89953   0.93251   0.84540   0.00000  Uiso   1.00
C341   C     0.92278   0.88969   0.89187   0.00000  Uiso   1.00
C342   C     0.94360   0.01594   0.90257   0.00000  Uiso   1.00
C343   C     0.84738   0.91104   0.85106   0.00000  Uiso   1.00
C344   C     0.82677   0.85018   0.90231   0.00000  Uiso   1.00
C345   C     0.80369   0.95839   0.91779   0.00000  Uiso   1.00
H346   H     0.86814   0.24165   0.73545   0.00000  Uiso   1.00
H347   H     0.86753   0.11355   0.59682   0.00000  Uiso   1.00
H348   H     0.91611   0.34829   0.79473   0.00000  Uiso   1.00
H349   H     0.82012   0.30879   0.80517   0.00000  Uiso   1.00
H350   H     0.86791   0.89957   0.45836   0.00000  Uiso   1.00
H351   H     0.97034   0.39456   0.87569   0.00000  Uiso   1.00
H352   H     0.76793   0.31128   0.89770   0.00000  Uiso   1.00
H353   H     0.87619   0.68720   0.85288   0.00000  Uiso   1.00
H354   H     0.87602   0.52867   0.72069   0.00000  Uiso   1.00
H355   H     0.92460   0.76341   0.91860   0.00000  Uiso   1.00
H356   H     0.82861   0.72391   0.92904   0.00000  Uiso   1.00
H357   H     0.87480   0.42486   0.55890   0.00000  Uiso   1.00
H358   H     0.97724   0.91986   0.97623   0.00000  Uiso   1.00
H359   H     0.77482   0.83657   0.99823   0.00000  Uiso   1.00
O360   O     0.87111   0.56794   0.41955   0.00000  Uiso   1.00
O361   O     0.00550   0.21736   0.96708   0.00000  Uiso   1.00
O362   O     0.73994   0.10808   0.99595   0.00000  Uiso   1.00
N363   N     0.86955   0.80960   0.50017   0.00000  Uiso   1.00
N364   N     0.96532   0.27238   0.89033   0.00000  Uiso   1.00
N365   N     0.77609   0.19453   0.91092   0.00000  Uiso   1.00
N366   N     0.87326   0.55417   0.55426   0.00000  Uiso   1.00
N367   N     0.96903   0.01694   0.94443   0.00000  Uiso   1.00
N368   N     0.77979   0.93910   0.96502   0.00000  Uiso   1.00
