data_job_03876
_audit_creation_date              2018-12-19
_audit_creation_method            'Materials Studio'
_symmetry_space_group_name_H-M    'P1'
_symmetry_Int_Tables_number       1
_symmetry_cell_setting            triclinic
loop_
_symmetry_equiv_pos_as_xyz
  x,y,z
_cell_length_a                    15.7664
_cell_length_b                    14.4070
_cell_length_c                    21.1218
_cell_angle_alpha                 90.0000
_cell_angle_beta                  90.0000
_cell_angle_gamma                 90.0000
loop_
_atom_site_label
_atom_site_type_symbol
_atom_site_fract_x
_atom_site_fract_y
_atom_site_fract_z
_atom_site_U_iso_or_equiv
_atom_site_adp_type
_atom_site_occupancy
C1     C     0.67984   0.73361   0.08915   0.00000  Uiso   1.00
C2     C     0.63958   0.82949   0.09486   0.00000  Uiso   1.00
C3     C     0.67195   0.90347   0.12930   0.00000  Uiso   1.00
C4     C     0.62563   0.98543   0.12856   0.00000  Uiso   1.00
C5     C     0.57465   0.13313   0.14262   0.00000  Uiso   1.00
C6     C     0.61265   0.66472   0.11125   0.00000  Uiso   1.00
C7     C     0.62239   0.60015   0.15947   0.00000  Uiso   1.00
C8     C     0.55341   0.54339   0.17253   0.00000  Uiso   1.00
C9     C     0.46064   0.43524   0.21201   0.00000  Uiso   1.00
C10    C     0.69146   0.71621   0.01847   0.00000  Uiso   1.00
C11    C     0.76747   0.69492   0.98867   0.00000  Uiso   1.00
C12    C     0.76483   0.68150   0.92361   0.00000  Uiso   1.00
C13    C     0.79443   0.65329   0.81903   0.00000  Uiso   1.00
C14    C     0.54001   0.74760   0.02658   0.00000  Uiso   1.00
C15    C     0.56362   0.83708   0.06087   0.00000  Uiso   1.00
C16    C     0.51724   0.91894   0.06008   0.00000  Uiso   1.00
C17    C     0.54955   0.99304   0.09451   0.00000  Uiso   1.00
C18    C     0.53670   0.67231   0.07727   0.00000  Uiso   1.00
C19    C     0.46768   0.61563   0.09025   0.00000  Uiso   1.00
C20    C     0.47732   0.55100   0.13848   0.00000  Uiso   1.00
C21    C     0.61551   0.72381   0.98448   0.00000  Uiso   1.00
C22    C     0.61276   0.71040   0.91945   0.00000  Uiso   1.00
C23    C     0.68874   0.68910   0.88956   0.00000  Uiso   1.00
H24    H     0.73897   0.72770   0.11561   0.00000  Uiso   1.00
H25    H     0.73073   0.89757   0.15560   0.00000  Uiso   1.00
H26    H     0.68118   0.59429   0.18576   0.00000  Uiso   1.00
H27    H     0.82623   0.68905   0.01499   0.00000  Uiso   1.00
H28    H     0.68808   0.08924   0.18497   0.00000  Uiso   1.00
H29    H     0.58361   0.44974   0.24855   0.00000  Uiso   1.00
H30    H     0.88948   0.64956   0.88844   0.00000  Uiso   1.00
H31    H     0.48087   0.75351   0.00012   0.00000  Uiso   1.00
H32    H     0.45847   0.92480   0.03377   0.00000  Uiso   1.00
H33    H     0.40892   0.62152   0.06394   0.00000  Uiso   1.00
H34    H     0.55397   0.71628   0.89317   0.00000  Uiso   1.00
H35    H     0.46711   0.11134   0.08609   0.00000  Uiso   1.00
H36    H     0.36264   0.47184   0.14968   0.00000  Uiso   1.00
H37    H     0.66850   0.67166   0.78957   0.00000  Uiso   1.00
O38    O     0.56750   0.21249   0.15977   0.00000  Uiso   1.00
O39    O     0.43045   0.37349   0.24318   0.00000  Uiso   1.00
O40    O     0.83174   0.63565   0.77073   0.00000  Uiso   1.00
N41    N     0.63916   0.07094   0.15707   0.00000  Uiso   1.00
N42    N     0.54148   0.47305   0.21652   0.00000  Uiso   1.00
N43    N     0.82744   0.65985   0.87986   0.00000  Uiso   1.00
N44    N     0.52025   0.08283   0.10386   0.00000  Uiso   1.00
N45    N     0.42258   0.48495   0.16332   0.00000  Uiso   1.00
N46    N     0.70853   0.67174   0.82665   0.00000  Uiso   1.00
C47    C     0.82016   0.26639   0.58915   0.00000  Uiso   1.00
C48    C     0.86042   0.17051   0.59486   0.00000  Uiso   1.00
C49    C     0.82805   0.09653   0.62930   0.00000  Uiso   1.00
C50    C     0.87437   0.01457   0.62856   0.00000  Uiso   1.00
C51    C     0.92535   0.86687   0.64262   0.00000  Uiso   1.00
C52    C     0.88735   0.33528   0.61125   0.00000  Uiso   1.00
C53    C     0.87761   0.39985   0.65947   0.00000  Uiso   1.00
C54    C     0.94659   0.45661   0.67253   0.00000  Uiso   1.00
C55    C     0.03936   0.56476   0.71201   0.00000  Uiso   1.00
C56    C     0.80854   0.28379   0.51847   0.00000  Uiso   1.00
C57    C     0.73253   0.30508   0.48867   0.00000  Uiso   1.00
C58    C     0.73517   0.31850   0.42361   0.00000  Uiso   1.00
C59    C     0.70557   0.34671   0.31903   0.00000  Uiso   1.00
C60    C     0.95999   0.25240   0.52658   0.00000  Uiso   1.00
C61    C     0.93638   0.16292   0.56087   0.00000  Uiso   1.00
C62    C     0.98276   0.08106   0.56008   0.00000  Uiso   1.00
C63    C     0.95045   0.00696   0.59451   0.00000  Uiso   1.00
C64    C     0.96330   0.32769   0.57727   0.00000  Uiso   1.00
C65    C     0.03232   0.38437   0.59025   0.00000  Uiso   1.00
C66    C     0.02268   0.44900   0.63848   0.00000  Uiso   1.00
C67    C     0.88449   0.27619   0.48448   0.00000  Uiso   1.00
C68    C     0.88724   0.28960   0.41945   0.00000  Uiso   1.00
C69    C     0.81126   0.31090   0.38956   0.00000  Uiso   1.00
H70    H     0.76103   0.27230   0.61561   0.00000  Uiso   1.00
H71    H     0.76927   0.10243   0.65560   0.00000  Uiso   1.00
H72    H     0.81882   0.40571   0.68576   0.00000  Uiso   1.00
H73    H     0.67377   0.31095   0.51499   0.00000  Uiso   1.00
H74    H     0.81192   0.91076   0.68497   0.00000  Uiso   1.00
H75    H     0.91639   0.55026   0.74855   0.00000  Uiso   1.00
H76    H     0.61052   0.35044   0.38844   0.00000  Uiso   1.00
H77    H     0.01913   0.24649   0.50012   0.00000  Uiso   1.00
H78    H     0.04153   0.07520   0.53377   0.00000  Uiso   1.00
H79    H     0.09108   0.37848   0.56394   0.00000  Uiso   1.00
H80    H     0.94603   0.28372   0.39317   0.00000  Uiso   1.00
H81    H     0.03289   0.88866   0.58609   0.00000  Uiso   1.00
H82    H     0.13736   0.52816   0.64968   0.00000  Uiso   1.00
H83    H     0.83150   0.32834   0.28957   0.00000  Uiso   1.00
O84    O     0.93250   0.78751   0.65977   0.00000  Uiso   1.00
O85    O     0.06955   0.62651   0.74318   0.00000  Uiso   1.00
O86    O     0.66826   0.36435   0.27073   0.00000  Uiso   1.00
N87    N     0.86084   0.92906   0.65707   0.00000  Uiso   1.00
N88    N     0.95852   0.52695   0.71652   0.00000  Uiso   1.00
N89    N     0.67256   0.34015   0.37986   0.00000  Uiso   1.00
N90    N     0.97975   0.91717   0.60386   0.00000  Uiso   1.00
N91    N     0.07742   0.51505   0.66332   0.00000  Uiso   1.00
N92    N     0.79147   0.32826   0.32665   0.00000  Uiso   1.00
C93    C     0.32016   0.23361   0.41085   0.00000  Uiso   1.00
C94    C     0.36042   0.32949   0.40514   0.00000  Uiso   1.00
C95    C     0.32805   0.40347   0.37070   0.00000  Uiso   1.00
C96    C     0.37437   0.48543   0.37144   0.00000  Uiso   1.00
C97    C     0.42535   0.63313   0.35738   0.00000  Uiso   1.00
C98    C     0.38735   0.16472   0.38875   0.00000  Uiso   1.00
C99    C     0.37761   0.10015   0.34053   0.00000  Uiso   1.00
C100   C     0.44659   0.04339   0.32747   0.00000  Uiso   1.00
C101   C     0.53936   0.93524   0.28799   0.00000  Uiso   1.00
C102   C     0.30854   0.21621   0.48153   0.00000  Uiso   1.00
C103   C     0.23253   0.19492   0.51133   0.00000  Uiso   1.00
C104   C     0.23517   0.18150   0.57639   0.00000  Uiso   1.00
C105   C     0.20557   0.15329   0.68097   0.00000  Uiso   1.00
C106   C     0.45999   0.24760   0.47342   0.00000  Uiso   1.00
C107   C     0.43638   0.33708   0.43913   0.00000  Uiso   1.00
C108   C     0.48276   0.41894   0.43992   0.00000  Uiso   1.00
C109   C     0.45045   0.49304   0.40549   0.00000  Uiso   1.00
C110   C     0.46330   0.17231   0.42273   0.00000  Uiso   1.00
C111   C     0.53232   0.11563   0.40975   0.00000  Uiso   1.00
C112   C     0.52268   0.05100   0.36152   0.00000  Uiso   1.00
C113   C     0.38449   0.22381   0.51552   0.00000  Uiso   1.00
C114   C     0.38724   0.21040   0.58055   0.00000  Uiso   1.00
C115   C     0.31126   0.18910   0.61044   0.00000  Uiso   1.00
H116   H     0.26103   0.22770   0.38439   0.00000  Uiso   1.00
H117   H     0.26927   0.39757   0.34440   0.00000  Uiso   1.00
H118   H     0.31882   0.09429   0.31424   0.00000  Uiso   1.00
H119   H     0.17377   0.18905   0.48501   0.00000  Uiso   1.00
H120   H     0.31192   0.58924   0.31503   0.00000  Uiso   1.00
H121   H     0.41639   0.94974   0.25145   0.00000  Uiso   1.00
H122   H     0.11052   0.14956   0.61156   0.00000  Uiso   1.00
H123   H     0.51913   0.25351   0.49988   0.00000  Uiso   1.00
H124   H     0.54153   0.42480   0.46623   0.00000  Uiso   1.00
H125   H     0.59108   0.12152   0.43606   0.00000  Uiso   1.00
H126   H     0.44603   0.21628   0.60683   0.00000  Uiso   1.00
H127   H     0.53289   0.61134   0.41391   0.00000  Uiso   1.00
H128   H     0.63736   0.97184   0.35032   0.00000  Uiso   1.00
H129   H     0.33150   0.17166   0.71043   0.00000  Uiso   1.00
O130   O     0.43250   0.71249   0.34023   0.00000  Uiso   1.00
O131   O     0.56955   0.87349   0.25682   0.00000  Uiso   1.00
O132   O     0.16826   0.13565   0.72927   0.00000  Uiso   1.00
N133   N     0.36084   0.57094   0.34293   0.00000  Uiso   1.00
N134   N     0.45852   0.97305   0.28348   0.00000  Uiso   1.00
N135   N     0.17256   0.15985   0.62014   0.00000  Uiso   1.00
N136   N     0.47975   0.58283   0.39614   0.00000  Uiso   1.00
N137   N     0.57742   0.98495   0.33668   0.00000  Uiso   1.00
N138   N     0.29147   0.17174   0.67335   0.00000  Uiso   1.00
C139   C     0.17984   0.76639   0.91085   0.00000  Uiso   1.00
C140   C     0.13958   0.67051   0.90514   0.00000  Uiso   1.00
C141   C     0.17195   0.59653   0.87070   0.00000  Uiso   1.00
C142   C     0.12563   0.51457   0.87144   0.00000  Uiso   1.00
C143   C     0.07465   0.36687   0.85738   0.00000  Uiso   1.00
C144   C     0.11265   0.83528   0.88875   0.00000  Uiso   1.00
C145   C     0.12239   0.89985   0.84053   0.00000  Uiso   1.00
C146   C     0.05341   0.95661   0.82747   0.00000  Uiso   1.00
C147   C     0.96064   0.06476   0.78799   0.00000  Uiso   1.00
C148   C     0.19146   0.78379   0.98153   0.00000  Uiso   1.00
C149   C     0.26747   0.80508   0.01133   0.00000  Uiso   1.00
C150   C     0.26483   0.81850   0.07639   0.00000  Uiso   1.00
C151   C     0.29443   0.84671   0.18097   0.00000  Uiso   1.00
C152   C     0.04001   0.75240   0.97342   0.00000  Uiso   1.00
C153   C     0.06362   0.66292   0.93913   0.00000  Uiso   1.00
C154   C     0.01724   0.58106   0.93992   0.00000  Uiso   1.00
C155   C     0.04955   0.50696   0.90549   0.00000  Uiso   1.00
C156   C     0.03670   0.82769   0.92273   0.00000  Uiso   1.00
C157   C     0.96768   0.88437   0.90975   0.00000  Uiso   1.00
C158   C     0.97732   0.94900   0.86152   0.00000  Uiso   1.00
C159   C     0.11551   0.77619   0.01552   0.00000  Uiso   1.00
C160   C     0.11276   0.78960   0.08055   0.00000  Uiso   1.00
C161   C     0.18874   0.81090   0.11044   0.00000  Uiso   1.00
H162   H     0.23897   0.77230   0.88439   0.00000  Uiso   1.00
H163   H     0.23073   0.60243   0.84440   0.00000  Uiso   1.00
H164   H     0.18118   0.90571   0.81424   0.00000  Uiso   1.00
H165   H     0.32623   0.81095   0.98501   0.00000  Uiso   1.00
H166   H     0.18808   0.41076   0.81503   0.00000  Uiso   1.00
H167   H     0.08361   0.05026   0.75145   0.00000  Uiso   1.00
H168   H     0.38948   0.85044   0.11156   0.00000  Uiso   1.00
H169   H     0.98087   0.74649   0.99988   0.00000  Uiso   1.00
H170   H     0.95847   0.57520   0.96623   0.00000  Uiso   1.00
H171   H     0.90892   0.87848   0.93606   0.00000  Uiso   1.00
H172   H     0.05397   0.78372   0.10683   0.00000  Uiso   1.00
H173   H     0.96711   0.38866   0.91391   0.00000  Uiso   1.00
H174   H     0.86264   0.02816   0.85032   0.00000  Uiso   1.00
H175   H     0.16850   0.82834   0.21043   0.00000  Uiso   1.00
O176   O     0.06750   0.28751   0.84023   0.00000  Uiso   1.00
O177   O     0.93045   0.12651   0.75682   0.00000  Uiso   1.00
O178   O     0.33174   0.86435   0.22927   0.00000  Uiso   1.00
N179   N     0.13916   0.42906   0.84293   0.00000  Uiso   1.00
N180   N     0.04148   0.02695   0.78348   0.00000  Uiso   1.00
N181   N     0.32744   0.84015   0.12014   0.00000  Uiso   1.00
N182   N     0.02025   0.41717   0.89614   0.00000  Uiso   1.00
N183   N     0.92258   0.01505   0.83668   0.00000  Uiso   1.00
N184   N     0.20853   0.82826   0.17335   0.00000  Uiso   1.00
C185   C     0.32016   0.26639   0.91085   0.00000  Uiso   1.00
C186   C     0.36042   0.17051   0.90514   0.00000  Uiso   1.00
C187   C     0.32805   0.09653   0.87070   0.00000  Uiso   1.00
C188   C     0.37437   0.01457   0.87144   0.00000  Uiso   1.00
C189   C     0.42535   0.86687   0.85738   0.00000  Uiso   1.00
C190   C     0.38735   0.33528   0.88875   0.00000  Uiso   1.00
C191   C     0.37761   0.39985   0.84053   0.00000  Uiso   1.00
C192   C     0.44659   0.45661   0.82747   0.00000  Uiso   1.00
C193   C     0.53936   0.56476   0.78799   0.00000  Uiso   1.00
C194   C     0.30854   0.28379   0.98153   0.00000  Uiso   1.00
C195   C     0.23253   0.30508   0.01133   0.00000  Uiso   1.00
C196   C     0.23517   0.31850   0.07639   0.00000  Uiso   1.00
C197   C     0.20557   0.34671   0.18097   0.00000  Uiso   1.00
C198   C     0.45999   0.25240   0.97342   0.00000  Uiso   1.00
C199   C     0.43638   0.16292   0.93913   0.00000  Uiso   1.00
C200   C     0.48276   0.08106   0.93992   0.00000  Uiso   1.00
C201   C     0.45045   0.00696   0.90549   0.00000  Uiso   1.00
C202   C     0.46330   0.32769   0.92273   0.00000  Uiso   1.00
C203   C     0.53232   0.38437   0.90975   0.00000  Uiso   1.00
C204   C     0.52268   0.44900   0.86152   0.00000  Uiso   1.00
C205   C     0.38449   0.27619   0.01552   0.00000  Uiso   1.00
C206   C     0.38724   0.28960   0.08055   0.00000  Uiso   1.00
C207   C     0.31126   0.31090   0.11044   0.00000  Uiso   1.00
H208   H     0.26103   0.27230   0.88439   0.00000  Uiso   1.00
H209   H     0.26927   0.10243   0.84440   0.00000  Uiso   1.00
H210   H     0.31882   0.40571   0.81424   0.00000  Uiso   1.00
H211   H     0.17377   0.31095   0.98501   0.00000  Uiso   1.00
H212   H     0.31192   0.91076   0.81503   0.00000  Uiso   1.00
H213   H     0.41639   0.55026   0.75145   0.00000  Uiso   1.00
H214   H     0.11052   0.35044   0.11156   0.00000  Uiso   1.00
H215   H     0.51913   0.24649   0.99988   0.00000  Uiso   1.00
H216   H     0.54153   0.07520   0.96623   0.00000  Uiso   1.00
H217   H     0.59108   0.37848   0.93606   0.00000  Uiso   1.00
H218   H     0.44603   0.28372   0.10683   0.00000  Uiso   1.00
H219   H     0.53289   0.88866   0.91391   0.00000  Uiso   1.00
H220   H     0.63736   0.52816   0.85032   0.00000  Uiso   1.00
H221   H     0.33150   0.32834   0.21043   0.00000  Uiso   1.00
O222   O     0.43250   0.78751   0.84023   0.00000  Uiso   1.00
O223   O     0.56955   0.62651   0.75682   0.00000  Uiso   1.00
O224   O     0.16826   0.36435   0.22927   0.00000  Uiso   1.00
N225   N     0.36084   0.92906   0.84293   0.00000  Uiso   1.00
N226   N     0.45852   0.52695   0.78348   0.00000  Uiso   1.00
N227   N     0.17256   0.34015   0.12014   0.00000  Uiso   1.00
N228   N     0.47975   0.91717   0.89614   0.00000  Uiso   1.00
N229   N     0.57742   0.51505   0.83668   0.00000  Uiso   1.00
N230   N     0.29147   0.32826   0.17335   0.00000  Uiso   1.00
C231   C     0.17984   0.73361   0.41085   0.00000  Uiso   1.00
C232   C     0.13958   0.82949   0.40514   0.00000  Uiso   1.00
C233   C     0.17195   0.90347   0.37070   0.00000  Uiso   1.00
C234   C     0.12563   0.98543   0.37144   0.00000  Uiso   1.00
C235   C     0.07465   0.13313   0.35738   0.00000  Uiso   1.00
C236   C     0.11265   0.66472   0.38875   0.00000  Uiso   1.00
C237   C     0.12239   0.60015   0.34053   0.00000  Uiso   1.00
C238   C     0.05341   0.54339   0.32747   0.00000  Uiso   1.00
C239   C     0.96064   0.43524   0.28799   0.00000  Uiso   1.00
C240   C     0.19146   0.71621   0.48153   0.00000  Uiso   1.00
C241   C     0.26747   0.69492   0.51133   0.00000  Uiso   1.00
C242   C     0.26483   0.68150   0.57639   0.00000  Uiso   1.00
C243   C     0.29443   0.65329   0.68097   0.00000  Uiso   1.00
C244   C     0.04001   0.74760   0.47342   0.00000  Uiso   1.00
C245   C     0.06362   0.83708   0.43913   0.00000  Uiso   1.00
C246   C     0.01724   0.91894   0.43992   0.00000  Uiso   1.00
C247   C     0.04955   0.99304   0.40549   0.00000  Uiso   1.00
C248   C     0.03670   0.67231   0.42273   0.00000  Uiso   1.00
C249   C     0.96768   0.61563   0.40975   0.00000  Uiso   1.00
C250   C     0.97732   0.55100   0.36152   0.00000  Uiso   1.00
C251   C     0.11551   0.72381   0.51552   0.00000  Uiso   1.00
C252   C     0.11276   0.71040   0.58055   0.00000  Uiso   1.00
C253   C     0.18874   0.68910   0.61044   0.00000  Uiso   1.00
H254   H     0.23897   0.72770   0.38439   0.00000  Uiso   1.00
H255   H     0.23073   0.89757   0.34440   0.00000  Uiso   1.00
H256   H     0.18118   0.59429   0.31424   0.00000  Uiso   1.00
H257   H     0.32623   0.68905   0.48501   0.00000  Uiso   1.00
H258   H     0.18808   0.08924   0.31503   0.00000  Uiso   1.00
H259   H     0.08361   0.44974   0.25145   0.00000  Uiso   1.00
H260   H     0.38948   0.64956   0.61156   0.00000  Uiso   1.00
H261   H     0.98087   0.75351   0.49988   0.00000  Uiso   1.00
H262   H     0.95847   0.92480   0.46623   0.00000  Uiso   1.00
H263   H     0.90892   0.62152   0.43606   0.00000  Uiso   1.00
H264   H     0.05397   0.71628   0.60683   0.00000  Uiso   1.00
H265   H     0.96711   0.11134   0.41391   0.00000  Uiso   1.00
H266   H     0.86264   0.47184   0.35032   0.00000  Uiso   1.00
H267   H     0.16850   0.67166   0.71043   0.00000  Uiso   1.00
O268   O     0.06750   0.21249   0.34023   0.00000  Uiso   1.00
O269   O     0.93045   0.37349   0.25682   0.00000  Uiso   1.00
O270   O     0.33174   0.63565   0.72927   0.00000  Uiso   1.00
N271   N     0.13916   0.07094   0.34293   0.00000  Uiso   1.00
N272   N     0.04148   0.47305   0.28348   0.00000  Uiso   1.00
N273   N     0.32744   0.65985   0.62014   0.00000  Uiso   1.00
N274   N     0.02025   0.08283   0.39614   0.00000  Uiso   1.00
N275   N     0.92258   0.48495   0.33668   0.00000  Uiso   1.00
N276   N     0.20853   0.67174   0.67335   0.00000  Uiso   1.00
C277   C     0.67984   0.76639   0.58915   0.00000  Uiso   1.00
C278   C     0.63958   0.67051   0.59486   0.00000  Uiso   1.00
C279   C     0.67195   0.59653   0.62930   0.00000  Uiso   1.00
C280   C     0.62563   0.51457   0.62856   0.00000  Uiso   1.00
C281   C     0.57465   0.36687   0.64262   0.00000  Uiso   1.00
C282   C     0.61265   0.83528   0.61125   0.00000  Uiso   1.00
C283   C     0.62239   0.89985   0.65947   0.00000  Uiso   1.00
C284   C     0.55341   0.95661   0.67253   0.00000  Uiso   1.00
C285   C     0.46064   0.06476   0.71201   0.00000  Uiso   1.00
C286   C     0.69146   0.78379   0.51847   0.00000  Uiso   1.00
C287   C     0.76747   0.80508   0.48867   0.00000  Uiso   1.00
C288   C     0.76483   0.81850   0.42361   0.00000  Uiso   1.00
C289   C     0.79443   0.84671   0.31903   0.00000  Uiso   1.00
C290   C     0.54001   0.75240   0.52658   0.00000  Uiso   1.00
C291   C     0.56362   0.66292   0.56087   0.00000  Uiso   1.00
C292   C     0.51724   0.58106   0.56008   0.00000  Uiso   1.00
C293   C     0.54955   0.50696   0.59451   0.00000  Uiso   1.00
C294   C     0.53670   0.82769   0.57727   0.00000  Uiso   1.00
C295   C     0.46768   0.88437   0.59025   0.00000  Uiso   1.00
C296   C     0.47732   0.94900   0.63848   0.00000  Uiso   1.00
C297   C     0.61551   0.77619   0.48448   0.00000  Uiso   1.00
C298   C     0.61276   0.78960   0.41945   0.00000  Uiso   1.00
C299   C     0.68874   0.81090   0.38956   0.00000  Uiso   1.00
H300   H     0.73897   0.77230   0.61561   0.00000  Uiso   1.00
H301   H     0.73073   0.60243   0.65560   0.00000  Uiso   1.00
H302   H     0.68118   0.90571   0.68576   0.00000  Uiso   1.00
H303   H     0.82623   0.81095   0.51499   0.00000  Uiso   1.00
H304   H     0.68808   0.41076   0.68497   0.00000  Uiso   1.00
H305   H     0.58361   0.05026   0.74855   0.00000  Uiso   1.00
H306   H     0.88948   0.85044   0.38844   0.00000  Uiso   1.00
H307   H     0.48087   0.74649   0.50012   0.00000  Uiso   1.00
H308   H     0.45847   0.57520   0.53377   0.00000  Uiso   1.00
H309   H     0.40892   0.87848   0.56394   0.00000  Uiso   1.00
H310   H     0.55397   0.78372   0.39317   0.00000  Uiso   1.00
H311   H     0.46711   0.38866   0.58609   0.00000  Uiso   1.00
H312   H     0.36264   0.02816   0.64968   0.00000  Uiso   1.00
H313   H     0.66850   0.82834   0.28957   0.00000  Uiso   1.00
O314   O     0.56750   0.28751   0.65977   0.00000  Uiso   1.00
O315   O     0.43045   0.12651   0.74318   0.00000  Uiso   1.00
O316   O     0.83174   0.86435   0.27073   0.00000  Uiso   1.00
N317   N     0.63916   0.42906   0.65707   0.00000  Uiso   1.00
N318   N     0.54148   0.02695   0.71652   0.00000  Uiso   1.00
N319   N     0.82744   0.84015   0.37986   0.00000  Uiso   1.00
N320   N     0.52025   0.41717   0.60386   0.00000  Uiso   1.00
N321   N     0.42258   0.01505   0.66332   0.00000  Uiso   1.00
N322   N     0.70853   0.82826   0.32665   0.00000  Uiso   1.00
C323   C     0.82016   0.23361   0.08915   0.00000  Uiso   1.00
C324   C     0.86042   0.32949   0.09486   0.00000  Uiso   1.00
C325   C     0.82805   0.40347   0.12930   0.00000  Uiso   1.00
C326   C     0.87437   0.48543   0.12856   0.00000  Uiso   1.00
C327   C     0.92535   0.63313   0.14262   0.00000  Uiso   1.00
C328   C     0.88735   0.16472   0.11125   0.00000  Uiso   1.00
C329   C     0.87761   0.10015   0.15947   0.00000  Uiso   1.00
C330   C     0.94659   0.04339   0.17253   0.00000  Uiso   1.00
C331   C     0.03936   0.93524   0.21201   0.00000  Uiso   1.00
C332   C     0.80854   0.21621   0.01847   0.00000  Uiso   1.00
C333   C     0.73253   0.19492   0.98867   0.00000  Uiso   1.00
C334   C     0.73517   0.18150   0.92361   0.00000  Uiso   1.00
C335   C     0.70557   0.15329   0.81903   0.00000  Uiso   1.00
C336   C     0.95999   0.24760   0.02658   0.00000  Uiso   1.00
C337   C     0.93638   0.33708   0.06087   0.00000  Uiso   1.00
C338   C     0.98276   0.41894   0.06008   0.00000  Uiso   1.00
C339   C     0.95045   0.49304   0.09451   0.00000  Uiso   1.00
C340   C     0.96330   0.17231   0.07727   0.00000  Uiso   1.00
C341   C     0.03232   0.11563   0.09025   0.00000  Uiso   1.00
C342   C     0.02268   0.05100   0.13848   0.00000  Uiso   1.00
C343   C     0.88449   0.22381   0.98448   0.00000  Uiso   1.00
C344   C     0.88724   0.21040   0.91945   0.00000  Uiso   1.00
C345   C     0.81126   0.18910   0.88956   0.00000  Uiso   1.00
H346   H     0.76103   0.22770   0.11561   0.00000  Uiso   1.00
H347   H     0.76927   0.39757   0.15560   0.00000  Uiso   1.00
H348   H     0.81882   0.09429   0.18576   0.00000  Uiso   1.00
H349   H     0.67377   0.18905   0.01499   0.00000  Uiso   1.00
H350   H     0.81192   0.58924   0.18497   0.00000  Uiso   1.00
H351   H     0.91639   0.94974   0.24855   0.00000  Uiso   1.00
H352   H     0.61052   0.14956   0.88844   0.00000  Uiso   1.00
H353   H     0.01913   0.25351   0.00012   0.00000  Uiso   1.00
H354   H     0.04153   0.42480   0.03377   0.00000  Uiso   1.00
H355   H     0.09108   0.12152   0.06394   0.00000  Uiso   1.00
H356   H     0.94603   0.21628   0.89317   0.00000  Uiso   1.00
H357   H     0.03289   0.61134   0.08609   0.00000  Uiso   1.00
H358   H     0.13736   0.97184   0.14968   0.00000  Uiso   1.00
H359   H     0.83150   0.17166   0.78957   0.00000  Uiso   1.00
O360   O     0.93250   0.71249   0.15977   0.00000  Uiso   1.00
O361   O     0.06955   0.87349   0.24318   0.00000  Uiso   1.00
O362   O     0.66826   0.13565   0.77073   0.00000  Uiso   1.00
N363   N     0.86084   0.57094   0.15707   0.00000  Uiso   1.00
N364   N     0.95852   0.97305   0.21652   0.00000  Uiso   1.00
N365   N     0.67256   0.15985   0.87986   0.00000  Uiso   1.00
N366   N     0.97975   0.58283   0.10386   0.00000  Uiso   1.00
N367   N     0.07742   0.98495   0.16332   0.00000  Uiso   1.00
N368   N     0.79147   0.17174   0.82665   0.00000  Uiso   1.00
