data_job_06823
_audit_creation_date              2018-12-19
_audit_creation_method            'Materials Studio'
_symmetry_space_group_name_H-M    'P1'
_symmetry_Int_Tables_number       1
_symmetry_cell_setting            triclinic
loop_
_symmetry_equiv_pos_as_xyz
  x,y,z
_cell_length_a                    20.3850
_cell_length_b                    20.8263
_cell_length_c                    23.4504
_cell_angle_alpha                 64.5061
_cell_angle_beta                  105.9044
_cell_angle_gamma                 92.0048
loop_
_atom_site_label
_atom_site_type_symbol
_atom_site_fract_x
_atom_site_fract_y
_atom_site_fract_z
_atom_site_U_iso_or_equiv
_atom_site_adp_type
_atom_site_occupancy
C1     C     0.63853   0.45180   0.63743   0.00000  Uiso   1.00
C2     C     0.62242   0.50668   0.56544   0.00000  Uiso   1.00
C3     C     0.59356   0.57635   0.53960   0.00000  Uiso   1.00
C4     C     0.58286   0.61814   0.47249   0.00000  Uiso   1.00
C5     C     0.55514   0.70745   0.36676   0.00000  Uiso   1.00
C6     C     0.60064   0.38740   0.63726   0.00000  Uiso   1.00
C7     C     0.55348   0.35678   0.67181   0.00000  Uiso   1.00
C8     C     0.52445   0.29816   0.66516   0.00000  Uiso   1.00
C9     C     0.46297   0.20226   0.67097   0.00000  Uiso   1.00
C10    C     0.71465   0.42727   0.65941   0.00000  Uiso   1.00
C11    C     0.76336   0.43014   0.71259   0.00000  Uiso   1.00
C12    C     0.83032   0.40506   0.72460   0.00000  Uiso   1.00
C13    C     0.94585   0.37105   0.76479   0.00000  Uiso   1.00
C14    C     0.67083   0.40213   0.56422   0.00000  Uiso   1.00
C15    C     0.63996   0.47970   0.52568   0.00000  Uiso   1.00
C16    C     0.62930   0.52140   0.45859   0.00000  Uiso   1.00
C17    C     0.60044   0.59112   0.43265   0.00000  Uiso   1.00
C18    C     0.61818   0.36043   0.59750   0.00000  Uiso   1.00
C19    C     0.58922   0.30183   0.59080   0.00000  Uiso   1.00
C20    C     0.54203   0.27113   0.62532   0.00000  Uiso   1.00
C21    C     0.73220   0.40029   0.61964   0.00000  Uiso   1.00
C22    C     0.79909   0.37519   0.63158   0.00000  Uiso   1.00
C23    C     0.84789   0.37803   0.68476   0.00000  Uiso   1.00
H24    H     0.62486   0.47280   0.66839   0.00000  Uiso   1.00
H25    H     0.57999   0.59721   0.57039   0.00000  Uiso   1.00
H26    H     0.53992   0.37767   0.70258   0.00000  Uiso   1.00
H27    H     0.74976   0.45102   0.74335   0.00000  Uiso   1.00
H28    H     0.53794   0.72323   0.44419   0.00000  Uiso   1.00
H29    H     0.45348   0.26031   0.72294   0.00000  Uiso   1.00
H30    H     0.89597   0.41498   0.80892   0.00000  Uiso   1.00
H31    H     0.68448   0.38112   0.53325   0.00000  Uiso   1.00
H32    H     0.64288   0.50050   0.42783   0.00000  Uiso   1.00
H33    H     0.60281   0.28097   0.56003   0.00000  Uiso   1.00
H34    H     0.81265   0.35432   0.60080   0.00000  Uiso   1.00
H35    H     0.58899   0.64474   0.32849   0.00000  Uiso   1.00
H36    H     0.50452   0.18182   0.60724   0.00000  Uiso   1.00
H37    H     0.94702   0.33649   0.69321   0.00000  Uiso   1.00
O38    O     0.53500   0.76417   0.31942   0.00000  Uiso   1.00
O39    O     0.42420   0.15683   0.68515   0.00000  Uiso   1.00
O40    O     0.00473   0.35976   0.79794   0.00000  Uiso   1.00
N41    N     0.55568   0.68838   0.43143   0.00000  Uiso   1.00
N42    N     0.47670   0.25558   0.69204   0.00000  Uiso   1.00
N43    N     0.89039   0.40017   0.77243   0.00000  Uiso   1.00
N44    N     0.58315   0.64615   0.36917   0.00000  Uiso   1.00
N45    N     0.50417   0.21335   0.62978   0.00000  Uiso   1.00
N46    N     0.91786   0.35794   0.71017   0.00000  Uiso   1.00
C47    C     0.99364   0.05393   0.28910   0.00000  Uiso   1.00
C48    C     0.94937   0.09249   0.30987   0.00000  Uiso   1.00
C49    C     0.91530   0.16043   0.27116   0.00000  Uiso   1.00
C50    C     0.87745   0.18624   0.29918   0.00000  Uiso   1.00
C51    C     0.80928   0.25233   0.32165   0.00000  Uiso   1.00
C52    C     0.06365   0.03460   0.34029   0.00000  Uiso   1.00
C53    C     0.12568   0.05386   0.32715   0.00000  Uiso   1.00
C54    C     0.18403   0.03093   0.38078   0.00000  Uiso   1.00
C55    C     0.29330   0.00709   0.45047   0.00000  Uiso   1.00
C56    C     0.96335   0.98332   0.29843   0.00000  Uiso   1.00
C57    C     0.94105   0.95944   0.25008   0.00000  Uiso   1.00
C58    C     0.91497   0.89333   0.26847   0.00000  Uiso   1.00
C59    C     0.86850   0.78988   0.27315   0.00000  Uiso   1.00
C60    C     0.98699   0.97896   0.40773   0.00000  Uiso   1.00
C61    C     0.94576   0.05177   0.37431   0.00000  Uiso   1.00
C62    C     0.90794   0.07749   0.40240   0.00000  Uiso   1.00
C63    C     0.87383   0.14545   0.36373   0.00000  Uiso   1.00
C64    C     0.06004   0.99388   0.40473   0.00000  Uiso   1.00
C65    C     0.11832   0.97091   0.45839   0.00000  Uiso   1.00
C66    C     0.18041   0.99013   0.44533   0.00000  Uiso   1.00
C67    C     0.95973   0.94260   0.36286   0.00000  Uiso   1.00
C68    C     0.93369   0.87650   0.38133   0.00000  Uiso   1.00
C69    C     0.91135   0.85254   0.33302   0.00000  Uiso   1.00
H70    H     0.99646   0.08563   0.23894   0.00000  Uiso   1.00
H71    H     0.91811   0.19193   0.22130   0.00000  Uiso   1.00
H72    H     0.12846   0.08536   0.27728   0.00000  Uiso   1.00
H73    H     0.94385   0.99097   0.20023   0.00000  Uiso   1.00
H74    H     0.82969   0.29183   0.23016   0.00000  Uiso   1.00
H75    H     0.27320   0.06712   0.34820   0.00000  Uiso   1.00
H76    H     0.88394   0.86807   0.18572   0.00000  Uiso   1.00
H77    H     0.98418   0.94725   0.45789   0.00000  Uiso   1.00
H78    H     0.90516   0.04596   0.45226   0.00000  Uiso   1.00
H79    H     0.11551   0.93940   0.50825   0.00000  Uiso   1.00
H80    H     0.93090   0.84501   0.43119   0.00000  Uiso   1.00
H81    H     0.81917   0.17336   0.41762   0.00000  Uiso   1.00
H82    H     0.26270   0.94864   0.53567   0.00000  Uiso   1.00
H83    H     0.87343   0.74960   0.37318   0.00000  Uiso   1.00
O84    O     0.77269   0.30004   0.31625   0.00000  Uiso   1.00
O85    O     0.35457   0.00521   0.47111   0.00000  Uiso   1.00
O86    O     0.84386   0.74406   0.25794   0.00000  Uiso   1.00
N87    N     0.83804   0.25040   0.27505   0.00000  Uiso   1.00
N88    N     0.25271   0.04031   0.38541   0.00000  Uiso   1.00
N89    N     0.88879   0.85421   0.23351   0.00000  Uiso   1.00
N90    N     0.83239   0.18665   0.37592   0.00000  Uiso   1.00
N91    N     0.24705   0.97656   0.48628   0.00000  Uiso   1.00
N92    N     0.88314   0.79046   0.33438   0.00000  Uiso   1.00
C93    C     0.32806   0.42341   0.00935   0.00000  Uiso   1.00
C94    C     0.39020   0.46230   0.02503   0.00000  Uiso   1.00
C95    C     0.38840   0.52752   0.02764   0.00000  Uiso   1.00
C96    C     0.45084   0.55418   0.04282   0.00000  Uiso   1.00
C97    C     0.53789   0.62026   0.06530   0.00000  Uiso   1.00
C98    C     0.33230   0.41131   0.95072   0.00000  Uiso   1.00
C99    C     0.28182   0.43365   0.89085   0.00000  Uiso   1.00
C100   C     0.29553   0.41737   0.84348   0.00000  Uiso   1.00
C101   C     0.29268   0.40425   0.75062   0.00000  Uiso   1.00
C102   C     0.33987   0.34957   0.06758   0.00000  Uiso   1.00
C103   C     0.29574   0.31999   0.10595   0.00000  Uiso   1.00
C104   C     0.31581   0.25172   0.15695   0.00000  Uiso   1.00
C105   C     0.32472   0.14274   0.24551   0.00000  Uiso   1.00
C106   C     0.44216   0.35478   0.03168   0.00000  Uiso   1.00
C107   C     0.45217   0.42503   0.03716   0.00000  Uiso   1.00
C108   C     0.51464   0.45159   0.05235   0.00000  Uiso   1.00
C109   C     0.51293   0.51683   0.05498   0.00000  Uiso   1.00
C110   C     0.39428   0.37404   0.96285   0.00000  Uiso   1.00
C111   C     0.40806   0.35772   0.91556   0.00000  Uiso   1.00
C112   C     0.35761   0.38003   0.85564   0.00000  Uiso   1.00
C113   C     0.40185   0.31230   0.07971   0.00000  Uiso   1.00
C114   C     0.42199   0.24406   0.13066   0.00000  Uiso   1.00
C115   C     0.37790   0.21438   0.16910   0.00000  Uiso   1.00
H116   H     0.27981   0.45242   0.99990   0.00000  Uiso   1.00
H117   H     0.34042   0.55635   0.01824   0.00000  Uiso   1.00
H118   H     0.23386   0.46249   0.88148   0.00000  Uiso   1.00
H119   H     0.24779   0.34885   0.09654   0.00000  Uiso   1.00
H120   H     0.43495   0.65515   0.04390   0.00000  Uiso   1.00
H121   H     0.21026   0.45721   0.75555   0.00000  Uiso   1.00
H122   H     0.23962   0.21758   0.20905   0.00000  Uiso   1.00
H123   H     0.49041   0.32576   0.04113   0.00000  Uiso   1.00
H124   H     0.56259   0.42273   0.06174   0.00000  Uiso   1.00
H125   H     0.45602   0.32887   0.92497   0.00000  Uiso   1.00
H126   H     0.46995   0.21523   0.14004   0.00000  Uiso   1.00
H127   H     0.61527   0.54670   0.07920   0.00000  Uiso   1.00
H128   H     0.39057   0.34876   0.79084   0.00000  Uiso   1.00
H129   H     0.41993   0.10913   0.24435   0.00000  Uiso   1.00
O130   O     0.56879   0.66702   0.07434   0.00000  Uiso   1.00
O131   O     0.27399   0.40732   0.69604   0.00000  Uiso   1.00
O132   O     0.31251   0.09293   0.29102   0.00000  Uiso   1.00
N133   N     0.46749   0.61631   0.04939   0.00000  Uiso   1.00
N134   N     0.25741   0.43126   0.77979   0.00000  Uiso   1.00
N135   N     0.28485   0.20722   0.20377   0.00000  Uiso   1.00
N136   N     0.56451   0.55795   0.06839   0.00000  Uiso   1.00
N137   N     0.35444   0.37291   0.79879   0.00000  Uiso   1.00
N138   N     0.38188   0.14886   0.22276   0.00000  Uiso   1.00
C139   C     0.31289   0.94181   0.01451   0.00000  Uiso   1.00
C140   C     0.33456   0.99890   0.95726   0.00000  Uiso   1.00
C141   C     0.33930   0.07010   0.94479   0.00000  Uiso   1.00
C142   C     0.36008   0.11382   0.88992   0.00000  Uiso   1.00
C143   C     0.39140   0.20651   0.80726   0.00000  Uiso   1.00
C144   C     0.37134   0.88214   0.05112   0.00000  Uiso   1.00
C145   C     0.40699   0.85516   0.11756   0.00000  Uiso   1.00
C146   C     0.45873   0.80058   0.14169   0.00000  Uiso   1.00
C147   C     0.54713   0.71197   0.20476   0.00000  Uiso   1.00
C148   C     0.25229   0.91081   0.98357   0.00000  Uiso   1.00
C149   C     0.18786   0.90792   0.99323   0.00000  Uiso   1.00
C150   C     0.13937   0.87747   0.96050   0.00000  Uiso   1.00
C151   C     0.04293   0.83337   0.91868   0.00000  Uiso   1.00
C152   C     0.34136   0.89283   0.93922   0.00000  Uiso   1.00
C153   C     0.35003   0.97230   0.91637   0.00000  Uiso   1.00
C154   C     0.37080   0.01592   0.86150   0.00000  Uiso   1.00
C155   C     0.37557   0.08717   0.84895   0.00000  Uiso   1.00
C156   C     0.38681   0.85554   0.01023   0.00000  Uiso   1.00
C157   C     0.43850   0.80098   0.03427   0.00000  Uiso   1.00
C158   C     0.47423   0.77393   0.10073   0.00000  Uiso   1.00
C159   C     0.26776   0.88421   0.94267   0.00000  Uiso   1.00
C160   C     0.21937   0.85374   0.90993   0.00000  Uiso   1.00
C161   C     0.15487   0.85082   0.91953   0.00000  Uiso   1.00
H162   H     0.30085   0.96251   0.04635   0.00000  Uiso   1.00
H163   H     0.32733   0.09066   0.97646   0.00000  Uiso   1.00
H164   H     0.39501   0.87576   0.14920   0.00000  Uiso   1.00
H165   H     0.17591   0.92851   0.02488   0.00000  Uiso   1.00
H166   H     0.36353   0.22101   0.88094   0.00000  Uiso   1.00
H167   H     0.50622   0.76785   0.24518   0.00000  Uiso   1.00
H168   H     0.04421   0.87909   0.98303   0.00000  Uiso   1.00
H169   H     0.35341   0.87212   0.90739   0.00000  Uiso   1.00
H170   H     0.38277   0.99532   0.82986   0.00000  Uiso   1.00
H171   H     0.45045   0.78041   0.00261   0.00000  Uiso   1.00
H172   H     0.23135   0.83316   0.87829   0.00000  Uiso   1.00
H173   H     0.40853   0.14362   0.76196   0.00000  Uiso   1.00
H174   H     0.55122   0.69046   0.12621   0.00000  Uiso   1.00
H175   H     0.08921   0.80170   0.86405   0.00000  Uiso   1.00
O176   O     0.40442   0.26498   0.77297   0.00000  Uiso   1.00
O177   O     0.59162   0.67045   0.25084   0.00000  Uiso   1.00
O178   O     0.98546   0.81640   0.90691   0.00000  Uiso   1.00
N179   N     0.37008   0.18589   0.86357   0.00000  Uiso   1.00
N180   N     0.50350   0.76222   0.20411   0.00000  Uiso   1.00
N181   N     0.07155   0.86621   0.95904   0.00000  Uiso   1.00
N182   N     0.39429   0.14425   0.79955   0.00000  Uiso   1.00
N183   N     0.52771   0.72058   0.14009   0.00000  Uiso   1.00
N184   N     0.09577   0.82457   0.89502   0.00000  Uiso   1.00
C185   C     0.96580   0.52168   0.17264   0.00000  Uiso   1.00
C186   C     0.96585   0.53485   0.23178   0.00000  Uiso   1.00
C187   C     0.99163   0.59220   0.24310   0.00000  Uiso   1.00
C188   C     0.98684   0.59462   0.30008   0.00000  Uiso   1.00
C189   C     0.99137   0.62316   0.38520   0.00000  Uiso   1.00
C190   C     0.89129   0.51574   0.14076   0.00000  Uiso   1.00
C191   C     0.85439   0.55701   0.07555   0.00000  Uiso   1.00
C192   C     0.78683   0.54334   0.05591   0.00000  Uiso   1.00
C193   C     0.67562   0.54218   0.99970   0.00000  Uiso   1.00
C194   C     0.00300   0.44751   0.20092   0.00000  Uiso   1.00
C195   C     0.06002   0.43141   0.18628   0.00000  Uiso   1.00
C196   C     0.08650   0.36029   0.21728   0.00000  Uiso   1.00
C197   C     0.14874   0.25319   0.25448   0.00000  Uiso   1.00
C198   C     0.91143   0.42400   0.25369   0.00000  Uiso   1.00
C199   C     0.93632   0.48180   0.27580   0.00000  Uiso   1.00
C200   C     0.93148   0.48413   0.33278   0.00000  Uiso   1.00
C201   C     0.95726   0.54147   0.34419   0.00000  Uiso   1.00
C202   C     0.86176   0.46269   0.18478   0.00000  Uiso   1.00
C203   C     0.79424   0.44895   0.16523   0.00000  Uiso   1.00
C204   C     0.75724   0.49019   0.10002   0.00000  Uiso   1.00
C205   C     0.97347   0.39446   0.24494   0.00000  Uiso   1.00
C206   C     0.99987   0.32334   0.27597   0.00000  Uiso   1.00
C207   C     0.05691   0.30714   0.26139   0.00000  Uiso   1.00
H208   H     0.98879   0.56298   0.13836   0.00000  Uiso   1.00
H209   H     0.01448   0.63325   0.20902   0.00000  Uiso   1.00
H210   H     0.87726   0.59806   0.04149   0.00000  Uiso   1.00
H211   H     0.08285   0.47248   0.15221   0.00000  Uiso   1.00
H212   H     0.02991   0.68777   0.30676   0.00000  Uiso   1.00
H213   H     0.74058   0.61356   0.95352   0.00000  Uiso   1.00
H214   H     0.17413   0.34874   0.18699   0.00000  Uiso   1.00
H215   H     0.88844   0.38270   0.28797   0.00000  Uiso   1.00
H216   H     0.90863   0.44307   0.36684   0.00000  Uiso   1.00
H217   H     0.77140   0.40788   0.19931   0.00000  Uiso   1.00
H218   H     0.97700   0.28230   0.31003   0.00000  Uiso   1.00
H219   H     0.94400   0.53341   0.43485   0.00000  Uiso   1.00
H220   H     0.65467   0.45920   0.08161   0.00000  Uiso   1.00
H221   H     0.08821   0.19439   0.31508   0.00000  Uiso   1.00
O222   O     0.00202   0.65357   0.41998   0.00000  Uiso   1.00
O223   O     0.62244   0.55620   0.95654   0.00000  Uiso   1.00
O224   O     0.19124   0.20878   0.26285   0.00000  Uiso   1.00
N225   N     0.00694   0.64315   0.32609   0.00000  Uiso   1.00
N226   N     0.73643   0.57377   0.99583   0.00000  Uiso   1.00
N227   N     0.14174   0.32619   0.21409   0.00000  Uiso   1.00
N228   N     0.96071   0.56009   0.39501   0.00000  Uiso   1.00
N229   N     0.69020   0.49072   0.06476   0.00000  Uiso   1.00
N230   N     0.09551   0.24314   0.28302   0.00000  Uiso   1.00
C231   C     0.74716   0.90749   0.55250   0.00000  Uiso   1.00
C232   C     0.68120   0.94079   0.55157   0.00000  Uiso   1.00
C233   C     0.67658   0.99460   0.57062   0.00000  Uiso   1.00
C234   C     0.61152   0.01781   0.56611   0.00000  Uiso   1.00
C235   C     0.51797   0.07404   0.56810   0.00000  Uiso   1.00
C236   C     0.73728   0.91696   0.48238   0.00000  Uiso   1.00
C237   C     0.77982   0.95073   0.44326   0.00000  Uiso   1.00
C238   C     0.76197   0.95386   0.38051   0.00000  Uiso   1.00
C239   C     0.75551   0.97305   0.27509   0.00000  Uiso   1.00
C240   C     0.74944   0.82739   0.59484   0.00000  Uiso   1.00
C241   C     0.80221   0.78584   0.65026   0.00000  Uiso   1.00
C242   C     0.79461   0.71356   0.68218   0.00000  Uiso   1.00
C243   C     0.80704   0.59368   0.75138   0.00000  Uiso   1.00
C244   C     0.63983   0.85300   0.51062   0.00000  Uiso   1.00
C245   C     0.62290   0.91119   0.52882   0.00000  Uiso   1.00
C246   C     0.55783   0.93432   0.52428   0.00000  Uiso   1.00
C247   C     0.55312   0.98815   0.54332   0.00000  Uiso   1.00
C248   C     0.67898   0.88736   0.45963   0.00000  Uiso   1.00
C249   C     0.66107   0.89044   0.39692   0.00000  Uiso   1.00
C250   C     0.70357   0.92421   0.35772   0.00000  Uiso   1.00
C251   C     0.69114   0.79779   0.57209   0.00000  Uiso   1.00
C252   C     0.68346   0.72556   0.60393   0.00000  Uiso   1.00
C253   C     0.73621   0.68391   0.65939   0.00000  Uiso   1.00
H254   H     0.79255   0.93054   0.57020   0.00000  Uiso   1.00
H255   H     0.72171   0.01750   0.58821   0.00000  Uiso   1.00
H256   H     0.82493   0.97362   0.46088   0.00000  Uiso   1.00
H257   H     0.84732   0.80877   0.66785   0.00000  Uiso   1.00
H258   H     0.61746   0.10088   0.59813   0.00000  Uiso   1.00
H259   H     0.83513   0.00834   0.32964   0.00000  Uiso   1.00
H260   H     0.88234   0.66071   0.76608   0.00000  Uiso   1.00
H261   H     0.59444   0.82996   0.49290   0.00000  Uiso   1.00
H262   H     0.51273   0.91140   0.50668   0.00000  Uiso   1.00
H263   H     0.61595   0.86753   0.37934   0.00000  Uiso   1.00
H264   H     0.63834   0.70267   0.58631   0.00000  Uiso   1.00
H265   H     0.44784   0.01477   0.53194   0.00000  Uiso   1.00
H266   H     0.66552   0.92223   0.26346   0.00000  Uiso   1.00
H267   H     0.71272   0.57460   0.69990   0.00000  Uiso   1.00
O268   O     0.48247   0.11323   0.57547   0.00000  Uiso   1.00
O269   O     0.76805   0.99182   0.22323   0.00000  Uiso   1.00
O270   O     0.82999   0.53573   0.79583   0.00000  Uiso   1.00
N271   N     0.58875   0.06943   0.58067   0.00000  Uiso   1.00
N272   N     0.79226   0.98292   0.32965   0.00000  Uiso   1.00
N273   N     0.83640   0.65791   0.73768   0.00000  Uiso   1.00
N274   N     0.49748   0.02309   0.54506   0.00000  Uiso   1.00
N275   N     0.70099   0.93659   0.29404   0.00000  Uiso   1.00
N276   N     0.74513   0.61157   0.70207   0.00000  Uiso   1.00
C277   C     0.35362   0.79527   0.31336   0.00000  Uiso   1.00
C278   C     0.36828   0.74024   0.38518   0.00000  Uiso   1.00
C279   C     0.39512   0.66985   0.41095   0.00000  Uiso   1.00
C280   C     0.40477   0.62805   0.47790   0.00000  Uiso   1.00
C281   C     0.43010   0.53841   0.58337   0.00000  Uiso   1.00
C282   C     0.39355   0.85828   0.31428   0.00000  Uiso   1.00
C283   C     0.44163   0.88715   0.28043   0.00000  Uiso   1.00
C284   C     0.47253   0.94472   0.28769   0.00000  Uiso   1.00
C285   C     0.53706   0.03837   0.28306   0.00000  Uiso   1.00
C286   C     0.27805   0.82219   0.29071   0.00000  Uiso   1.00
C287   C     0.22901   0.82072   0.23703   0.00000  Uiso   1.00
C288   C     0.16266   0.84793   0.22443   0.00000  Uiso   1.00
C289   C     0.04785   0.88554   0.18320   0.00000  Uiso   1.00
C290   C     0.32301   0.84621   0.38643   0.00000  Uiso   1.00
C291   C     0.35166   0.76791   0.42486   0.00000  Uiso   1.00
C292   C     0.36126   0.72621   0.49179   0.00000  Uiso   1.00
C293   C     0.38811   0.65577   0.51765   0.00000  Uiso   1.00
C294   C     0.37693   0.88595   0.35396   0.00000  Uiso   1.00
C295   C     0.40776   0.94350   0.36127   0.00000  Uiso   1.00
C296   C     0.45587   0.97244   0.32745   0.00000  Uiso   1.00
C297   C     0.26142   0.84986   0.33039   0.00000  Uiso   1.00
C298   C     0.19514   0.87707   0.31787   0.00000  Uiso   1.00
C299   C     0.14601   0.87564   0.26419   0.00000  Uiso   1.00
H300   H     0.36656   0.77373   0.28246   0.00000  Uiso   1.00
H301   H     0.40799   0.64846   0.38022   0.00000  Uiso   1.00
H302   H     0.45448   0.86573   0.24972   0.00000  Uiso   1.00
H303   H     0.24189   0.79931   0.20633   0.00000  Uiso   1.00
H304   H     0.44661   0.52179   0.50611   0.00000  Uiso   1.00
H305   H     0.54462   0.97992   0.23092   0.00000  Uiso   1.00
H306   H     0.09633   0.83986   0.13942   0.00000  Uiso   1.00
H307   H     0.31006   0.86775   0.41732   0.00000  Uiso   1.00
H308   H     0.34839   0.74763   0.52249   0.00000  Uiso   1.00
H309   H     0.39488   0.96490   0.39198   0.00000  Uiso   1.00
H310   H     0.18229   0.89848   0.34859   0.00000  Uiso   1.00
H311   H     0.39824   0.60228   0.62158   0.00000  Uiso   1.00
H312   H     0.49624   0.06041   0.34639   0.00000  Uiso   1.00
H313   H     0.04796   0.92035   0.25489   0.00000  Uiso   1.00
O314   O     0.44868   0.48133   0.63059   0.00000  Uiso   1.00
O315   O     0.57725   0.08238   0.26955   0.00000  Uiso   1.00
O316   O     0.98911   0.89863   0.14950   0.00000  Uiso   1.00
N317   N     0.42995   0.55721   0.51885   0.00000  Uiso   1.00
N318   N     0.52159   0.98553   0.26157   0.00000  Uiso   1.00
N319   N     0.10249   0.85461   0.17602   0.00000  Uiso   1.00
N320   N     0.40392   0.60052   0.58098   0.00000  Uiso   1.00
N321   N     0.49556   0.02884   0.32371   0.00000  Uiso   1.00
N322   N     0.07646   0.89792   0.23815   0.00000  Uiso   1.00
C323   C     0.99044   0.18823   0.64275   0.00000  Uiso   1.00
C324   C     0.03563   0.15154   0.62118   0.00000  Uiso   1.00
C325   C     0.06998   0.08362   0.65881   0.00000  Uiso   1.00
C326   C     0.10869   0.05967   0.63020   0.00000  Uiso   1.00
C327   C     0.17820   0.99622   0.60643   0.00000  Uiso   1.00
C328   C     0.92080   0.20813   0.59095   0.00000  Uiso   1.00
C329   C     0.85859   0.18780   0.60315   0.00000  Uiso   1.00
C330   C     0.80065   0.21151   0.54908   0.00000  Uiso   1.00
C331   C     0.69187   0.23596   0.47838   0.00000  Uiso   1.00
C332   C     0.02016   0.25864   0.63544   0.00000  Uiso   1.00
C333   C     0.04148   0.28079   0.68505   0.00000  Uiso   1.00
C334   C     0.06717   0.34704   0.66844   0.00000  Uiso   1.00
C335   C     0.11266   0.44991   0.66681   0.00000  Uiso   1.00
C336   C     0.99813   0.26648   0.52503   0.00000  Uiso   1.00
C337   C     0.03981   0.19404   0.55724   0.00000  Uiso   1.00
C338   C     0.07849   0.17020   0.52857   0.00000  Uiso   1.00
C339   C     0.11288   0.10225   0.56615   0.00000  Uiso   1.00
C340   C     0.92498   0.25063   0.52701   0.00000  Uiso   1.00
C341   C     0.86711   0.27438   0.47291   0.00000  Uiso   1.00
C342   C     0.80483   0.25409   0.48503   0.00000  Uiso   1.00
C343   C     0.02434   0.30115   0.57150   0.00000  Uiso   1.00
C344   C     0.04999   0.36737   0.55481   0.00000  Uiso   1.00
C345   C     0.07135   0.38962   0.60438   0.00000  Uiso   1.00
H346   H     0.98718   0.15514   0.69252   0.00000  Uiso   1.00
H347   H     0.06672   0.05074   0.70829   0.00000  Uiso   1.00
H348   H     0.85538   0.15491   0.65264   0.00000  Uiso   1.00
H349   H     0.03824   0.24789   0.73452   0.00000  Uiso   1.00
H350   H     0.15673   0.95373   0.69756   0.00000  Uiso   1.00
H351   H     0.71109   0.17340   0.58022   0.00000  Uiso   1.00
H352   H     0.09668   0.36946   0.75289   0.00000  Uiso   1.00
H353   H     0.00138   0.29958   0.47525   0.00000  Uiso   1.00
H354   H     0.08171   0.20310   0.47909   0.00000  Uiso   1.00
H355   H     0.87036   0.30728   0.42344   0.00000  Uiso   1.00
H356   H     0.05322   0.40025   0.50532   0.00000  Uiso   1.00
H357   H     0.16889   0.07739   0.51153   0.00000  Uiso   1.00
H358   H     0.72325   0.29707   0.39419   0.00000  Uiso   1.00
H359   H     0.10884   0.49312   0.56686   0.00000  Uiso   1.00
O360   O     0.21538   0.94948   0.61098   0.00000  Uiso   1.00
O361   O     0.63071   0.23770   0.45704   0.00000  Uiso   1.00
O362   O     0.13660   0.49491   0.68358   0.00000  Uiso   1.00
N363   N     0.14858   0.99607   0.65325   0.00000  Uiso   1.00
N364   N     0.73194   0.20145   0.54355   0.00000  Uiso   1.00
N365   N     0.09242   0.38476   0.70498   0.00000  Uiso   1.00
N366   N     0.15512   0.06262   0.55315   0.00000  Uiso   1.00
N367   N     0.73848   0.26799   0.44345   0.00000  Uiso   1.00
N368   N     0.09896   0.45130   0.60488   0.00000  Uiso   1.00
C369   C     0.65449   0.81986   0.93589   0.00000  Uiso   1.00
C370   C     0.58924   0.78768   0.91480   0.00000  Uiso   1.00
C371   C     0.58629   0.72259   0.91160   0.00000  Uiso   1.00
C372   C     0.52163   0.70262   0.89112   0.00000  Uiso   1.00
C373   C     0.42938   0.64600   0.86093   0.00000  Uiso   1.00
C374   C     0.64782   0.83370   0.99294   0.00000  Uiso   1.00
C375   C     0.69413   0.80732   0.05545   0.00000  Uiso   1.00
C376   C     0.67879   0.82610   0.10075   0.00000  Uiso   1.00
C377   C     0.67750   0.84097   0.19186   0.00000  Uiso   1.00
C378   C     0.65130   0.89321   0.87892   0.00000  Uiso   1.00
C379   C     0.70054   0.91688   0.84557   0.00000  Uiso   1.00
C380   C     0.68813   0.98577   0.79489   0.00000  Uiso   1.00
C381   C     0.69225   0.09304   0.70897   0.00000  Uiso   1.00
C382   C     0.54490   0.90014   0.90521   0.00000  Uiso   1.00
C383   C     0.52972   0.83128   0.89813   0.00000  Uiso   1.00
C384   C     0.46505   0.81141   0.87765   0.00000  Uiso   1.00
C385   C     0.46200   0.74630   0.87442   0.00000  Uiso   1.00
C386   C     0.58830   0.87730   0.97628   0.00000  Uiso   1.00
C387   C     0.57289   0.89613   0.02149   0.00000  Uiso   1.00
C388   C     0.61916   0.86978   0.08405   0.00000  Uiso   1.00
C389   C     0.59178   0.93682   0.86225   0.00000  Uiso   1.00
C390   C     0.57929   0.00569   0.81162   0.00000  Uiso   1.00
C391   C     0.62850   0.02945   0.77819   0.00000  Uiso   1.00
H392   H     0.70083   0.78592   0.94888   0.00000  Uiso   1.00
H393   H     0.63237   0.68886   0.92451   0.00000  Uiso   1.00
H394   H     0.74019   0.77358   0.06833   0.00000  Uiso   1.00
H395   H     0.74660   0.88312   0.85848   0.00000  Uiso   1.00
H396   H     0.53021   0.60048   0.89017   0.00000  Uiso   1.00
H397   H     0.75758   0.77913   0.19341   0.00000  Uiso   1.00
H398   H     0.77109   0.01012   0.75092   0.00000  Uiso   1.00
H399   H     0.49856   0.93408   0.89223   0.00000  Uiso   1.00
H400   H     0.41899   0.84516   0.86475   0.00000  Uiso   1.00
H401   H     0.52682   0.92987   0.00858   0.00000  Uiso   1.00
H402   H     0.53323   0.03941   0.79873   0.00000  Uiso   1.00
H403   H     0.35703   0.72733   0.84167   0.00000  Uiso   1.00
H404   H     0.58440   0.90598   0.14492   0.00000  Uiso   1.00
H405   H     0.59791   0.13697   0.70242   0.00000  Uiso   1.00
O406   O     0.39493   0.60272   0.84889   0.00000  Uiso   1.00
O407   O     0.69324   0.83712   0.24673   0.00000  Uiso   1.00
O408   O     0.71096   0.14016   0.66618   0.00000  Uiso   1.00
N409   N     0.50037   0.64254   0.88251   0.00000  Uiso   1.00
N410   N     0.71294   0.80956   0.16603   0.00000  Uiso   1.00
N411   N     0.72558   0.02552   0.75235   0.00000  Uiso   1.00
N412   N     0.40719   0.71080   0.85642   0.00000  Uiso   1.00
N413   N     0.61976   0.87782   0.13993   0.00000  Uiso   1.00
N414   N     0.63240   0.09378   0.72625   0.00000  Uiso   1.00
C415   C     0.66653   0.29693   0.92302   0.00000  Uiso   1.00
C416   C     0.64831   0.24098   0.98313   0.00000  Uiso   1.00
C417   C     0.63984   0.17010   0.99609   0.00000  Uiso   1.00
C418   C     0.62320   0.12747   0.05373   0.00000  Uiso   1.00
C419   C     0.59606   0.03644   0.14049   0.00000  Uiso   1.00
C420   C     0.60999   0.35829   0.89044   0.00000  Uiso   1.00
C421   C     0.56931   0.38606   0.82547   0.00000  Uiso   1.00
C422   C     0.52042   0.44219   0.80509   0.00000  Uiso   1.00
C423   C     0.43383   0.53333   0.74794   0.00000  Uiso   1.00
C424   C     0.73136   0.32601   0.94985   0.00000  Uiso   1.00
C425   C     0.79273   0.32664   0.93482   0.00000  Uiso   1.00
C426   C     0.84602   0.35561   0.96444   0.00000  Uiso   1.00
C427   C     0.94787   0.39662   0.99953   0.00000  Uiso   1.00
C428   C     0.65204   0.34726   0.00235   0.00000  Uiso   1.00
C429   C     0.64043   0.26832   0.02621   0.00000  Uiso   1.00
C430   C     0.62380   0.22578   0.08385   0.00000  Uiso   1.00
C431   C     0.61531   0.15485   0.09689   0.00000  Uiso   1.00
C432   C     0.60212   0.38563   0.93353   0.00000  Uiso   1.00
C433   C     0.55328   0.44174   0.91324   0.00000  Uiso   1.00
C434   C     0.51253   0.46957   0.84825   0.00000  Uiso   1.00
C435   C     0.72349   0.35334   0.99294   0.00000  Uiso   1.00
C436   C     0.77669   0.38232   0.02259   0.00000  Uiso   1.00
C437   C     0.83813   0.38299   0.00760   0.00000  Uiso   1.00
H438   H     0.67265   0.27565   0.88947   0.00000  Uiso   1.00
H439   H     0.64593   0.14897   0.96272   0.00000  Uiso   1.00
H440   H     0.57542   0.36490   0.79214   0.00000  Uiso   1.00
H441   H     0.79880   0.30549   0.90147   0.00000  Uiso   1.00
H442   H     0.61280   0.02058   0.06293   0.00000  Uiso   1.00
H443   H     0.46414   0.47589   0.70323   0.00000  Uiso   1.00
H444   H     0.93518   0.35061   0.93377   0.00000  Uiso   1.00
H445   H     0.64591   0.36854   0.03590   0.00000  Uiso   1.00
H446   H     0.61772   0.24695   0.11719   0.00000  Uiso   1.00
H447   H     0.54720   0.46288   0.94660   0.00000  Uiso   1.00
H448   H     0.77058   0.40346   0.05593   0.00000  Uiso   1.00
H449   H     0.58990   0.10010   0.18829   0.00000  Uiso   1.00
H450   H     0.44124   0.55542   0.82859   0.00000  Uiso   1.00
H451   H     0.91228   0.43013   0.05914   0.00000  Uiso   1.00
O452   O     0.58326   0.97868   0.17643   0.00000  Uiso   1.00
O453   O     0.38824   0.57605   0.70452   0.00000  Uiso   1.00
O454   O     0.00623   0.41168   0.00699   0.00000  Uiso   1.00
N455   N     0.61129   0.05598   0.08128   0.00000  Uiso   1.00
N456   N     0.47230   0.48166   0.74499   0.00000  Uiso   1.00
N457   N     0.91268   0.36455   0.96052   0.00000  Uiso   1.00
N458   N     0.59897   0.09877   0.14874   0.00000  Uiso   1.00
N459   N     0.45998   0.52445   0.81245   0.00000  Uiso   1.00
N460   N     0.90035   0.40734   0.02797   0.00000  Uiso   1.00
C461   C     0.05732   0.61271   0.72793   0.00000  Uiso   1.00
C462   C     0.99414   0.64204   0.66816   0.00000  Uiso   1.00
C463   C     0.95820   0.60388   0.63561   0.00000  Uiso   1.00
C464   C     0.90179   0.64036   0.58196   0.00000  Uiso   1.00
C465   C     0.80670   0.67495   0.49221   0.00000  Uiso   1.00
C466   C     0.11313   0.66110   0.70855   0.00000  Uiso   1.00
C467   C     0.17723   0.63896   0.70998   0.00000  Uiso   1.00
C468   C     0.22100   0.69148   0.69033   0.00000  Uiso   1.00
C469   C     0.31066   0.75566   0.66334   0.00000  Uiso   1.00
C470   C     0.03986   0.62588   0.78145   0.00000  Uiso   1.00
C471   C     0.04237   0.57413   0.84419   0.00000  Uiso   1.00
C472   C     0.02447   0.59700   0.88593   0.00000  Uiso   1.00
C473   C     0.00037   0.60649   0.97214   0.00000  Uiso   1.00
C474   C     0.02107   0.74534   0.69053   0.00000  Uiso   1.00
C475   C     0.97446   0.71408   0.64784   0.00000  Uiso   1.00
C476   C     0.91809   0.75063   0.59422   0.00000  Uiso   1.00
C477   C     0.88206   0.71253   0.56161   0.00000  Uiso   1.00
C478   C     0.09345   0.73314   0.68823   0.00000  Uiso   1.00
C479   C     0.13713   0.78570   0.66859   0.00000  Uiso   1.00
C480   C     0.20127   0.76365   0.66998   0.00000  Uiso   1.00
C481   C     0.02017   0.69792   0.76114   0.00000  Uiso   1.00
C482   C     0.00226   0.72088   0.80279   0.00000  Uiso   1.00
C483   C     0.00474   0.66917   0.86558   0.00000  Uiso   1.00
H484   H     0.07266   0.55662   0.74375   0.00000  Uiso   1.00
H485   H     0.97345   0.54813   0.65135   0.00000  Uiso   1.00
H486   H     0.19246   0.58320   0.72571   0.00000  Uiso   1.00
H487   H     0.05761   0.51839   0.85989   0.00000  Uiso   1.00
H488   H     0.85480   0.57050   0.53993   0.00000  Uiso   1.00
H489   H     0.31659   0.64445   0.69674   0.00000  Uiso   1.00
H490   H     0.03225   0.50776   0.97970   0.00000  Uiso   1.00
H491   H     0.00575   0.80143   0.67471   0.00000  Uiso   1.00
H492   H     0.90286   0.80638   0.57851   0.00000  Uiso   1.00
H493   H     0.12187   0.84145   0.65287   0.00000  Uiso   1.00
H494   H     0.98703   0.77663   0.78705   0.00000  Uiso   1.00
H495   H     0.79751   0.78010   0.48081   0.00000  Uiso   1.00
H496   H     0.25931   0.85405   0.63762   0.00000  Uiso   1.00
H497   H     0.97496   0.71736   0.92058   0.00000  Uiso   1.00
O498   O     0.75970   0.67414   0.44832   0.00000  Uiso   1.00
O499   O     0.36556   0.77116   0.65406   0.00000  Uiso   1.00
O500   O     0.99250   0.59183   0.02529   0.00000  Uiso   1.00
N501   N     0.85542   0.61914   0.53922   0.00000  Uiso   1.00
N502   N     0.28717   0.68828   0.68582   0.00000  Uiso   1.00
N503   N     0.02135   0.56050   0.95037   0.00000  Uiso   1.00
N504   N     0.82460   0.73193   0.50741   0.00000  Uiso   1.00
N505   N     0.25634   0.80107   0.65401   0.00000  Uiso   1.00
N506   N     0.99053   0.67328   0.91856   0.00000  Uiso   1.00
C507   C     0.24712   0.33176   0.40249   0.00000  Uiso   1.00
C508   C     0.31269   0.29717   0.40404   0.00000  Uiso   1.00
C509   C     0.31641   0.24409   0.38389   0.00000  Uiso   1.00
C510   C     0.38125   0.21945   0.38923   0.00000  Uiso   1.00
C511   C     0.47410   0.16152   0.38792   0.00000  Uiso   1.00
C512   C     0.25600   0.32094   0.47286   0.00000  Uiso   1.00
C513   C     0.21204   0.28786   0.51057   0.00000  Uiso   1.00
C514   C     0.22916   0.28324   0.57384   0.00000  Uiso   1.00
C515   C     0.23396   0.26226   0.67935   0.00000  Uiso   1.00
C516   C     0.24706   0.41188   0.36163   0.00000  Uiso   1.00
C517   C     0.19558   0.45527   0.30583   0.00000  Uiso   1.00
C518   C     0.20516   0.52722   0.27545   0.00000  Uiso   1.00
C519   C     0.19608   0.64744   0.20826   0.00000  Uiso   1.00
C520   C     0.35566   0.38239   0.44779   0.00000  Uiso   1.00
C521   C     0.37164   0.32466   0.42865   0.00000  Uiso   1.00
C522   C     0.43649   0.30010   0.43401   0.00000  Uiso   1.00
C523   C     0.44031   0.24699   0.41387   0.00000  Uiso   1.00
C524   C     0.31495   0.34843   0.49746   0.00000  Uiso   1.00
C525   C     0.33212   0.34386   0.56069   0.00000  Uiso   1.00
C526   C     0.28821   0.31078   0.59849   0.00000  Uiso   1.00
C527   C     0.30601   0.43938   0.38623   0.00000  Uiso   1.00
C528   C     0.31567   0.51127   0.35594   0.00000  Uiso   1.00
C529   C     0.26421   0.55477   0.30010   0.00000  Uiso   1.00
H530   H     0.20123   0.31036   0.38334   0.00000  Uiso   1.00
H531   H     0.27078   0.22282   0.36486   0.00000  Uiso   1.00
H532   H     0.16642   0.26659   0.49152   0.00000  Uiso   1.00
H533   H     0.14997   0.43397   0.28680   0.00000  Uiso   1.00
H534   H     0.37389   0.13788   0.35525   0.00000  Uiso   1.00
H535   H     0.15384   0.23019   0.62230   0.00000  Uiso   1.00
H536   H     0.11913   0.58315   0.19061   0.00000  Uiso   1.00
H537   H     0.40155   0.40380   0.46695   0.00000  Uiso   1.00
H538   H     0.48210   0.32139   0.45305   0.00000  Uiso   1.00
H539   H     0.37775   0.36515   0.57971   0.00000  Uiso   1.00
H540   H     0.36129   0.53253   0.37499   0.00000  Uiso   1.00
H541   H     0.54541   0.21787   0.42682   0.00000  Uiso   1.00
H542   H     0.32536   0.31018   0.69388   0.00000  Uiso   1.00
H543   H     0.29066   0.66314   0.26219   0.00000  Uiso   1.00
O544   O     0.50902   0.12196   0.38041   0.00000  Uiso   1.00
O545   O     0.22032   0.24308   0.73076   0.00000  Uiso   1.00
O546   O     0.17479   0.70615   0.16440   0.00000  Uiso   1.00
N547   N     0.40320   0.16802   0.37399   0.00000  Uiso   1.00
N548   N     0.19747   0.25432   0.62367   0.00000  Uiso   1.00
N549   N     0.16502   0.58431   0.22009   0.00000  Uiso   1.00
N550   N     0.49549   0.21107   0.41250   0.00000  Uiso   1.00
N551   N     0.28977   0.29736   0.66218   0.00000  Uiso   1.00
N552   N     0.25731   0.62736   0.25860   0.00000  Uiso   1.00
