data_job_05200
_audit_creation_date              2018-12-19
_audit_creation_method            'Materials Studio'
_symmetry_space_group_name_H-M    'P1'
_symmetry_Int_Tables_number       1
_symmetry_cell_setting            triclinic
loop_
_symmetry_equiv_pos_as_xyz
  x,y,z
_cell_length_a                    13.2253
_cell_length_b                    17.3253
_cell_length_c                    12.4186
_cell_angle_alpha                 90.0000
_cell_angle_beta                  64.6138
_cell_angle_gamma                 90.0000
loop_
_atom_site_label
_atom_site_type_symbol
_atom_site_fract_x
_atom_site_fract_y
_atom_site_fract_z
_atom_site_U_iso_or_equiv
_atom_site_adp_type
_atom_site_occupancy
C1     C     0.88199   0.48009   0.73261   0.00000  Uiso   1.00
C2     C     0.82580   0.55898   0.76467   0.00000  Uiso   1.00
C3     C     0.87658   0.62929   0.71958   0.00000  Uiso   1.00
C4     C     0.81091   0.69497   0.76010   0.00000  Uiso   1.00
C5     C     0.74077   0.81816   0.79736   0.00000  Uiso   1.00
C6     C     0.86703   0.44328   0.85004   0.00000  Uiso   1.00
C7     C     0.95247   0.41629   0.87672   0.00000  Uiso   1.00
C8     C     0.92149   0.38456   0.98910   0.00000  Uiso   1.00
C9     C     0.91536   0.32807   0.15888   0.00000  Uiso   1.00
C10    C     0.81134   0.43226   0.68738   0.00000  Uiso   1.00
C11    C     0.84997   0.39599   0.57729   0.00000  Uiso   1.00
C12    C     0.77211   0.35496   0.55274   0.00000  Uiso   1.00
C13    C     0.67951   0.28136   0.46995   0.00000  Uiso   1.00
C14    C     0.67506   0.47170   0.88476   0.00000  Uiso   1.00
C15    C     0.71340   0.55443   0.84732   0.00000  Uiso   1.00
C16    C     0.64763   0.62001   0.88792   0.00000  Uiso   1.00
C17    C     0.69830   0.69040   0.84289   0.00000  Uiso   1.00
C18    C     0.75463   0.43872   0.93269   0.00000  Uiso   1.00
C19    C     0.72352   0.40702   0.04506   0.00000  Uiso   1.00
C20    C     0.80889   0.38000   0.07190   0.00000  Uiso   1.00
C21    C     0.69894   0.42770   0.77002   0.00000  Uiso   1.00
C22    C     0.62101   0.38671   0.74564   0.00000  Uiso   1.00
C23    C     0.65950   0.35039   0.63554   0.00000  Uiso   1.00
H24    H     0.96950   0.48363   0.66827   0.00000  Uiso   1.00
H25    H     0.96357   0.63279   0.65563   0.00000  Uiso   1.00
H26    H     0.03945   0.41982   0.81274   0.00000  Uiso   1.00
H27    H     0.93695   0.39952   0.51336   0.00000  Uiso   1.00
H28    H     0.90744   0.79616   0.67809   0.00000  Uiso   1.00
H29    H     0.06742   0.34707   0.00935   0.00000  Uiso   1.00
H30    H     0.85130   0.30427   0.37806   0.00000  Uiso   1.00
H31    H     0.58755   0.46815   0.94911   0.00000  Uiso   1.00
H32    H     0.56065   0.61647   0.95188   0.00000  Uiso   1.00
H33    H     0.63653   0.40350   0.10899   0.00000  Uiso   1.00
H34    H     0.53404   0.38320   0.80962   0.00000  Uiso   1.00
H35    H     0.58041   0.78291   0.91854   0.00000  Uiso   1.00
H36    H     0.74040   0.33382   0.24980   0.00000  Uiso   1.00
H37    H     0.52427   0.29102   0.61851   0.00000  Uiso   1.00
O38    O     0.73314   0.88738   0.79510   0.00000  Uiso   1.00
O39    O     0.94303   0.29818   0.22969   0.00000  Uiso   1.00
O40    O     0.65948   0.24203   0.40145   0.00000  Uiso   1.00
N41    N     0.83416   0.77268   0.73428   0.00000  Uiso   1.00
N42    N     0.98373   0.35283   0.04400   0.00000  Uiso   1.00
N43    N     0.78168   0.31279   0.45381   0.00000  Uiso   1.00
N44    N     0.65819   0.76555   0.86367   0.00000  Uiso   1.00
N45    N     0.80777   0.34570   0.17339   0.00000  Uiso   1.00
N46    N     0.60571   0.30566   0.58319   0.00000  Uiso   1.00
C47    C     0.21086   0.52587   0.54210   0.00000  Uiso   1.00
C48    C     0.26553   0.44636   0.52030   0.00000  Uiso   1.00
C49    C     0.21351   0.37705   0.51893   0.00000  Uiso   1.00
C50    C     0.27789   0.31058   0.49742   0.00000  Uiso   1.00
C51    C     0.34566   0.18669   0.46658   0.00000  Uiso   1.00
C52    C     0.22609   0.56005   0.64735   0.00000  Uiso   1.00
C53    C     0.14091   0.58633   0.75279   0.00000  Uiso   1.00
C54    C     0.17211   0.61557   0.83822   0.00000  Uiso   1.00
C55    C     0.17866   0.66824   0.00460   0.00000  Uiso   1.00
C56    C     0.28272   0.57476   0.43416   0.00000  Uiso   1.00
C57    C     0.24515   0.61342   0.36036   0.00000  Uiso   1.00
C58    C     0.32402   0.65506   0.26632   0.00000  Uiso   1.00
C59    C     0.41849   0.73057   0.10168   0.00000  Uiso   1.00
C60    C     0.41772   0.53108   0.50634   0.00000  Uiso   1.00
C61    C     0.37788   0.44920   0.50088   0.00000  Uiso   1.00
C62    C     0.44236   0.38281   0.47936   0.00000  Uiso   1.00
C63    C     0.39044   0.31341   0.47796   0.00000  Uiso   1.00
C64    C     0.33844   0.56288   0.62793   0.00000  Uiso   1.00
C65    C     0.36977   0.59210   0.71322   0.00000  Uiso   1.00
C66    C     0.28466   0.61841   0.81877   0.00000  Uiso   1.00
C67    C     0.39508   0.57759   0.41473   0.00000  Uiso   1.00
C68    C     0.47401   0.61918   0.32079   0.00000  Uiso   1.00
C69    C     0.43657   0.65790   0.24686   0.00000  Uiso   1.00
H70    H     0.12339   0.52367   0.55723   0.00000  Uiso   1.00
H71    H     0.12655   0.37488   0.53398   0.00000  Uiso   1.00
H72    H     0.05398   0.58414   0.76779   0.00000  Uiso   1.00
H73    H     0.15820   0.61122   0.37542   0.00000  Uiso   1.00
H74    H     0.17959   0.21117   0.49967   0.00000  Uiso   1.00
H75    H     0.02657   0.65243   0.99267   0.00000  Uiso   1.00
H76    H     0.24634   0.70954   0.16528   0.00000  Uiso   1.00
H77    H     0.50519   0.53328   0.49122   0.00000  Uiso   1.00
H78    H     0.52931   0.38502   0.46433   0.00000  Uiso   1.00
H79    H     0.45673   0.59428   0.69816   0.00000  Uiso   1.00
H80    H     0.56095   0.62136   0.30579   0.00000  Uiso   1.00
H81    H     0.50648   0.21940   0.44315   0.00000  Uiso   1.00
H82    H     0.35345   0.66066   0.93615   0.00000  Uiso   1.00
H83    H     0.57323   0.71777   0.10876   0.00000  Uiso   1.00
O84    O     0.35200   0.11758   0.45496   0.00000  Uiso   1.00
O85    O     0.15124   0.69650   0.10174   0.00000  Uiso   1.00
O86    O     0.43957   0.77142   0.01623   0.00000  Uiso   1.00
N87    N     0.25322   0.23346   0.49003   0.00000  Uiso   1.00
N88    N     0.11015   0.64599   0.95097   0.00000  Uiso   1.00
N89    N     0.31561   0.69940   0.17745   0.00000  Uiso   1.00
N90    N     0.42912   0.23788   0.45962   0.00000  Uiso   1.00
N91    N     0.28605   0.65042   0.92055   0.00000  Uiso   1.00
N92    N     0.49151   0.70383   0.14703   0.00000  Uiso   1.00
C93    C     0.11801   0.98009   0.26739   0.00000  Uiso   1.00
C94    C     0.17420   0.05898   0.23533   0.00000  Uiso   1.00
C95    C     0.12342   0.12929   0.28042   0.00000  Uiso   1.00
C96    C     0.18909   0.19497   0.23990   0.00000  Uiso   1.00
C97    C     0.25923   0.31816   0.20264   0.00000  Uiso   1.00
C98    C     0.13297   0.94328   0.14996   0.00000  Uiso   1.00
C99    C     0.04753   0.91629   0.12328   0.00000  Uiso   1.00
C100   C     0.07851   0.88456   0.01090   0.00000  Uiso   1.00
C101   C     0.08464   0.82807   0.84112   0.00000  Uiso   1.00
C102   C     0.18866   0.93226   0.31262   0.00000  Uiso   1.00
C103   C     0.15003   0.89599   0.42271   0.00000  Uiso   1.00
C104   C     0.22789   0.85496   0.44726   0.00000  Uiso   1.00
C105   C     0.32049   0.78136   0.53005   0.00000  Uiso   1.00
C106   C     0.32494   0.97170   0.11524   0.00000  Uiso   1.00
C107   C     0.28660   0.05443   0.15268   0.00000  Uiso   1.00
C108   C     0.35237   0.12001   0.11208   0.00000  Uiso   1.00
C109   C     0.30170   0.19040   0.15711   0.00000  Uiso   1.00
C110   C     0.24537   0.93872   0.06731   0.00000  Uiso   1.00
C111   C     0.27648   0.90702   0.95494   0.00000  Uiso   1.00
C112   C     0.19111   0.88000   0.92810   0.00000  Uiso   1.00
C113   C     0.30106   0.92770   0.22998   0.00000  Uiso   1.00
C114   C     0.37899   0.88671   0.25436   0.00000  Uiso   1.00
C115   C     0.34050   0.85039   0.36446   0.00000  Uiso   1.00
H116   H     0.03050   0.98363   0.33173   0.00000  Uiso   1.00
H117   H     0.03643   0.13279   0.34437   0.00000  Uiso   1.00
H118   H     0.96055   0.91982   0.18726   0.00000  Uiso   1.00
H119   H     0.06305   0.89952   0.48664   0.00000  Uiso   1.00
H120   H     0.09256   0.29616   0.32191   0.00000  Uiso   1.00
H121   H     0.93258   0.84707   0.99065   0.00000  Uiso   1.00
H122   H     0.14870   0.80427   0.62194   0.00000  Uiso   1.00
H123   H     0.41245   0.96815   0.05089   0.00000  Uiso   1.00
H124   H     0.43935   0.11647   0.04812   0.00000  Uiso   1.00
H125   H     0.36347   0.90350   0.89101   0.00000  Uiso   1.00
H126   H     0.46596   0.88320   0.19038   0.00000  Uiso   1.00
H127   H     0.41959   0.28291   0.08146   0.00000  Uiso   1.00
H128   H     0.25960   0.83382   0.75020   0.00000  Uiso   1.00
H129   H     0.47573   0.79102   0.38149   0.00000  Uiso   1.00
O130   O     0.26686   0.38738   0.20490   0.00000  Uiso   1.00
O131   O     0.05697   0.79818   0.77031   0.00000  Uiso   1.00
O132   O     0.34052   0.74203   0.59855   0.00000  Uiso   1.00
N133   N     0.16584   0.27268   0.26572   0.00000  Uiso   1.00
N134   N     0.01627   0.85283   0.95600   0.00000  Uiso   1.00
N135   N     0.21832   0.81279   0.54619   0.00000  Uiso   1.00
N136   N     0.34181   0.26555   0.13633   0.00000  Uiso   1.00
N137   N     0.19223   0.84570   0.82661   0.00000  Uiso   1.00
N138   N     0.39429   0.80566   0.41681   0.00000  Uiso   1.00
C139   C     0.78914   0.02587   0.45790   0.00000  Uiso   1.00
C140   C     0.73447   0.94636   0.47970   0.00000  Uiso   1.00
C141   C     0.78649   0.87705   0.48107   0.00000  Uiso   1.00
C142   C     0.72211   0.81058   0.50258   0.00000  Uiso   1.00
C143   C     0.65434   0.68669   0.53342   0.00000  Uiso   1.00
C144   C     0.77391   0.06005   0.35265   0.00000  Uiso   1.00
C145   C     0.85909   0.08633   0.24721   0.00000  Uiso   1.00
C146   C     0.82789   0.11557   0.16178   0.00000  Uiso   1.00
C147   C     0.82134   0.16824   0.99540   0.00000  Uiso   1.00
C148   C     0.71728   0.07476   0.56584   0.00000  Uiso   1.00
C149   C     0.75485   0.11342   0.63964   0.00000  Uiso   1.00
C150   C     0.67598   0.15506   0.73368   0.00000  Uiso   1.00
C151   C     0.58151   0.23057   0.89832   0.00000  Uiso   1.00
C152   C     0.58228   0.03108   0.49366   0.00000  Uiso   1.00
C153   C     0.62212   0.94920   0.49912   0.00000  Uiso   1.00
C154   C     0.55764   0.88281   0.52064   0.00000  Uiso   1.00
C155   C     0.60956   0.81341   0.52204   0.00000  Uiso   1.00
C156   C     0.66156   0.06288   0.37207   0.00000  Uiso   1.00
C157   C     0.63023   0.09210   0.28678   0.00000  Uiso   1.00
C158   C     0.71534   0.11841   0.18123   0.00000  Uiso   1.00
C159   C     0.60492   0.07759   0.58527   0.00000  Uiso   1.00
C160   C     0.52599   0.11918   0.67921   0.00000  Uiso   1.00
C161   C     0.56343   0.15790   0.75314   0.00000  Uiso   1.00
H162   H     0.87661   0.02367   0.44277   0.00000  Uiso   1.00
H163   H     0.87345   0.87488   0.46602   0.00000  Uiso   1.00
H164   H     0.94602   0.08414   0.23221   0.00000  Uiso   1.00
H165   H     0.84180   0.11122   0.62458   0.00000  Uiso   1.00
H166   H     0.82041   0.71117   0.50033   0.00000  Uiso   1.00
H167   H     0.97343   0.15243   0.00733   0.00000  Uiso   1.00
H168   H     0.75366   0.20954   0.83472   0.00000  Uiso   1.00
H169   H     0.49481   0.03328   0.50878   0.00000  Uiso   1.00
H170   H     0.47069   0.88502   0.53567   0.00000  Uiso   1.00
H171   H     0.54327   0.09428   0.30184   0.00000  Uiso   1.00
H172   H     0.43905   0.12136   0.69421   0.00000  Uiso   1.00
H173   H     0.49352   0.71940   0.55685   0.00000  Uiso   1.00
H174   H     0.64655   0.16066   0.06385   0.00000  Uiso   1.00
H175   H     0.42677   0.21777   0.89124   0.00000  Uiso   1.00
O176   O     0.64800   0.61758   0.54504   0.00000  Uiso   1.00
O177   O     0.84876   0.19650   0.89826   0.00000  Uiso   1.00
O178   O     0.56043   0.27142   0.98377   0.00000  Uiso   1.00
N179   N     0.74678   0.73346   0.50997   0.00000  Uiso   1.00
N180   N     0.88985   0.14599   0.04903   0.00000  Uiso   1.00
N181   N     0.68439   0.19940   0.82255   0.00000  Uiso   1.00
N182   N     0.57088   0.73788   0.54038   0.00000  Uiso   1.00
N183   N     0.71395   0.15042   0.07945   0.00000  Uiso   1.00
N184   N     0.50849   0.20383   0.85297   0.00000  Uiso   1.00
