data_job_06211
_audit_creation_date              2018-12-19
_audit_creation_method            'Materials Studio'
_symmetry_space_group_name_H-M    'P1'
_symmetry_Int_Tables_number       1
_symmetry_cell_setting            triclinic
loop_
_symmetry_equiv_pos_as_xyz
  x,y,z
_cell_length_a                    8.0129
_cell_length_b                    23.2922
_cell_length_c                    24.3031
_cell_angle_alpha                 117.2930
_cell_angle_beta                  98.7370
_cell_angle_gamma                 92.6380
loop_
_atom_site_label
_atom_site_type_symbol
_atom_site_fract_x
_atom_site_fract_y
_atom_site_fract_z
_atom_site_U_iso_or_equiv
_atom_site_adp_type
_atom_site_occupancy
C1     C     0.68398   0.32959   0.28724   0.00000  Uiso   1.00
C2     C     0.73052   0.37311   0.25889   0.00000  Uiso   1.00
C3     C     0.61779   0.40390   0.23564   0.00000  Uiso   1.00
C4     C     0.68543   0.44162   0.21165   0.00000  Uiso   1.00
C5     C     0.73119   0.50816   0.16769   0.00000  Uiso   1.00
C6     C     0.74625   0.26462   0.24887   0.00000  Uiso   1.00
C7     C     0.64674   0.20419   0.21721   0.00000  Uiso   1.00
C8     C     0.72763   0.15058   0.18479   0.00000  Uiso   1.00
C9     C     0.79783   0.04868   0.12533   0.00000  Uiso   1.00
C10    C     0.79489   0.35942   0.35310   0.00000  Uiso   1.00
C11    C     0.73628   0.37868   0.40907   0.00000  Uiso   1.00
C12    C     0.85813   0.40487   0.46440   0.00000  Uiso   1.00
C13    C     0.00384   0.45016   0.56676   0.00000  Uiso   1.00
C14    C     0.00459   0.34182   0.28598   0.00000  Uiso   1.00
C15    C     0.90466   0.37975   0.25820   0.00000  Uiso   1.00
C16    C     0.97250   0.41744   0.23424   0.00000  Uiso   1.00
C17    C     0.85988   0.44828   0.21096   0.00000  Uiso   1.00
C18    C     0.92038   0.27126   0.24818   0.00000  Uiso   1.00
C19    C     0.00145   0.21773   0.21581   0.00000  Uiso   1.00
C20    C     0.90209   0.15723   0.18410   0.00000  Uiso   1.00
C21    C     0.96903   0.36607   0.35241   0.00000  Uiso   1.00
C22    C     0.09099   0.39222   0.40767   0.00000  Uiso   1.00
C23    C     0.03258   0.41153   0.46371   0.00000  Uiso   1.00
H24    H     0.54841   0.32441   0.28778   0.00000  Uiso   1.00
H25    H     0.48303   0.39874   0.23617   0.00000  Uiso   1.00
H26    H     0.51199   0.19907   0.21776   0.00000  Uiso   1.00
H27    H     0.60151   0.37354   0.40958   0.00000  Uiso   1.00
H28    H     0.48732   0.48406   0.17864   0.00000  Uiso   1.00
H29    H     0.54839   0.06303   0.13982   0.00000  Uiso   1.00
H30    H     0.73717   0.43093   0.54432   0.00000  Uiso   1.00
H31    H     0.14017   0.34700   0.28544   0.00000  Uiso   1.00
H32    H     0.10726   0.42257   0.23371   0.00000  Uiso   1.00
H33    H     0.13621   0.22289   0.21529   0.00000  Uiso   1.00
H34    H     0.22574   0.39736   0.40712   0.00000  Uiso   1.00
H35    H     0.99398   0.50340   0.17664   0.00000  Uiso   1.00
H36    H     0.05504   0.08236   0.13782   0.00000  Uiso   1.00
H37    H     0.24382   0.45026   0.54232   0.00000  Uiso   1.00
O38    O     0.70832   0.54301   0.14363   0.00000  Uiso   1.00
O39    O     0.78844   0.99063   0.09271   0.00000  Uiso   1.00
O40    O     0.03611   0.47332   0.62341   0.00000  Uiso   1.00
N41    N     0.61109   0.47825   0.18528   0.00000  Uiso   1.00
N42    N     0.66817   0.08461   0.14898   0.00000  Uiso   1.00
N43    N     0.84467   0.42855   0.52715   0.00000  Uiso   1.00
N44    N     0.88371   0.48865   0.18420   0.00000  Uiso   1.00
N45    N     0.94080   0.09501   0.14790   0.00000  Uiso   1.00
N46    N     0.11729   0.43896   0.52608   0.00000  Uiso   1.00
C47    C     0.72573   0.70347   0.04780   0.00000  Uiso   1.00
C48    C     0.83168   0.73358   0.11451   0.00000  Uiso   1.00
C49    C     0.76802   0.75211   0.16941   0.00000  Uiso   1.00
C50    C     0.88585   0.77873   0.22579   0.00000  Uiso   1.00
C51    C     0.02372   0.82432   0.32917   0.00000  Uiso   1.00
C52    C     0.77462   0.74755   0.02030   0.00000  Uiso   1.00
C53    C     0.66296   0.77782   0.99599   0.00000  Uiso   1.00
C54    C     0.73275   0.81620   0.97307   0.00000  Uiso   1.00
C55    C     0.78200   0.88343   0.93015   0.00000  Uiso   1.00
C56    C     0.79189   0.63913   0.01030   0.00000  Uiso   1.00
C57    C     0.69476   0.57823   0.97756   0.00000  Uiso   1.00
C58    C     0.77909   0.52533   0.94621   0.00000  Uiso   1.00
C59    C     0.85516   0.42423   0.88776   0.00000  Uiso   1.00
C60    C     0.04821   0.71781   0.05030   0.00000  Uiso   1.00
C61    C     0.00684   0.74136   0.11587   0.00000  Uiso   1.00
C62    C     0.12481   0.76797   0.17218   0.00000  Uiso   1.00
C63    C     0.06132   0.78653   0.22716   0.00000  Uiso   1.00
C64    C     0.94977   0.75534   0.02166   0.00000  Uiso   1.00
C65    C     0.01974   0.79367   0.99877   0.00000  Uiso   1.00
C66    C     0.90822   0.82399   0.97443   0.00000  Uiso   1.00
C67    C     0.96705   0.64691   0.01166   0.00000  Uiso   1.00
C68    C     0.05155   0.59409   0.98034   0.00000  Uiso   1.00
C69    C     0.95456   0.53313   0.94757   0.00000  Uiso   1.00
H70    H     0.58937   0.69741   0.04674   0.00000  Uiso   1.00
H71    H     0.63245   0.74608   0.16834   0.00000  Uiso   1.00
H72    H     0.52741   0.77178   0.99494   0.00000  Uiso   1.00
H73    H     0.55921   0.57223   0.97652   0.00000  Uiso   1.00
H74    H     0.75747   0.80349   0.30376   0.00000  Uiso   1.00
H75    H     0.53597   0.85765   0.93812   0.00000  Uiso   1.00
H76    H     0.60302   0.43686   0.89928   0.00000  Uiso   1.00
H77    H     0.18459   0.72387   0.05136   0.00000  Uiso   1.00
H78    H     0.26035   0.77399   0.17322   0.00000  Uiso   1.00
H79    H     0.15530   0.79968   0.99982   0.00000  Uiso   1.00
H80    H     0.18710   0.60014   0.98140   0.00000  Uiso   1.00
H81    H     0.26709   0.82614   0.30772   0.00000  Uiso   1.00
H82    H     0.04559   0.88031   0.94208   0.00000  Uiso   1.00
H83    H     0.11264   0.45952   0.90324   0.00000  Uiso   1.00
O84    O     0.05137   0.84732   0.38582   0.00000  Uiso   1.00
O85    O     0.76077   0.91838   0.90611   0.00000  Uiso   1.00
O86    O     0.84874   0.36631   0.85515   0.00000  Uiso   1.00
N87    N     0.86701   0.80193   0.28796   0.00000  Uiso   1.00
N88    N     0.65993   0.85258   0.94613   0.00000  Uiso   1.00
N89    N     0.72261   0.45918   0.90980   0.00000  Uiso   1.00
N90    N     0.14124   0.81412   0.29010   0.00000  Uiso   1.00
N91    N     0.93415   0.86477   0.94826   0.00000  Uiso   1.00
N92    N     0.99683   0.47137   0.91193   0.00000  Uiso   1.00
C93    C     0.39178   0.94387   0.66363   0.00000  Uiso   1.00
C94    C     0.45250   0.87842   0.62574   0.00000  Uiso   1.00
C95    C     0.35093   0.81844   0.59348   0.00000  Uiso   1.00
C96    C     0.43066   0.76427   0.56167   0.00000  Uiso   1.00
C97    C     0.49832   0.66178   0.50280   0.00000  Uiso   1.00
C98    C     0.49960   0.97316   0.72997   0.00000  Uiso   1.00
C99    C     0.43762   0.99285   0.78535   0.00000  Uiso   1.00
C100   C     0.55700   0.01844   0.84128   0.00000  Uiso   1.00
C101   C     0.69778   0.06308   0.94424   0.00000  Uiso   1.00
C102   C     0.44407   0.98718   0.63578   0.00000  Uiso   1.00
C103   C     0.33542   0.01867   0.61196   0.00000  Uiso   1.00
C104   C     0.40807   0.05608   0.58860   0.00000  Uiso   1.00
C105   C     0.46264   0.12249   0.54529   0.00000  Uiso   1.00
C106   C     0.71400   0.95432   0.66451   0.00000  Uiso   1.00
C107   C     0.62751   0.88410   0.62622   0.00000  Uiso   1.00
C108   C     0.70742   0.83001   0.59445   0.00000  Uiso   1.00
C109   C     0.60598   0.76996   0.56215   0.00000  Uiso   1.00
C110   C     0.67460   0.97884   0.73045   0.00000  Uiso   1.00
C111   C     0.79411   0.00441   0.78632   0.00000  Uiso   1.00
C112   C     0.73233   0.02413   0.84176   0.00000  Uiso   1.00
C113   C     0.61909   0.99286   0.63625   0.00000  Uiso   1.00
C114   C     0.69192   0.03023   0.61293   0.00000  Uiso   1.00
C115   C     0.58340   0.06177   0.58908   0.00000  Uiso   1.00
H116   H     0.25553   0.93945   0.66326   0.00000  Uiso   1.00
H117   H     0.21549   0.81407   0.59313   0.00000  Uiso   1.00
H118   H     0.30217   0.98845   0.78497   0.00000  Uiso   1.00
H119   H     0.20000   0.01427   0.61160   0.00000  Uiso   1.00
H120   H     0.24830   0.67756   0.51560   0.00000  Uiso   1.00
H121   H     0.43106   0.04528   0.92010   0.00000  Uiso   1.00
H122   H     0.21560   0.09972   0.55453   0.00000  Uiso   1.00
H123   H     0.85026   0.95874   0.66488   0.00000  Uiso   1.00
H124   H     0.84286   0.83442   0.59483   0.00000  Uiso   1.00
H125   H     0.92953   0.00880   0.78667   0.00000  Uiso   1.00
H126   H     0.82736   0.03462   0.61330   0.00000  Uiso   1.00
H127   H     0.75749   0.69408   0.51698   0.00000  Uiso   1.00
H128   H     0.94025   0.06180   0.92149   0.00000  Uiso   1.00
H129   H     0.72479   0.11624   0.55591   0.00000  Uiso   1.00
O130   O     0.48730   0.60368   0.47020   0.00000  Uiso   1.00
O131   O     0.72708   0.08613   0.00089   0.00000  Uiso   1.00
O132   O     0.44439   0.15755   0.52127   0.00000  Uiso   1.00
N133   N     0.36914   0.69851   0.52553   0.00000  Uiso   1.00
N134   N     0.54002   0.04230   0.90371   0.00000  Uiso   1.00
N135   N     0.33858   0.09321   0.56195   0.00000  Uiso   1.00
N136   N     0.64314   0.70740   0.52627   0.00000  Uiso   1.00
N137   N     0.81401   0.05119   0.90446   0.00000  Uiso   1.00
N138   N     0.61258   0.10210   0.56269   0.00000  Uiso   1.00
C139   C     0.31602   0.67041   0.71276   0.00000  Uiso   1.00
C140   C     0.26948   0.62689   0.74111   0.00000  Uiso   1.00
C141   C     0.38221   0.59610   0.76436   0.00000  Uiso   1.00
C142   C     0.31457   0.55838   0.78835   0.00000  Uiso   1.00
C143   C     0.26881   0.49184   0.83231   0.00000  Uiso   1.00
C144   C     0.25375   0.73538   0.75113   0.00000  Uiso   1.00
C145   C     0.35326   0.79581   0.78279   0.00000  Uiso   1.00
C146   C     0.27237   0.84942   0.81521   0.00000  Uiso   1.00
C147   C     0.20217   0.95132   0.87467   0.00000  Uiso   1.00
C148   C     0.20511   0.64058   0.64690   0.00000  Uiso   1.00
C149   C     0.26372   0.62131   0.59093   0.00000  Uiso   1.00
C150   C     0.14187   0.59513   0.53560   0.00000  Uiso   1.00
C151   C     0.99616   0.54984   0.43324   0.00000  Uiso   1.00
C152   C     0.99541   0.65817   0.71402   0.00000  Uiso   1.00
C153   C     0.09534   0.62025   0.74180   0.00000  Uiso   1.00
C154   C     0.02750   0.58256   0.76576   0.00000  Uiso   1.00
C155   C     0.14012   0.55172   0.78904   0.00000  Uiso   1.00
C156   C     0.07962   0.72874   0.75182   0.00000  Uiso   1.00
C157   C     0.99855   0.78227   0.78419   0.00000  Uiso   1.00
C158   C     0.09791   0.84277   0.81590   0.00000  Uiso   1.00
C159   C     0.03097   0.63393   0.64759   0.00000  Uiso   1.00
C160   C     0.90901   0.60778   0.59233   0.00000  Uiso   1.00
C161   C     0.96742   0.58847   0.53629   0.00000  Uiso   1.00
H162   H     0.45159   0.67558   0.71222   0.00000  Uiso   1.00
H163   H     0.51697   0.60126   0.76383   0.00000  Uiso   1.00
H164   H     0.48801   0.80093   0.78224   0.00000  Uiso   1.00
H165   H     0.39849   0.62646   0.59042   0.00000  Uiso   1.00
H166   H     0.51268   0.51594   0.82136   0.00000  Uiso   1.00
H167   H     0.45161   0.93697   0.86018   0.00000  Uiso   1.00
H168   H     0.26283   0.56907   0.45567   0.00000  Uiso   1.00
H169   H     0.85983   0.65300   0.71456   0.00000  Uiso   1.00
H170   H     0.89274   0.57743   0.76629   0.00000  Uiso   1.00
H171   H     0.86379   0.77711   0.78471   0.00000  Uiso   1.00
H172   H     0.77426   0.60264   0.59288   0.00000  Uiso   1.00
H173   H     0.00602   0.49660   0.82336   0.00000  Uiso   1.00
H174   H     0.94496   0.91764   0.86218   0.00000  Uiso   1.00
H175   H     0.75618   0.54974   0.45768   0.00000  Uiso   1.00
O176   O     0.29168   0.45699   0.85637   0.00000  Uiso   1.00
O177   O     0.21156   0.00937   0.90729   0.00000  Uiso   1.00
O178   O     0.96389   0.52668   0.37659   0.00000  Uiso   1.00
N179   N     0.38891   0.52175   0.81472   0.00000  Uiso   1.00
N180   N     0.33183   0.91539   0.85102   0.00000  Uiso   1.00
N181   N     0.15533   0.57145   0.47285   0.00000  Uiso   1.00
N182   N     0.11629   0.51135   0.81580   0.00000  Uiso   1.00
N183   N     0.05920   0.90499   0.85210   0.00000  Uiso   1.00
N184   N     0.88271   0.56104   0.47392   0.00000  Uiso   1.00
C185   C     0.27427   0.29653   0.95220   0.00000  Uiso   1.00
C186   C     0.16832   0.26642   0.88549   0.00000  Uiso   1.00
C187   C     0.23198   0.24789   0.83059   0.00000  Uiso   1.00
C188   C     0.11415   0.22127   0.77421   0.00000  Uiso   1.00
C189   C     0.97628   0.17568   0.67083   0.00000  Uiso   1.00
C190   C     0.22538   0.25245   0.97970   0.00000  Uiso   1.00
C191   C     0.33704   0.22218   0.00401   0.00000  Uiso   1.00
C192   C     0.26725   0.18380   0.02693   0.00000  Uiso   1.00
C193   C     0.21800   0.11657   0.06985   0.00000  Uiso   1.00
C194   C     0.20811   0.36087   0.98970   0.00000  Uiso   1.00
C195   C     0.30525   0.42177   0.02244   0.00000  Uiso   1.00
C196   C     0.22091   0.47467   0.05379   0.00000  Uiso   1.00
C197   C     0.14484   0.57577   0.11224   0.00000  Uiso   1.00
C198   C     0.95178   0.28219   0.94970   0.00000  Uiso   1.00
C199   C     0.99316   0.25864   0.88413   0.00000  Uiso   1.00
C200   C     0.87519   0.23203   0.82782   0.00000  Uiso   1.00
C201   C     0.93868   0.21347   0.77284   0.00000  Uiso   1.00
C202   C     0.05023   0.24466   0.97834   0.00000  Uiso   1.00
C203   C     0.98026   0.20633   0.00123   0.00000  Uiso   1.00
C204   C     0.09178   0.17601   0.02557   0.00000  Uiso   1.00
C205   C     0.03295   0.35309   0.98834   0.00000  Uiso   1.00
C206   C     0.94845   0.40591   0.01966   0.00000  Uiso   1.00
C207   C     0.04544   0.46687   0.05243   0.00000  Uiso   1.00
H208   H     0.41063   0.30258   0.95326   0.00000  Uiso   1.00
H209   H     0.36755   0.25392   0.83166   0.00000  Uiso   1.00
H210   H     0.47259   0.22822   0.00506   0.00000  Uiso   1.00
H211   H     0.44079   0.42777   0.02348   0.00000  Uiso   1.00
H212   H     0.24253   0.19651   0.69624   0.00000  Uiso   1.00
H213   H     0.46403   0.14235   0.06188   0.00000  Uiso   1.00
H214   H     0.39698   0.56314   0.10072   0.00000  Uiso   1.00
H215   H     0.81541   0.27613   0.94864   0.00000  Uiso   1.00
H216   H     0.73965   0.22601   0.82678   0.00000  Uiso   1.00
H217   H     0.84470   0.20031   0.00018   0.00000  Uiso   1.00
H218   H     0.81290   0.39986   0.01860   0.00000  Uiso   1.00
H219   H     0.73291   0.17386   0.69228   0.00000  Uiso   1.00
H220   H     0.95441   0.11969   0.05792   0.00000  Uiso   1.00
H221   H     0.88736   0.54048   0.09676   0.00000  Uiso   1.00
O222   O     0.94863   0.15268   0.61418   0.00000  Uiso   1.00
O223   O     0.23923   0.08162   0.09389   0.00000  Uiso   1.00
O224   O     0.15126   0.63369   0.14485   0.00000  Uiso   1.00
N225   N     0.13299   0.19807   0.71204   0.00000  Uiso   1.00
N226   N     0.34007   0.14742   0.05387   0.00000  Uiso   1.00
N227   N     0.27739   0.54082   0.09020   0.00000  Uiso   1.00
N228   N     0.85876   0.18588   0.70990   0.00000  Uiso   1.00
N229   N     0.06585   0.13523   0.05174   0.00000  Uiso   1.00
N230   N     0.00317   0.52863   0.08807   0.00000  Uiso   1.00
C231   C     0.60822   0.05613   0.33637   0.00000  Uiso   1.00
C232   C     0.54750   0.12158   0.37426   0.00000  Uiso   1.00
C233   C     0.64907   0.18156   0.40652   0.00000  Uiso   1.00
C234   C     0.56934   0.23573   0.43833   0.00000  Uiso   1.00
C235   C     0.50168   0.33822   0.49720   0.00000  Uiso   1.00
C236   C     0.50040   0.02684   0.27003   0.00000  Uiso   1.00
C237   C     0.56238   0.00715   0.21465   0.00000  Uiso   1.00
C238   C     0.44300   0.98156   0.15872   0.00000  Uiso   1.00
C239   C     0.30222   0.93692   0.05576   0.00000  Uiso   1.00
C240   C     0.55593   0.01282   0.36422   0.00000  Uiso   1.00
C241   C     0.66458   0.98132   0.38804   0.00000  Uiso   1.00
C242   C     0.59193   0.94392   0.41140   0.00000  Uiso   1.00
C243   C     0.53736   0.87751   0.45471   0.00000  Uiso   1.00
C244   C     0.28600   0.04568   0.33549   0.00000  Uiso   1.00
C245   C     0.37249   0.11590   0.37378   0.00000  Uiso   1.00
C246   C     0.29258   0.16999   0.40555   0.00000  Uiso   1.00
C247   C     0.39402   0.23004   0.43785   0.00000  Uiso   1.00
C248   C     0.32540   0.02116   0.26955   0.00000  Uiso   1.00
C249   C     0.20589   0.99558   0.21368   0.00000  Uiso   1.00
C250   C     0.26767   0.97587   0.15824   0.00000  Uiso   1.00
C251   C     0.38091   0.00714   0.36375   0.00000  Uiso   1.00
C252   C     0.30808   0.96977   0.38707   0.00000  Uiso   1.00
C253   C     0.41660   0.93823   0.41092   0.00000  Uiso   1.00
H254   H     0.74447   0.06055   0.33674   0.00000  Uiso   1.00
H255   H     0.78451   0.18593   0.40687   0.00000  Uiso   1.00
H256   H     0.69783   0.01155   0.21503   0.00000  Uiso   1.00
H257   H     0.80000   0.98573   0.38840   0.00000  Uiso   1.00
H258   H     0.75170   0.32244   0.48440   0.00000  Uiso   1.00
H259   H     0.56894   0.95472   0.07990   0.00000  Uiso   1.00
H260   H     0.78440   0.90028   0.44547   0.00000  Uiso   1.00
H261   H     0.14974   0.04126   0.33512   0.00000  Uiso   1.00
H262   H     0.15714   0.16558   0.40517   0.00000  Uiso   1.00
H263   H     0.07047   0.99120   0.21333   0.00000  Uiso   1.00
H264   H     0.17264   0.96538   0.38670   0.00000  Uiso   1.00
H265   H     0.24251   0.30592   0.48301   0.00000  Uiso   1.00
H266   H     0.05975   0.93820   0.07851   0.00000  Uiso   1.00
H267   H     0.27521   0.88376   0.44409   0.00000  Uiso   1.00
O268   O     0.51270   0.39632   0.52980   0.00000  Uiso   1.00
O269   O     0.27292   0.91387   0.99911   0.00000  Uiso   1.00
O270   O     0.55561   0.84245   0.47873   0.00000  Uiso   1.00
N271   N     0.63086   0.30149   0.47447   0.00000  Uiso   1.00
N272   N     0.45998   0.95770   0.09629   0.00000  Uiso   1.00
N273   N     0.66142   0.90679   0.43805   0.00000  Uiso   1.00
N274   N     0.35686   0.29260   0.47373   0.00000  Uiso   1.00
N275   N     0.18599   0.94881   0.09554   0.00000  Uiso   1.00
N276   N     0.38742   0.89790   0.43731   0.00000  Uiso   1.00
