data_job_05583
_audit_creation_date              2018-12-19
_audit_creation_method            'Materials Studio'
_symmetry_space_group_name_H-M    'P1'
_symmetry_Int_Tables_number       1
_symmetry_cell_setting            triclinic
loop_
_symmetry_equiv_pos_as_xyz
  x,y,z
_cell_length_a                    18.8797
_cell_length_b                    13.2444
_cell_length_c                    22.0534
_cell_angle_alpha                 90.0000
_cell_angle_beta                  90.0000
_cell_angle_gamma                 90.0000
loop_
_atom_site_label
_atom_site_type_symbol
_atom_site_fract_x
_atom_site_fract_y
_atom_site_fract_z
_atom_site_U_iso_or_equiv
_atom_site_adp_type
_atom_site_occupancy
C1     C     0.13049   0.20933   0.21765   0.00000  Uiso   1.00
C2     C     0.20873   0.21706   0.20113   0.00000  Uiso   1.00
C3     C     0.26171   0.15172   0.22018   0.00000  Uiso   1.00
C4     C     0.32998   0.17170   0.20009   0.00000  Uiso   1.00
C5     C     0.44925   0.17120   0.18020   0.00000  Uiso   1.00
C6     C     0.11087   0.31018   0.24649   0.00000  Uiso   1.00
C7     C     0.08156   0.32312   0.30368   0.00000  Uiso   1.00
C8     C     0.06744   0.42149   0.32178   0.00000  Uiso   1.00
C9     C     0.03473   0.56554   0.37229   0.00000  Uiso   1.00
C10    C     0.09039   0.20471   0.15770   0.00000  Uiso   1.00
C11    C     0.04385   0.12900   0.14023   0.00000  Uiso   1.00
C12    C     0.01248   0.13859   0.08358   0.00000  Uiso   1.00
C13    C     0.94796   0.11889   0.99623   0.00000  Uiso   1.00
C14    C     0.15752   0.36100   0.14811   0.00000  Uiso   1.00
C15    C     0.22341   0.29944   0.16336   0.00000  Uiso   1.00
C16    C     0.29162   0.31953   0.14324   0.00000  Uiso   1.00
C17    C     0.34469   0.25423   0.16225   0.00000  Uiso   1.00
C18    C     0.12555   0.39256   0.20872   0.00000  Uiso   1.00
C19    C     0.11147   0.49093   0.22674   0.00000  Uiso   1.00
C20    C     0.08215   0.50402   0.28394   0.00000  Uiso   1.00
C21    C     0.10507   0.28709   0.11992   0.00000  Uiso   1.00
C22    C     0.07376   0.29680   0.06329   0.00000  Uiso   1.00
C23    C     0.02718   0.22112   0.04574   0.00000  Uiso   1.00
H24    H     0.11905   0.14520   0.24706   0.00000  Uiso   1.00
H25    H     0.25033   0.08798   0.24941   0.00000  Uiso   1.00
H26    H     0.07020   0.25936   0.33289   0.00000  Uiso   1.00
H27    H     0.03250   0.06526   0.16947   0.00000  Uiso   1.00
H28    H     0.40235   0.06089   0.23538   0.00000  Uiso   1.00
H29    H     0.02251   0.42225   0.41140   0.00000  Uiso   1.00
H30    H     0.94301   0.01296   0.06679   0.00000  Uiso   1.00
H31    H     0.16895   0.42515   0.11871   0.00000  Uiso   1.00
H32    H     0.30297   0.38328   0.11401   0.00000  Uiso   1.00
H33    H     0.12284   0.55466   0.19749   0.00000  Uiso   1.00
H34    H     0.08514   0.36056   0.03407   0.00000  Uiso   1.00
H35    H     0.44507   0.30058   0.12548   0.00000  Uiso   1.00
H36    H     0.06523   0.66193   0.30150   0.00000  Uiso   1.00
H37    H     0.98574   0.25264   0.95689   0.00000  Uiso   1.00
O38    O     0.51097   0.14817   0.17967   0.00000  Uiso   1.00
O39    O     0.01263   0.62224   0.41060   0.00000  Uiso   1.00
O40    O     0.90833   0.08526   0.95848   0.00000  Uiso   1.00
N41    N     0.39401   0.12304   0.21015   0.00000  Uiso   1.00
N42    N     0.03889   0.46088   0.37472   0.00000  Uiso   1.00
N43    N     0.96455   0.07824   0.05254   0.00000  Uiso   1.00
N44    N     0.41700   0.25201   0.15101   0.00000  Uiso   1.00
N45    N     0.06189   0.58985   0.31559   0.00000  Uiso   1.00
N46    N     0.98754   0.20721   0.99341   0.00000  Uiso   1.00
C47    C     0.36951   0.79067   0.21765   0.00000  Uiso   1.00
C48    C     0.29127   0.78294   0.20113   0.00000  Uiso   1.00
C49    C     0.23829   0.84828   0.22018   0.00000  Uiso   1.00
C50    C     0.17002   0.82830   0.20009   0.00000  Uiso   1.00
C51    C     0.05075   0.82880   0.18020   0.00000  Uiso   1.00
C52    C     0.38913   0.68982   0.24649   0.00000  Uiso   1.00
C53    C     0.41844   0.67688   0.30368   0.00000  Uiso   1.00
C54    C     0.43256   0.57851   0.32178   0.00000  Uiso   1.00
C55    C     0.46527   0.43446   0.37229   0.00000  Uiso   1.00
C56    C     0.40961   0.79529   0.15770   0.00000  Uiso   1.00
C57    C     0.45615   0.87100   0.14023   0.00000  Uiso   1.00
C58    C     0.48752   0.86141   0.08358   0.00000  Uiso   1.00
C59    C     0.55204   0.88111   0.99623   0.00000  Uiso   1.00
C60    C     0.34248   0.63900   0.14811   0.00000  Uiso   1.00
C61    C     0.27659   0.70056   0.16336   0.00000  Uiso   1.00
C62    C     0.20838   0.68047   0.14324   0.00000  Uiso   1.00
C63    C     0.15531   0.74577   0.16225   0.00000  Uiso   1.00
C64    C     0.37445   0.60744   0.20872   0.00000  Uiso   1.00
C65    C     0.38853   0.50907   0.22674   0.00000  Uiso   1.00
C66    C     0.41785   0.49598   0.28394   0.00000  Uiso   1.00
C67    C     0.39493   0.71291   0.11992   0.00000  Uiso   1.00
C68    C     0.42624   0.70320   0.06329   0.00000  Uiso   1.00
C69    C     0.47282   0.77888   0.04574   0.00000  Uiso   1.00
H70    H     0.38095   0.85480   0.24706   0.00000  Uiso   1.00
H71    H     0.24967   0.91202   0.24941   0.00000  Uiso   1.00
H72    H     0.42980   0.74064   0.33289   0.00000  Uiso   1.00
H73    H     0.46750   0.93474   0.16947   0.00000  Uiso   1.00
H74    H     0.09765   0.93911   0.23538   0.00000  Uiso   1.00
H75    H     0.47749   0.57775   0.41140   0.00000  Uiso   1.00
H76    H     0.55699   0.98704   0.06679   0.00000  Uiso   1.00
H77    H     0.33105   0.57485   0.11871   0.00000  Uiso   1.00
H78    H     0.19703   0.61672   0.11401   0.00000  Uiso   1.00
H79    H     0.37716   0.44534   0.19749   0.00000  Uiso   1.00
H80    H     0.41486   0.63944   0.03407   0.00000  Uiso   1.00
H81    H     0.05493   0.69942   0.12548   0.00000  Uiso   1.00
H82    H     0.43477   0.33807   0.30150   0.00000  Uiso   1.00
H83    H     0.51426   0.74736   0.95689   0.00000  Uiso   1.00
O84    O     0.98903   0.85183   0.17967   0.00000  Uiso   1.00
O85    O     0.48737   0.37776   0.41060   0.00000  Uiso   1.00
O86    O     0.59167   0.91474   0.95848   0.00000  Uiso   1.00
N87    N     0.10599   0.87696   0.21015   0.00000  Uiso   1.00
N88    N     0.46111   0.53912   0.37472   0.00000  Uiso   1.00
N89    N     0.53545   0.92176   0.05254   0.00000  Uiso   1.00
N90    N     0.08300   0.74799   0.15101   0.00000  Uiso   1.00
N91    N     0.43811   0.41015   0.31559   0.00000  Uiso   1.00
N92    N     0.51246   0.79279   0.99341   0.00000  Uiso   1.00
C93    C     0.86951   0.20933   0.28235   0.00000  Uiso   1.00
C94    C     0.79127   0.21706   0.29887   0.00000  Uiso   1.00
C95    C     0.73829   0.15172   0.27982   0.00000  Uiso   1.00
C96    C     0.67002   0.17170   0.29991   0.00000  Uiso   1.00
C97    C     0.55075   0.17120   0.31980   0.00000  Uiso   1.00
C98    C     0.88913   0.31018   0.25351   0.00000  Uiso   1.00
C99    C     0.91844   0.32312   0.19632   0.00000  Uiso   1.00
C100   C     0.93256   0.42149   0.17822   0.00000  Uiso   1.00
C101   C     0.96527   0.56554   0.12771   0.00000  Uiso   1.00
C102   C     0.90961   0.20471   0.34230   0.00000  Uiso   1.00
C103   C     0.95615   0.12900   0.35977   0.00000  Uiso   1.00
C104   C     0.98752   0.13859   0.41642   0.00000  Uiso   1.00
C105   C     0.05204   0.11889   0.50377   0.00000  Uiso   1.00
C106   C     0.84248   0.36100   0.35189   0.00000  Uiso   1.00
C107   C     0.77659   0.29944   0.33664   0.00000  Uiso   1.00
C108   C     0.70838   0.31953   0.35676   0.00000  Uiso   1.00
C109   C     0.65531   0.25423   0.33775   0.00000  Uiso   1.00
C110   C     0.87445   0.39256   0.29128   0.00000  Uiso   1.00
C111   C     0.88853   0.49093   0.27326   0.00000  Uiso   1.00
C112   C     0.91785   0.50402   0.21606   0.00000  Uiso   1.00
C113   C     0.89493   0.28709   0.38008   0.00000  Uiso   1.00
C114   C     0.92624   0.29680   0.43671   0.00000  Uiso   1.00
C115   C     0.97282   0.22112   0.45426   0.00000  Uiso   1.00
H116   H     0.88095   0.14520   0.25294   0.00000  Uiso   1.00
H117   H     0.74967   0.08798   0.25059   0.00000  Uiso   1.00
H118   H     0.92980   0.25936   0.16711   0.00000  Uiso   1.00
H119   H     0.96750   0.06526   0.33053   0.00000  Uiso   1.00
H120   H     0.59765   0.06089   0.26462   0.00000  Uiso   1.00
H121   H     0.97749   0.42225   0.08860   0.00000  Uiso   1.00
H122   H     0.05699   0.01296   0.43321   0.00000  Uiso   1.00
H123   H     0.83105   0.42515   0.38129   0.00000  Uiso   1.00
H124   H     0.69703   0.38328   0.38599   0.00000  Uiso   1.00
H125   H     0.87716   0.55466   0.30251   0.00000  Uiso   1.00
H126   H     0.91486   0.36056   0.46593   0.00000  Uiso   1.00
H127   H     0.55493   0.30058   0.37452   0.00000  Uiso   1.00
H128   H     0.93477   0.66193   0.19850   0.00000  Uiso   1.00
H129   H     0.01426   0.25264   0.54311   0.00000  Uiso   1.00
O130   O     0.48903   0.14817   0.32033   0.00000  Uiso   1.00
O131   O     0.98737   0.62224   0.08940   0.00000  Uiso   1.00
O132   O     0.09167   0.08526   0.54152   0.00000  Uiso   1.00
N133   N     0.60599   0.12304   0.28985   0.00000  Uiso   1.00
N134   N     0.96111   0.46088   0.12528   0.00000  Uiso   1.00
N135   N     0.03545   0.07824   0.44746   0.00000  Uiso   1.00
N136   N     0.58300   0.25201   0.34899   0.00000  Uiso   1.00
N137   N     0.93811   0.58985   0.18441   0.00000  Uiso   1.00
N138   N     0.01246   0.20721   0.50659   0.00000  Uiso   1.00
C139   C     0.63049   0.79067   0.28235   0.00000  Uiso   1.00
C140   C     0.70873   0.78294   0.29887   0.00000  Uiso   1.00
C141   C     0.76171   0.84828   0.27982   0.00000  Uiso   1.00
C142   C     0.82998   0.82830   0.29991   0.00000  Uiso   1.00
C143   C     0.94925   0.82880   0.31980   0.00000  Uiso   1.00
C144   C     0.61087   0.68982   0.25351   0.00000  Uiso   1.00
C145   C     0.58156   0.67688   0.19632   0.00000  Uiso   1.00
C146   C     0.56744   0.57851   0.17822   0.00000  Uiso   1.00
C147   C     0.53473   0.43446   0.12771   0.00000  Uiso   1.00
C148   C     0.59039   0.79529   0.34230   0.00000  Uiso   1.00
C149   C     0.54385   0.87100   0.35977   0.00000  Uiso   1.00
C150   C     0.51248   0.86141   0.41642   0.00000  Uiso   1.00
C151   C     0.44796   0.88111   0.50377   0.00000  Uiso   1.00
C152   C     0.65752   0.63900   0.35189   0.00000  Uiso   1.00
C153   C     0.72341   0.70056   0.33664   0.00000  Uiso   1.00
C154   C     0.79162   0.68047   0.35676   0.00000  Uiso   1.00
C155   C     0.84469   0.74577   0.33775   0.00000  Uiso   1.00
C156   C     0.62555   0.60744   0.29128   0.00000  Uiso   1.00
C157   C     0.61147   0.50907   0.27326   0.00000  Uiso   1.00
C158   C     0.58215   0.49598   0.21606   0.00000  Uiso   1.00
C159   C     0.60507   0.71291   0.38008   0.00000  Uiso   1.00
C160   C     0.57376   0.70320   0.43671   0.00000  Uiso   1.00
C161   C     0.52718   0.77888   0.45426   0.00000  Uiso   1.00
H162   H     0.61905   0.85480   0.25294   0.00000  Uiso   1.00
H163   H     0.75033   0.91202   0.25059   0.00000  Uiso   1.00
H164   H     0.57020   0.74064   0.16711   0.00000  Uiso   1.00
H165   H     0.53250   0.93474   0.33053   0.00000  Uiso   1.00
H166   H     0.90235   0.93911   0.26462   0.00000  Uiso   1.00
H167   H     0.52251   0.57775   0.08860   0.00000  Uiso   1.00
H168   H     0.44301   0.98704   0.43321   0.00000  Uiso   1.00
H169   H     0.66895   0.57485   0.38129   0.00000  Uiso   1.00
H170   H     0.80297   0.61672   0.38599   0.00000  Uiso   1.00
H171   H     0.62284   0.44534   0.30251   0.00000  Uiso   1.00
H172   H     0.58514   0.63944   0.46593   0.00000  Uiso   1.00
H173   H     0.94507   0.69942   0.37452   0.00000  Uiso   1.00
H174   H     0.56523   0.33807   0.19850   0.00000  Uiso   1.00
H175   H     0.48574   0.74736   0.54311   0.00000  Uiso   1.00
O176   O     0.01097   0.85183   0.32033   0.00000  Uiso   1.00
O177   O     0.51263   0.37776   0.08940   0.00000  Uiso   1.00
O178   O     0.40833   0.91474   0.54152   0.00000  Uiso   1.00
N179   N     0.89401   0.87696   0.28985   0.00000  Uiso   1.00
N180   N     0.53889   0.53912   0.12528   0.00000  Uiso   1.00
N181   N     0.46455   0.92176   0.44746   0.00000  Uiso   1.00
N182   N     0.91700   0.74799   0.34899   0.00000  Uiso   1.00
N183   N     0.56189   0.41015   0.18441   0.00000  Uiso   1.00
N184   N     0.48754   0.79279   0.50659   0.00000  Uiso   1.00
C185   C     0.86951   0.79067   0.78235   0.00000  Uiso   1.00
C186   C     0.79127   0.78294   0.79887   0.00000  Uiso   1.00
C187   C     0.73829   0.84828   0.77982   0.00000  Uiso   1.00
C188   C     0.67002   0.82830   0.79991   0.00000  Uiso   1.00
C189   C     0.55075   0.82880   0.81980   0.00000  Uiso   1.00
C190   C     0.88913   0.68982   0.75351   0.00000  Uiso   1.00
C191   C     0.91844   0.67688   0.69632   0.00000  Uiso   1.00
C192   C     0.93256   0.57851   0.67822   0.00000  Uiso   1.00
C193   C     0.96527   0.43446   0.62771   0.00000  Uiso   1.00
C194   C     0.90961   0.79529   0.84230   0.00000  Uiso   1.00
C195   C     0.95615   0.87100   0.85977   0.00000  Uiso   1.00
C196   C     0.98752   0.86141   0.91642   0.00000  Uiso   1.00
C197   C     0.05204   0.88111   0.00377   0.00000  Uiso   1.00
C198   C     0.84248   0.63900   0.85189   0.00000  Uiso   1.00
C199   C     0.77659   0.70056   0.83664   0.00000  Uiso   1.00
C200   C     0.70838   0.68047   0.85676   0.00000  Uiso   1.00
C201   C     0.65531   0.74577   0.83775   0.00000  Uiso   1.00
C202   C     0.87445   0.60744   0.79128   0.00000  Uiso   1.00
C203   C     0.88853   0.50907   0.77326   0.00000  Uiso   1.00
C204   C     0.91785   0.49598   0.71606   0.00000  Uiso   1.00
C205   C     0.89493   0.71291   0.88008   0.00000  Uiso   1.00
C206   C     0.92624   0.70320   0.93671   0.00000  Uiso   1.00
C207   C     0.97282   0.77888   0.95426   0.00000  Uiso   1.00
H208   H     0.88095   0.85480   0.75294   0.00000  Uiso   1.00
H209   H     0.74967   0.91202   0.75059   0.00000  Uiso   1.00
H210   H     0.92980   0.74064   0.66711   0.00000  Uiso   1.00
H211   H     0.96750   0.93474   0.83053   0.00000  Uiso   1.00
H212   H     0.59765   0.93911   0.76462   0.00000  Uiso   1.00
H213   H     0.97749   0.57775   0.58860   0.00000  Uiso   1.00
H214   H     0.05699   0.98704   0.93321   0.00000  Uiso   1.00
H215   H     0.83105   0.57485   0.88129   0.00000  Uiso   1.00
H216   H     0.69703   0.61672   0.88599   0.00000  Uiso   1.00
H217   H     0.87716   0.44534   0.80251   0.00000  Uiso   1.00
H218   H     0.91486   0.63944   0.96593   0.00000  Uiso   1.00
H219   H     0.55493   0.69942   0.87452   0.00000  Uiso   1.00
H220   H     0.93477   0.33807   0.69850   0.00000  Uiso   1.00
H221   H     0.01426   0.74736   0.04311   0.00000  Uiso   1.00
O222   O     0.48903   0.85183   0.82033   0.00000  Uiso   1.00
O223   O     0.98737   0.37776   0.58940   0.00000  Uiso   1.00
O224   O     0.09167   0.91474   0.04152   0.00000  Uiso   1.00
N225   N     0.60599   0.87696   0.78985   0.00000  Uiso   1.00
N226   N     0.96111   0.53912   0.62528   0.00000  Uiso   1.00
N227   N     0.03545   0.92176   0.94746   0.00000  Uiso   1.00
N228   N     0.58300   0.74799   0.84899   0.00000  Uiso   1.00
N229   N     0.93811   0.41015   0.68441   0.00000  Uiso   1.00
N230   N     0.01246   0.79279   0.00659   0.00000  Uiso   1.00
C231   C     0.63049   0.20933   0.78235   0.00000  Uiso   1.00
C232   C     0.70873   0.21706   0.79887   0.00000  Uiso   1.00
C233   C     0.76171   0.15172   0.77982   0.00000  Uiso   1.00
C234   C     0.82998   0.17170   0.79991   0.00000  Uiso   1.00
C235   C     0.94925   0.17120   0.81980   0.00000  Uiso   1.00
C236   C     0.61087   0.31018   0.75351   0.00000  Uiso   1.00
C237   C     0.58156   0.32312   0.69632   0.00000  Uiso   1.00
C238   C     0.56744   0.42149   0.67822   0.00000  Uiso   1.00
C239   C     0.53473   0.56554   0.62771   0.00000  Uiso   1.00
C240   C     0.59039   0.20471   0.84230   0.00000  Uiso   1.00
C241   C     0.54385   0.12900   0.85977   0.00000  Uiso   1.00
C242   C     0.51248   0.13859   0.91642   0.00000  Uiso   1.00
C243   C     0.44796   0.11889   0.00377   0.00000  Uiso   1.00
C244   C     0.65752   0.36100   0.85189   0.00000  Uiso   1.00
C245   C     0.72341   0.29944   0.83664   0.00000  Uiso   1.00
C246   C     0.79162   0.31953   0.85676   0.00000  Uiso   1.00
C247   C     0.84469   0.25423   0.83775   0.00000  Uiso   1.00
C248   C     0.62555   0.39256   0.79128   0.00000  Uiso   1.00
C249   C     0.61147   0.49093   0.77326   0.00000  Uiso   1.00
C250   C     0.58215   0.50402   0.71606   0.00000  Uiso   1.00
C251   C     0.60507   0.28709   0.88008   0.00000  Uiso   1.00
C252   C     0.57376   0.29680   0.93671   0.00000  Uiso   1.00
C253   C     0.52718   0.22112   0.95426   0.00000  Uiso   1.00
H254   H     0.61905   0.14520   0.75294   0.00000  Uiso   1.00
H255   H     0.75033   0.08798   0.75059   0.00000  Uiso   1.00
H256   H     0.57020   0.25936   0.66711   0.00000  Uiso   1.00
H257   H     0.53250   0.06526   0.83053   0.00000  Uiso   1.00
H258   H     0.90235   0.06089   0.76462   0.00000  Uiso   1.00
H259   H     0.52251   0.42225   0.58860   0.00000  Uiso   1.00
H260   H     0.44301   0.01296   0.93321   0.00000  Uiso   1.00
H261   H     0.66895   0.42515   0.88129   0.00000  Uiso   1.00
H262   H     0.80297   0.38328   0.88599   0.00000  Uiso   1.00
H263   H     0.62284   0.55466   0.80251   0.00000  Uiso   1.00
H264   H     0.58514   0.36056   0.96593   0.00000  Uiso   1.00
H265   H     0.94507   0.30058   0.87452   0.00000  Uiso   1.00
H266   H     0.56523   0.66193   0.69850   0.00000  Uiso   1.00
H267   H     0.48574   0.25264   0.04311   0.00000  Uiso   1.00
O268   O     0.01097   0.14817   0.82033   0.00000  Uiso   1.00
O269   O     0.51263   0.62224   0.58940   0.00000  Uiso   1.00
O270   O     0.40833   0.08526   0.04152   0.00000  Uiso   1.00
N271   N     0.89401   0.12304   0.78985   0.00000  Uiso   1.00
N272   N     0.53889   0.46088   0.62528   0.00000  Uiso   1.00
N273   N     0.46455   0.07824   0.94746   0.00000  Uiso   1.00
N274   N     0.91700   0.25201   0.84899   0.00000  Uiso   1.00
N275   N     0.56189   0.58985   0.68441   0.00000  Uiso   1.00
N276   N     0.48754   0.20721   0.00659   0.00000  Uiso   1.00
C277   C     0.13049   0.79067   0.71765   0.00000  Uiso   1.00
C278   C     0.20873   0.78294   0.70113   0.00000  Uiso   1.00
C279   C     0.26171   0.84828   0.72018   0.00000  Uiso   1.00
C280   C     0.32998   0.82830   0.70009   0.00000  Uiso   1.00
C281   C     0.44925   0.82880   0.68020   0.00000  Uiso   1.00
C282   C     0.11087   0.68982   0.74649   0.00000  Uiso   1.00
C283   C     0.08156   0.67688   0.80368   0.00000  Uiso   1.00
C284   C     0.06744   0.57851   0.82178   0.00000  Uiso   1.00
C285   C     0.03473   0.43446   0.87229   0.00000  Uiso   1.00
C286   C     0.09039   0.79529   0.65770   0.00000  Uiso   1.00
C287   C     0.04385   0.87100   0.64023   0.00000  Uiso   1.00
C288   C     0.01248   0.86141   0.58358   0.00000  Uiso   1.00
C289   C     0.94796   0.88111   0.49623   0.00000  Uiso   1.00
C290   C     0.15752   0.63900   0.64811   0.00000  Uiso   1.00
C291   C     0.22341   0.70056   0.66336   0.00000  Uiso   1.00
C292   C     0.29162   0.68047   0.64324   0.00000  Uiso   1.00
C293   C     0.34469   0.74577   0.66225   0.00000  Uiso   1.00
C294   C     0.12555   0.60744   0.70872   0.00000  Uiso   1.00
C295   C     0.11147   0.50907   0.72674   0.00000  Uiso   1.00
C296   C     0.08215   0.49598   0.78394   0.00000  Uiso   1.00
C297   C     0.10507   0.71291   0.61992   0.00000  Uiso   1.00
C298   C     0.07376   0.70320   0.56329   0.00000  Uiso   1.00
C299   C     0.02718   0.77888   0.54574   0.00000  Uiso   1.00
H300   H     0.11905   0.85480   0.74706   0.00000  Uiso   1.00
H301   H     0.25033   0.91202   0.74941   0.00000  Uiso   1.00
H302   H     0.07020   0.74064   0.83289   0.00000  Uiso   1.00
H303   H     0.03250   0.93474   0.66947   0.00000  Uiso   1.00
H304   H     0.40235   0.93911   0.73538   0.00000  Uiso   1.00
H305   H     0.02251   0.57775   0.91140   0.00000  Uiso   1.00
H306   H     0.94301   0.98704   0.56679   0.00000  Uiso   1.00
H307   H     0.16895   0.57485   0.61871   0.00000  Uiso   1.00
H308   H     0.30297   0.61672   0.61401   0.00000  Uiso   1.00
H309   H     0.12284   0.44534   0.69749   0.00000  Uiso   1.00
H310   H     0.08514   0.63944   0.53407   0.00000  Uiso   1.00
H311   H     0.44507   0.69942   0.62548   0.00000  Uiso   1.00
H312   H     0.06523   0.33807   0.80150   0.00000  Uiso   1.00
H313   H     0.98574   0.74736   0.45689   0.00000  Uiso   1.00
O314   O     0.51097   0.85183   0.67967   0.00000  Uiso   1.00
O315   O     0.01263   0.37776   0.91060   0.00000  Uiso   1.00
O316   O     0.90833   0.91474   0.45848   0.00000  Uiso   1.00
N317   N     0.39401   0.87696   0.71015   0.00000  Uiso   1.00
N318   N     0.03889   0.53912   0.87472   0.00000  Uiso   1.00
N319   N     0.96455   0.92176   0.55254   0.00000  Uiso   1.00
N320   N     0.41700   0.74799   0.65101   0.00000  Uiso   1.00
N321   N     0.06189   0.41015   0.81559   0.00000  Uiso   1.00
N322   N     0.98754   0.79279   0.49341   0.00000  Uiso   1.00
C323   C     0.36951   0.20933   0.71765   0.00000  Uiso   1.00
C324   C     0.29127   0.21706   0.70113   0.00000  Uiso   1.00
C325   C     0.23829   0.15172   0.72018   0.00000  Uiso   1.00
C326   C     0.17002   0.17170   0.70009   0.00000  Uiso   1.00
C327   C     0.05075   0.17120   0.68020   0.00000  Uiso   1.00
C328   C     0.38913   0.31018   0.74649   0.00000  Uiso   1.00
C329   C     0.41844   0.32312   0.80368   0.00000  Uiso   1.00
C330   C     0.43256   0.42149   0.82178   0.00000  Uiso   1.00
C331   C     0.46527   0.56554   0.87229   0.00000  Uiso   1.00
C332   C     0.40961   0.20471   0.65770   0.00000  Uiso   1.00
C333   C     0.45615   0.12900   0.64023   0.00000  Uiso   1.00
C334   C     0.48752   0.13859   0.58358   0.00000  Uiso   1.00
C335   C     0.55204   0.11889   0.49623   0.00000  Uiso   1.00
C336   C     0.34248   0.36100   0.64811   0.00000  Uiso   1.00
C337   C     0.27659   0.29944   0.66336   0.00000  Uiso   1.00
C338   C     0.20838   0.31953   0.64324   0.00000  Uiso   1.00
C339   C     0.15531   0.25423   0.66225   0.00000  Uiso   1.00
C340   C     0.37445   0.39256   0.70872   0.00000  Uiso   1.00
C341   C     0.38853   0.49093   0.72674   0.00000  Uiso   1.00
C342   C     0.41785   0.50402   0.78394   0.00000  Uiso   1.00
C343   C     0.39493   0.28709   0.61992   0.00000  Uiso   1.00
C344   C     0.42624   0.29680   0.56329   0.00000  Uiso   1.00
C345   C     0.47282   0.22112   0.54574   0.00000  Uiso   1.00
H346   H     0.38095   0.14520   0.74706   0.00000  Uiso   1.00
H347   H     0.24967   0.08798   0.74941   0.00000  Uiso   1.00
H348   H     0.42980   0.25936   0.83289   0.00000  Uiso   1.00
H349   H     0.46750   0.06526   0.66947   0.00000  Uiso   1.00
H350   H     0.09765   0.06089   0.73538   0.00000  Uiso   1.00
H351   H     0.47749   0.42225   0.91140   0.00000  Uiso   1.00
H352   H     0.55699   0.01296   0.56679   0.00000  Uiso   1.00
H353   H     0.33105   0.42515   0.61871   0.00000  Uiso   1.00
H354   H     0.19703   0.38328   0.61401   0.00000  Uiso   1.00
H355   H     0.37716   0.55466   0.69749   0.00000  Uiso   1.00
H356   H     0.41486   0.36056   0.53407   0.00000  Uiso   1.00
H357   H     0.05493   0.30058   0.62548   0.00000  Uiso   1.00
H358   H     0.43477   0.66193   0.80150   0.00000  Uiso   1.00
H359   H     0.51426   0.25264   0.45689   0.00000  Uiso   1.00
O360   O     0.98903   0.14817   0.67967   0.00000  Uiso   1.00
O361   O     0.48737   0.62224   0.91060   0.00000  Uiso   1.00
O362   O     0.59167   0.08526   0.45848   0.00000  Uiso   1.00
N363   N     0.10599   0.12304   0.71015   0.00000  Uiso   1.00
N364   N     0.46111   0.46088   0.87472   0.00000  Uiso   1.00
N365   N     0.53545   0.07824   0.55254   0.00000  Uiso   1.00
N366   N     0.08300   0.25201   0.65101   0.00000  Uiso   1.00
N367   N     0.43811   0.58985   0.81559   0.00000  Uiso   1.00
N368   N     0.51246   0.20721   0.49341   0.00000  Uiso   1.00
