data_job_06351
_audit_creation_date              2018-12-19
_audit_creation_method            'Materials Studio'
_symmetry_space_group_name_H-M    'P1'
_symmetry_Int_Tables_number       1
_symmetry_cell_setting            triclinic
loop_
_symmetry_equiv_pos_as_xyz
  x,y,z
_cell_length_a                    18.7037
_cell_length_b                    18.3545
_cell_length_c                    17.8149
_cell_angle_alpha                 102.0690
_cell_angle_beta                  102.1910
_cell_angle_gamma                 101.7990
loop_
_atom_site_label
_atom_site_type_symbol
_atom_site_fract_x
_atom_site_fract_y
_atom_site_fract_z
_atom_site_U_iso_or_equiv
_atom_site_adp_type
_atom_site_occupancy
C1     C     0.42510   0.73761   0.99339   0.00000  Uiso   1.00
C2     C     0.48640   0.74262   0.06730   0.00000  Uiso   1.00
C3     C     0.55620   0.79665   0.09608   0.00000  Uiso   1.00
C4     C     0.60439   0.79152   0.16455   0.00000  Uiso   1.00
C5     C     0.70277   0.80796   0.27347   0.00000  Uiso   1.00
C6     C     0.40854   0.65619   0.94001   0.00000  Uiso   1.00
C7     C     0.41286   0.63756   0.86177   0.00000  Uiso   1.00
C8     C     0.39550   0.55967   0.82309   0.00000  Uiso   1.00
C9     C     0.37294   0.44194   0.73438   0.00000  Uiso   1.00
C10    C     0.35395   0.74193   0.02111   0.00000  Uiso   1.00
C11    C     0.31237   0.79538   0.01103   0.00000  Uiso   1.00
C12    C     0.24903   0.78966   0.04061   0.00000  Uiso   1.00
C13    C     0.14173   0.80505   0.07782   0.00000  Uiso   1.00
C14    C     0.38656   0.63242   0.06382   0.00000  Uiso   1.00
C15    C     0.46546   0.68548   0.10555   0.00000  Uiso   1.00
C16    C     0.51355   0.68027   0.17400   0.00000  Uiso   1.00
C17    C     0.58341   0.73428   0.20287   0.00000  Uiso   1.00
C18    C     0.38760   0.59906   0.97826   0.00000  Uiso   1.00
C19    C     0.37022   0.52118   0.93969   0.00000  Uiso   1.00
C20    C     0.37452   0.50243   0.86141   0.00000  Uiso   1.00
C21    C     0.33302   0.68480   0.05937   0.00000  Uiso   1.00
C22    C     0.26973   0.67899   0.08896   0.00000  Uiso   1.00
C23    C     0.22806   0.73242   0.07893   0.00000  Uiso   1.00
H24    H     0.44139   0.78209   0.96360   0.00000  Uiso   1.00
H25    H     0.57238   0.84086   0.06645   0.00000  Uiso   1.00
H26    H     0.42906   0.68179   0.83218   0.00000  Uiso   1.00
H27    H     0.32858   0.83958   0.98143   0.00000  Uiso   1.00
H28    H     0.70838   0.88079   0.19733   0.00000  Uiso   1.00
H29    H     0.40615   0.54539   0.70335   0.00000  Uiso   1.00
H30    H     0.19428   0.87813   0.01806   0.00000  Uiso   1.00
H31    H     0.37026   0.58793   0.09360   0.00000  Uiso   1.00
H32    H     0.49734   0.63604   0.20359   0.00000  Uiso   1.00
H33    H     0.35402   0.47698   0.96931   0.00000  Uiso   1.00
H34    H     0.25355   0.63477   0.11856   0.00000  Uiso   1.00
H35    H     0.64748   0.71455   0.30864   0.00000  Uiso   1.00
H36    H     0.34524   0.37915   0.81464   0.00000  Uiso   1.00
H37    H     0.13338   0.71189   0.12936   0.00000  Uiso   1.00
O38    O     0.76282   0.83281   0.32298   0.00000  Uiso   1.00
O39    O     0.36629   0.39278   0.67488   0.00000  Uiso   1.00
O40    O     0.08833   0.82932   0.08778   0.00000  Uiso   1.00
N41    N     0.67660   0.83507   0.20844   0.00000  Uiso   1.00
N42    N     0.39405   0.52150   0.74660   0.00000  Uiso   1.00
N43    N     0.19595   0.83256   0.04081   0.00000  Uiso   1.00
N44    N     0.64383   0.74562   0.26834   0.00000  Uiso   1.00
N45    N     0.36127   0.43205   0.80649   0.00000  Uiso   1.00
N46    N     0.16318   0.74311   0.10070   0.00000  Uiso   1.00
C47    C     0.99565   0.42526   0.73903   0.00000  Uiso   1.00
C48    C     0.06586   0.48739   0.74426   0.00000  Uiso   1.00
C49    C     0.09325   0.55855   0.80011   0.00000  Uiso   1.00
C50    C     0.15828   0.60732   0.79486   0.00000  Uiso   1.00
C51    C     0.26177   0.70712   0.81193   0.00000  Uiso   1.00
C52    C     0.94469   0.40839   0.65506   0.00000  Uiso   1.00
C53    C     0.87019   0.41311   0.63593   0.00000  Uiso   1.00
C54    C     0.83322   0.39537   0.55559   0.00000  Uiso   1.00
C55    C     0.74857   0.37247   0.43418   0.00000  Uiso   1.00
C56    C     0.02216   0.35264   0.74329   0.00000  Uiso   1.00
C57    C     0.01279   0.31046   0.79833   0.00000  Uiso   1.00
C58    C     0.04104   0.24576   0.79227   0.00000  Uiso   1.00
C59    C     0.07667   0.13628   0.80786   0.00000  Uiso   1.00
C60    C     0.06244   0.38535   0.63036   0.00000  Uiso   1.00
C61    C     0.10214   0.46571   0.68523   0.00000  Uiso   1.00
C62    C     0.16715   0.51439   0.67989   0.00000  Uiso   1.00
C63    C     0.19463   0.58560   0.73573   0.00000  Uiso   1.00
C64    C     0.98097   0.38672   0.59604   0.00000  Uiso   1.00
C65    C     0.94410   0.36896   0.51571   0.00000  Uiso   1.00
C66    C     0.86957   0.37366   0.49646   0.00000  Uiso   1.00
C67    C     0.05845   0.33096   0.68427   0.00000  Uiso   1.00
C68    C     0.08670   0.26631   0.67811   0.00000  Uiso   1.00
C69    C     0.07738   0.22404   0.73314   0.00000  Uiso   1.00
H70    H     0.96740   0.44213   0.78497   0.00000  Uiso   1.00
H71    H     0.06515   0.57531   0.84578   0.00000  Uiso   1.00
H72    H     0.84213   0.42988   0.68162   0.00000  Uiso   1.00
H73    H     0.98471   0.32725   0.84400   0.00000  Uiso   1.00
H74    H     0.18951   0.71340   0.88714   0.00000  Uiso   1.00
H75    H     0.71926   0.40675   0.54101   0.00000  Uiso   1.00
H76    H     0.01992   0.19032   0.88342   0.00000  Uiso   1.00
H77    H     0.09069   0.36847   0.58441   0.00000  Uiso   1.00
H78    H     0.19521   0.49760   0.63421   0.00000  Uiso   1.00
H79    H     0.97219   0.35218   0.47005   0.00000  Uiso   1.00
H80    H     0.11477   0.24955   0.63243   0.00000  Uiso   1.00
H81    H     0.29508   0.65034   0.71542   0.00000  Uiso   1.00
H82    H     0.82481   0.34368   0.36928   0.00000  Uiso   1.00
H83    H     0.12548   0.12726   0.71170   0.00000  Uiso   1.00
O84    O     0.30881   0.76816   0.83764   0.00000  Uiso   1.00
O85    O     0.69185   0.36583   0.38353   0.00000  Uiso   1.00
O86    O     0.08631   0.08188   0.83277   0.00000  Uiso   1.00
N87    N     0.20002   0.68083   0.83990   0.00000  Uiso   1.00
N88    N     0.76036   0.39414   0.51629   0.00000  Uiso   1.00
N89    N     0.04144   0.19179   0.83640   0.00000  Uiso   1.00
N90    N     0.25682   0.64690   0.74750   0.00000  Uiso   1.00
N91    N     0.81716   0.36021   0.42388   0.00000  Uiso   1.00
N92    N     0.09824   0.15785   0.74400   0.00000  Uiso   1.00
C93    C     0.73688   0.99461   0.42479   0.00000  Uiso   1.00
C94    C     0.74189   0.06632   0.48903   0.00000  Uiso   1.00
C95    C     0.79516   0.09418   0.56243   0.00000  Uiso   1.00
C96    C     0.79017   0.16062   0.61289   0.00000  Uiso   1.00
C97    C     0.80648   0.26628   0.71605   0.00000  Uiso   1.00
C98    C     0.65705   0.94303   0.40736   0.00000  Uiso   1.00
C99    C     0.63900   0.86721   0.41208   0.00000  Uiso   1.00
C100   C     0.56260   0.82986   0.39378   0.00000  Uiso   1.00
C101   C     0.44720   0.74409   0.37008   0.00000  Uiso   1.00
C102   C     0.74070   0.02141   0.34993   0.00000  Uiso   1.00
C103   C     0.79297   0.01148   0.30635   0.00000  Uiso   1.00
C104   C     0.78697   0.04010   0.23968   0.00000  Uiso   1.00
C105   C     0.80145   0.07603   0.12682   0.00000  Uiso   1.00
C106   C     0.63328   0.06308   0.38388   0.00000  Uiso   1.00
C107   C     0.68561   0.10351   0.46681   0.00000  Uiso   1.00
C108   C     0.68054   0.16993   0.51717   0.00000  Uiso   1.00
C109   C     0.73380   0.19787   0.59063   0.00000  Uiso   1.00
C110   C     0.60078   0.98021   0.38514   0.00000  Uiso   1.00
C111   C     0.52438   0.94296   0.36683   0.00000  Uiso   1.00
C112   C     0.50622   0.86712   0.37152   0.00000  Uiso   1.00
C113   C     0.68443   0.05860   0.32771   0.00000  Uiso   1.00
C114   C     0.67834   0.08723   0.26110   0.00000  Uiso   1.00
C115   C     0.73060   0.07736   0.21743   0.00000  Uiso   1.00
H116   H     0.78069   0.96566   0.44208   0.00000  Uiso   1.00
H117   H     0.83870   0.06538   0.57961   0.00000  Uiso   1.00
H118   H     0.68257   0.83845   0.42927   0.00000  Uiso   1.00
H119   H     0.83651   0.98270   0.32356   0.00000  Uiso   1.00
H120   H     0.87818   0.19232   0.72229   0.00000  Uiso   1.00
H121   H     0.54896   0.71382   0.40528   0.00000  Uiso   1.00
H122   H     0.87358   0.01800   0.18236   0.00000  Uiso   1.00
H123   H     0.58946   0.09203   0.36658   0.00000  Uiso   1.00
H124   H     0.63698   0.19869   0.49996   0.00000  Uiso   1.00
H125   H     0.48085   0.97176   0.34963   0.00000  Uiso   1.00
H126   H     0.63479   0.11601   0.24392   0.00000  Uiso   1.00
H127   H     0.71446   0.30052   0.65765   0.00000  Uiso   1.00
H128   H     0.38524   0.82201   0.34063   0.00000  Uiso   1.00
H129   H     0.70986   0.12619   0.11772   0.00000  Uiso   1.00
O130   O     0.83102   0.31428   0.77909   0.00000  Uiso   1.00
O131   O     0.39910   0.68651   0.36316   0.00000  Uiso   1.00
O132   O     0.82499   0.08559   0.07071   0.00000  Uiso   1.00
N133   N     0.83314   0.20315   0.68877   0.00000  Uiso   1.00
N134   N     0.52534   0.75579   0.39239   0.00000  Uiso   1.00
N135   N     0.82882   0.04015   0.18397   0.00000  Uiso   1.00
N136   N     0.74504   0.26138   0.65399   0.00000  Uiso   1.00
N137   N     0.43724   0.81401   0.35761   0.00000  Uiso   1.00
N138   N     0.74072   0.09837   0.14919   0.00000  Uiso   1.00
C139   C     0.57490   0.26239   0.00661   0.00000  Uiso   1.00
C140   C     0.51360   0.25738   0.93270   0.00000  Uiso   1.00
C141   C     0.44380   0.20335   0.90392   0.00000  Uiso   1.00
C142   C     0.39561   0.20848   0.83545   0.00000  Uiso   1.00
C143   C     0.29723   0.19204   0.72653   0.00000  Uiso   1.00
C144   C     0.59146   0.34381   0.05999   0.00000  Uiso   1.00
C145   C     0.58714   0.36244   0.13823   0.00000  Uiso   1.00
C146   C     0.60450   0.44033   0.17691   0.00000  Uiso   1.00
C147   C     0.62706   0.55806   0.26562   0.00000  Uiso   1.00
C148   C     0.64605   0.25807   0.97889   0.00000  Uiso   1.00
C149   C     0.68763   0.20462   0.98897   0.00000  Uiso   1.00
C150   C     0.75097   0.21034   0.95938   0.00000  Uiso   1.00
C151   C     0.85827   0.19495   0.92218   0.00000  Uiso   1.00
C152   C     0.61344   0.36758   0.93618   0.00000  Uiso   1.00
C153   C     0.53454   0.31452   0.89445   0.00000  Uiso   1.00
C154   C     0.48645   0.31973   0.82600   0.00000  Uiso   1.00
C155   C     0.41659   0.26572   0.79712   0.00000  Uiso   1.00
C156   C     0.61240   0.40094   0.02174   0.00000  Uiso   1.00
C157   C     0.62978   0.47882   0.06031   0.00000  Uiso   1.00
C158   C     0.62548   0.49757   0.13859   0.00000  Uiso   1.00
C159   C     0.66698   0.31520   0.94063   0.00000  Uiso   1.00
C160   C     0.73027   0.32101   0.91104   0.00000  Uiso   1.00
C161   C     0.77194   0.26758   0.92106   0.00000  Uiso   1.00
H162   H     0.55860   0.21791   0.03640   0.00000  Uiso   1.00
H163   H     0.42762   0.15914   0.93355   0.00000  Uiso   1.00
H164   H     0.57094   0.31821   0.16782   0.00000  Uiso   1.00
H165   H     0.67142   0.16042   0.01857   0.00000  Uiso   1.00
H166   H     0.29162   0.11921   0.80266   0.00000  Uiso   1.00
H167   H     0.59385   0.45461   0.29665   0.00000  Uiso   1.00
H168   H     0.80572   0.12187   0.98194   0.00000  Uiso   1.00
H169   H     0.62974   0.41207   0.90640   0.00000  Uiso   1.00
H170   H     0.50266   0.36396   0.79641   0.00000  Uiso   1.00
H171   H     0.64598   0.52302   0.03069   0.00000  Uiso   1.00
H172   H     0.74645   0.36523   0.88144   0.00000  Uiso   1.00
H173   H     0.35252   0.28545   0.69136   0.00000  Uiso   1.00
H174   H     0.65476   0.62085   0.18536   0.00000  Uiso   1.00
H175   H     0.86662   0.28811   0.87064   0.00000  Uiso   1.00
O176   O     0.23718   0.16719   0.67702   0.00000  Uiso   1.00
O177   O     0.63371   0.60722   0.32512   0.00000  Uiso   1.00
O178   O     0.91167   0.17068   0.91222   0.00000  Uiso   1.00
N179   N     0.32340   0.16493   0.79156   0.00000  Uiso   1.00
N180   N     0.60595   0.47850   0.25340   0.00000  Uiso   1.00
N181   N     0.80405   0.16744   0.95919   0.00000  Uiso   1.00
N182   N     0.35617   0.25438   0.73166   0.00000  Uiso   1.00
N183   N     0.63873   0.56795   0.19351   0.00000  Uiso   1.00
N184   N     0.83682   0.25689   0.89930   0.00000  Uiso   1.00
C185   C     0.00435   0.57474   0.26097   0.00000  Uiso   1.00
C186   C     0.93414   0.51261   0.25574   0.00000  Uiso   1.00
C187   C     0.90675   0.44145   0.19989   0.00000  Uiso   1.00
C188   C     0.84172   0.39268   0.20514   0.00000  Uiso   1.00
C189   C     0.73823   0.29288   0.18807   0.00000  Uiso   1.00
C190   C     0.05531   0.59161   0.34494   0.00000  Uiso   1.00
C191   C     0.12981   0.58689   0.36407   0.00000  Uiso   1.00
C192   C     0.16678   0.60463   0.44441   0.00000  Uiso   1.00
C193   C     0.25143   0.62753   0.56582   0.00000  Uiso   1.00
C194   C     0.97784   0.64736   0.25671   0.00000  Uiso   1.00
C195   C     0.98721   0.68954   0.20167   0.00000  Uiso   1.00
C196   C     0.95896   0.75424   0.20773   0.00000  Uiso   1.00
C197   C     0.92333   0.86372   0.19214   0.00000  Uiso   1.00
C198   C     0.93756   0.61465   0.36964   0.00000  Uiso   1.00
C199   C     0.89786   0.53429   0.31477   0.00000  Uiso   1.00
C200   C     0.83285   0.48561   0.32011   0.00000  Uiso   1.00
C201   C     0.80537   0.41440   0.26427   0.00000  Uiso   1.00
C202   C     0.01903   0.61328   0.40396   0.00000  Uiso   1.00
C203   C     0.05590   0.63104   0.48429   0.00000  Uiso   1.00
C204   C     0.13043   0.62634   0.50354   0.00000  Uiso   1.00
C205   C     0.94155   0.66904   0.31573   0.00000  Uiso   1.00
C206   C     0.91330   0.73369   0.32189   0.00000  Uiso   1.00
C207   C     0.92262   0.77596   0.26686   0.00000  Uiso   1.00
H208   H     0.03260   0.55787   0.21503   0.00000  Uiso   1.00
H209   H     0.93485   0.42469   0.15422   0.00000  Uiso   1.00
H210   H     0.15787   0.57012   0.31838   0.00000  Uiso   1.00
H211   H     0.01529   0.67275   0.15600   0.00000  Uiso   1.00
H212   H     0.81049   0.28660   0.11286   0.00000  Uiso   1.00
H213   H     0.28074   0.59325   0.45899   0.00000  Uiso   1.00
H214   H     0.98008   0.80968   0.11658   0.00000  Uiso   1.00
H215   H     0.90931   0.63153   0.41559   0.00000  Uiso   1.00
H216   H     0.80478   0.50240   0.36579   0.00000  Uiso   1.00
H217   H     0.02781   0.64782   0.52995   0.00000  Uiso   1.00
H218   H     0.88523   0.75045   0.36757   0.00000  Uiso   1.00
H219   H     0.70492   0.34966   0.28458   0.00000  Uiso   1.00
H220   H     0.17519   0.65632   0.63072   0.00000  Uiso   1.00
H221   H     0.87452   0.87274   0.28830   0.00000  Uiso   1.00
O222   O     0.69119   0.23184   0.16236   0.00000  Uiso   1.00
O223   O     0.30815   0.63417   0.61647   0.00000  Uiso   1.00
O224   O     0.91369   0.91812   0.16723   0.00000  Uiso   1.00
N225   N     0.79998   0.31917   0.16010   0.00000  Uiso   1.00
N226   N     0.23964   0.60585   0.48371   0.00000  Uiso   1.00
N227   N     0.95856   0.80821   0.16360   0.00000  Uiso   1.00
N228   N     0.74318   0.35310   0.25250   0.00000  Uiso   1.00
N229   N     0.18284   0.63979   0.57612   0.00000  Uiso   1.00
N230   N     0.90176   0.84215   0.25600   0.00000  Uiso   1.00
C231   C     0.26312   0.00539   0.57521   0.00000  Uiso   1.00
C232   C     0.25811   0.93368   0.51097   0.00000  Uiso   1.00
C233   C     0.20484   0.90582   0.43757   0.00000  Uiso   1.00
C234   C     0.20983   0.83938   0.38711   0.00000  Uiso   1.00
C235   C     0.19352   0.73372   0.28395   0.00000  Uiso   1.00
C236   C     0.34295   0.05697   0.59264   0.00000  Uiso   1.00
C237   C     0.36100   0.13279   0.58792   0.00000  Uiso   1.00
C238   C     0.43740   0.17014   0.60622   0.00000  Uiso   1.00
C239   C     0.55280   0.25591   0.62992   0.00000  Uiso   1.00
C240   C     0.25930   0.97859   0.65007   0.00000  Uiso   1.00
C241   C     0.20703   0.98852   0.69365   0.00000  Uiso   1.00
C242   C     0.21303   0.95989   0.76032   0.00000  Uiso   1.00
C243   C     0.19855   0.92397   0.87318   0.00000  Uiso   1.00
C244   C     0.36672   0.93692   0.61612   0.00000  Uiso   1.00
C245   C     0.31439   0.89649   0.53319   0.00000  Uiso   1.00
C246   C     0.31946   0.83007   0.48283   0.00000  Uiso   1.00
C247   C     0.26620   0.80212   0.40937   0.00000  Uiso   1.00
C248   C     0.39922   0.01979   0.61486   0.00000  Uiso   1.00
C249   C     0.47562   0.05704   0.63317   0.00000  Uiso   1.00
C250   C     0.49378   0.13288   0.62848   0.00000  Uiso   1.00
C251   C     0.31557   0.94140   0.67229   0.00000  Uiso   1.00
C252   C     0.32166   0.91277   0.73890   0.00000  Uiso   1.00
C253   C     0.26940   0.92264   0.78257   0.00000  Uiso   1.00
H254   H     0.21931   0.03434   0.55792   0.00000  Uiso   1.00
H255   H     0.16130   0.93462   0.42039   0.00000  Uiso   1.00
H256   H     0.31743   0.16155   0.57073   0.00000  Uiso   1.00
H257   H     0.16349   0.01730   0.67644   0.00000  Uiso   1.00
H258   H     0.12182   0.80768   0.27771   0.00000  Uiso   1.00
H259   H     0.45104   0.28618   0.59472   0.00000  Uiso   1.00
H260   H     0.12642   0.98200   0.81764   0.00000  Uiso   1.00
H261   H     0.41054   0.90797   0.63342   0.00000  Uiso   1.00
H262   H     0.36302   0.80131   0.50004   0.00000  Uiso   1.00
H263   H     0.51915   0.02824   0.65037   0.00000  Uiso   1.00
H264   H     0.36521   0.88399   0.75608   0.00000  Uiso   1.00
H265   H     0.28554   0.69948   0.34235   0.00000  Uiso   1.00
H266   H     0.61476   0.17799   0.65937   0.00000  Uiso   1.00
H267   H     0.29014   0.87381   0.88228   0.00000  Uiso   1.00
O268   O     0.16898   0.68571   0.22091   0.00000  Uiso   1.00
O269   O     0.60090   0.31349   0.63684   0.00000  Uiso   1.00
O270   O     0.17501   0.91441   0.92929   0.00000  Uiso   1.00
N271   N     0.16686   0.79685   0.31123   0.00000  Uiso   1.00
N272   N     0.47466   0.24421   0.60761   0.00000  Uiso   1.00
N273   N     0.17118   0.95985   0.81603   0.00000  Uiso   1.00
N274   N     0.25496   0.73862   0.34601   0.00000  Uiso   1.00
N275   N     0.56276   0.18599   0.64239   0.00000  Uiso   1.00
N276   N     0.25928   0.90163   0.85081   0.00000  Uiso   1.00
