data_job_07012
_audit_creation_date              2018-12-19
_audit_creation_method            'Materials Studio'
_symmetry_space_group_name_H-M    'P1'
_symmetry_Int_Tables_number       1
_symmetry_cell_setting            triclinic
loop_
_symmetry_equiv_pos_as_xyz
  x,y,z
_cell_length_a                    20.8322
_cell_length_b                    20.8936
_cell_length_c                    20.8880
_cell_angle_alpha                 76.1235
_cell_angle_beta                  75.0367
_cell_angle_gamma                 74.2847
loop_
_atom_site_label
_atom_site_type_symbol
_atom_site_fract_x
_atom_site_fract_y
_atom_site_fract_z
_atom_site_U_iso_or_equiv
_atom_site_adp_type
_atom_site_occupancy
C1     C     0.16321   0.44271   0.69698   0.00000  Uiso   1.00
C2     C     0.21137   0.48056   0.70816   0.00000  Uiso   1.00
C3     C     0.20165   0.51098   0.76317   0.00000  Uiso   1.00
C4     C     0.25160   0.54311   0.76402   0.00000  Uiso   1.00
C5     C     0.31760   0.60166   0.78931   0.00000  Uiso   1.00
C6     C     0.14516   0.47733   0.62884   0.00000  Uiso   1.00
C7     C     0.07978   0.50501   0.61718   0.00000  Uiso   1.00
C8     C     0.07400   0.53442   0.55125   0.00000  Uiso   1.00
C9     C     0.03722   0.58790   0.45340   0.00000  Uiso   1.00
C10    C     0.20572   0.37231   0.68794   0.00000  Uiso   1.00
C11    C     0.19125   0.31169   0.72594   0.00000  Uiso   1.00
C12    C     0.23645   0.25268   0.70976   0.00000  Uiso   1.00
C13    C     0.29370   0.14310   0.70366   0.00000  Uiso   1.00
C14    C     0.26919   0.44570   0.60066   0.00000  Uiso   1.00
C15    C     0.26893   0.48218   0.65583   0.00000  Uiso   1.00
C16    C     0.31891   0.51428   0.65660   0.00000  Uiso   1.00
C17    C     0.30927   0.54473   0.71161   0.00000  Uiso   1.00
C18    C     0.20273   0.47895   0.57652   0.00000  Uiso   1.00
C19    C     0.19704   0.50831   0.51060   0.00000  Uiso   1.00
C20    C     0.13167   0.53604   0.49884   0.00000  Uiso   1.00
C21    C     0.26329   0.37393   0.63562   0.00000  Uiso   1.00
C22    C     0.30852   0.31499   0.61937   0.00000  Uiso   1.00
C23    C     0.29412   0.25430   0.65734   0.00000  Uiso   1.00
H24    H     0.11838   0.44145   0.73771   0.00000  Uiso   1.00
H25    H     0.15709   0.50972   0.80365   0.00000  Uiso   1.00
H26    H     0.03524   0.50374   0.65767   0.00000  Uiso   1.00
H27    H     0.14670   0.31046   0.76643   0.00000  Uiso   1.00
H28    H     0.22537   0.58613   0.85367   0.00000  Uiso   1.00
H29    H     0.96845   0.57352   0.54586   0.00000  Uiso   1.00
H30    H     0.20347   0.16594   0.77519   0.00000  Uiso   1.00
H31    H     0.31401   0.44696   0.55992   0.00000  Uiso   1.00
H32    H     0.36346   0.51552   0.61610   0.00000  Uiso   1.00
H33    H     0.24161   0.50955   0.47013   0.00000  Uiso   1.00
H34    H     0.35306   0.31627   0.57888   0.00000  Uiso   1.00
H35    H     0.39287   0.59085   0.70144   0.00000  Uiso   1.00
H36    H     0.13594   0.57823   0.39364   0.00000  Uiso   1.00
H37    H     0.37097   0.17065   0.62297   0.00000  Uiso   1.00
O38    O     0.33810   0.63352   0.81771   0.00000  Uiso   1.00
O39    O     0.00103   0.61695   0.41389   0.00000  Uiso   1.00
O40    O     0.30938   0.08222   0.71475   0.00000  Uiso   1.00
N41    N     0.25801   0.57782   0.81014   0.00000  Uiso   1.00
N42    N     0.01780   0.56604   0.52236   0.00000  Uiso   1.00
N43    N     0.23753   0.18498   0.73675   0.00000  Uiso   1.00
N44    N     0.34814   0.58036   0.72823   0.00000  Uiso   1.00
N45    N     0.10793   0.56858   0.44045   0.00000  Uiso   1.00
N46    N     0.32765   0.18752   0.65484   0.00000  Uiso   1.00
C47    C     0.69663   0.02798   0.54368   0.00000  Uiso   1.00
C48    C     0.71553   0.06799   0.58555   0.00000  Uiso   1.00
C49    C     0.77385   0.04946   0.61216   0.00000  Uiso   1.00
C50    C     0.78181   0.09292   0.64903   0.00000  Uiso   1.00
C51    C     0.81855   0.14593   0.71256   0.00000  Uiso   1.00
C52    C     0.62646   0.01534   0.58024   0.00000  Uiso   1.00
C53    C     0.60990   0.95254   0.60239   0.00000  Uiso   1.00
C54    C     0.54288   0.95168   0.63479   0.00000  Uiso   1.00
C55    C     0.44132   0.92295   0.69005   0.00000  Uiso   1.00
C56    C     0.68649   0.07608   0.47769   0.00000  Uiso   1.00
C57    C     0.72038   0.06434   0.41361   0.00000  Uiso   1.00
C58    C     0.70388   0.11461   0.35966   0.00000  Uiso   1.00
C59    C     0.69553   0.18018   0.25569   0.00000  Uiso   1.00
C60    C     0.60704   0.13811   0.56183   0.00000  Uiso   1.00
C61    C     0.66687   0.12781   0.59540   0.00000  Uiso   1.00
C62    C     0.67474   0.17130   0.63224   0.00000  Uiso   1.00
C63    C     0.73306   0.15285   0.65890   0.00000  Uiso   1.00
C64    C     0.57780   0.07515   0.59010   0.00000  Uiso   1.00
C65    C     0.51078   0.07438   0.62247   0.00000  Uiso   1.00
C66    C     0.49413   0.01160   0.64466   0.00000  Uiso   1.00
C67    C     0.63783   0.13589   0.48755   0.00000  Uiso   1.00
C68    C     0.62127   0.18618   0.43369   0.00000  Uiso   1.00
C69    C     0.65513   0.17453   0.36953   0.00000  Uiso   1.00
H70    H     0.73451   0.98141   0.53601   0.00000  Uiso   1.00
H71    H     0.81150   0.00317   0.60453   0.00000  Uiso   1.00
H72    H     0.64757   0.90626   0.59475   0.00000  Uiso   1.00
H73    H     0.75804   0.01805   0.40600   0.00000  Uiso   1.00
H74    H     0.87538   0.05365   0.68486   0.00000  Uiso   1.00
H75    H     0.52972   0.84933   0.66423   0.00000  Uiso   1.00
H76    H     0.76267   0.08504   0.26621   0.00000  Uiso   1.00
H77    H     0.56915   0.18467   0.56950   0.00000  Uiso   1.00
H78    H     0.63707   0.21759   0.63985   0.00000  Uiso   1.00
H79    H     0.47314   0.12068   0.63008   0.00000  Uiso   1.00
H80    H     0.58361   0.23246   0.44133   0.00000  Uiso   1.00
H81    H     0.73381   0.22768   0.71353   0.00000  Uiso   1.00
H82    H     0.38815   0.02336   0.69290   0.00000  Uiso   1.00
H83    H     0.62109   0.25907   0.29488   0.00000  Uiso   1.00
O84    O     0.85225   0.15864   0.74489   0.00000  Uiso   1.00
O85    O     0.39876   0.89058   0.71781   0.00000  Uiso   1.00
O86    O     0.70437   0.19983   0.19562   0.00000  Uiso   1.00
N87    N     0.83275   0.09010   0.68194   0.00000  Uiso   1.00
N88    N     0.50958   0.89907   0.66266   0.00000  Uiso   1.00
N89    N     0.72735   0.11944   0.29055   0.00000  Uiso   1.00
N90    N     0.75657   0.18375   0.69737   0.00000  Uiso   1.00
N91    N     0.43340   0.99271   0.67809   0.00000  Uiso   1.00
N92    N     0.65117   0.21308   0.30598   0.00000  Uiso   1.00
C93    C     0.54930   0.57880   0.15682   0.00000  Uiso   1.00
C94    C     0.58880   0.59406   0.20139   0.00000  Uiso   1.00
C95    C     0.61502   0.65120   0.18941   0.00000  Uiso   1.00
C96    C     0.64959   0.65573   0.23620   0.00000  Uiso   1.00
C97    C     0.70972   0.68714   0.29677   0.00000  Uiso   1.00
C98    C     0.58779   0.51022   0.13845   0.00000  Uiso   1.00
C99    C     0.61316   0.49688   0.07355   0.00000  Uiso   1.00
C100   C     0.64688   0.43084   0.06736   0.00000  Uiso   1.00
C101   C     0.70541   0.33208   0.03022   0.00000  Uiso   1.00
C102   C     0.48144   0.56799   0.20215   0.00000  Uiso   1.00
C103   C     0.41739   0.60321   0.19080   0.00000  Uiso   1.00
C104   C     0.36156   0.58579   0.23823   0.00000  Uiso   1.00
C105   C     0.25497   0.57673   0.29998   0.00000  Uiso   1.00
C106   C     0.56406   0.48523   0.26122   0.00000  Uiso   1.00
C107   C     0.59682   0.54323   0.25810   0.00000  Uiso   1.00
C108   C     0.63135   0.54768   0.30492   0.00000  Uiso   1.00
C109   C     0.65762   0.60482   0.29301   0.00000  Uiso   1.00
C110   C     0.59581   0.45940   0.19515   0.00000  Uiso   1.00
C111   C     0.62949   0.39336   0.18906   0.00000  Uiso   1.00
C112   C     0.65491   0.37992   0.12417   0.00000  Uiso   1.00
C113   C     0.48946   0.51717   0.25886   0.00000  Uiso   1.00
C114   C     0.43372   0.49969   0.30631   0.00000  Uiso   1.00
C115   C     0.36959   0.53488   0.29504   0.00000  Uiso   1.00
H116   H     0.54306   0.61836   0.11267   0.00000  Uiso   1.00
H117   H     0.60881   0.69052   0.14552   0.00000  Uiso   1.00
H118   H     0.60695   0.53622   0.02968   0.00000  Uiso   1.00
H119   H     0.41120   0.64253   0.14691   0.00000  Uiso   1.00
H120   H     0.68526   0.74809   0.20694   0.00000  Uiso   1.00
H121   H     0.68131   0.42274   0.96268   0.00000  Uiso   1.00
H122   H     0.26854   0.64693   0.20989   0.00000  Uiso   1.00
H123   H     0.57031   0.44566   0.30537   0.00000  Uiso   1.00
H124   H     0.63755   0.50834   0.34880   0.00000  Uiso   1.00
H125   H     0.63568   0.35405   0.23295   0.00000  Uiso   1.00
H126   H     0.43994   0.46036   0.35019   0.00000  Uiso   1.00
H127   H     0.70859   0.60023   0.37192   0.00000  Uiso   1.00
H128   H     0.70463   0.27488   0.12767   0.00000  Uiso   1.00
H129   H     0.29187   0.49907   0.37487   0.00000  Uiso   1.00
O130   O     0.74068   0.71849   0.31451   0.00000  Uiso   1.00
O131   O     0.73549   0.29165   0.99406   0.00000  Uiso   1.00
O132   O     0.19395   0.58578   0.31839   0.00000  Uiso   1.00
N133   N     0.68151   0.70469   0.23981   0.00000  Uiso   1.00
N134   N     0.67783   0.40052   0.01145   0.00000  Uiso   1.00
N135   N     0.29193   0.61010   0.24256   0.00000  Uiso   1.00
N136   N     0.69406   0.62513   0.32859   0.00000  Uiso   1.00
N137   N     0.69038   0.32095   0.10023   0.00000  Uiso   1.00
N138   N     0.30448   0.53054   0.33133   0.00000  Uiso   1.00
C139   C     0.79426   0.12298   0.05175   0.00000  Uiso   1.00
C140   C     0.84482   0.12176   0.09362   0.00000  Uiso   1.00
C141   C     0.86323   0.17785   0.10191   0.00000  Uiso   1.00
C142   C     0.91030   0.16612   0.14222   0.00000  Uiso   1.00
C143   C     0.98458   0.17419   0.20257   0.00000  Uiso   1.00
C144   C     0.74014   0.08773   0.09952   0.00000  Uiso   1.00
C145   C     0.67054   0.11520   0.11275   0.00000  Uiso   1.00
C146   C     0.62950   0.07482   0.15801   0.00000  Uiso   1.00
C147   C     0.54125   0.03004   0.22747   0.00000  Uiso   1.00
C148   C     0.83266   0.07681   0.00107   0.00000  Uiso   1.00
C149   C     0.84084   0.09510   0.93154   0.00000  Uiso   1.00
C150   C     0.87767   0.04552   0.89392   0.00000  Uiso   1.00
C151   C     0.93308   0.98380   0.81053   0.00000  Uiso   1.00
C152   C     0.84510   0.00240   0.10859   0.00000  Uiso   1.00
C153   C     0.87243   0.05626   0.12450   0.00000  Uiso   1.00
C154   C     0.91949   0.04444   0.16480   0.00000  Uiso   1.00
C155   C     0.93797   0.10051   0.17315   0.00000  Uiso   1.00
C156   C     0.76775   0.02223   0.13039   0.00000  Uiso   1.00
C157   C     0.72680   0.98180   0.17564   0.00000  Uiso   1.00
C158   C     0.65716   0.00921   0.18894   0.00000  Uiso   1.00
C159   C     0.86027   0.01132   0.03195   0.00000  Uiso   1.00
C160   C     0.89709   0.96170   0.99443   0.00000  Uiso   1.00
C161   C     0.90534   0.97991   0.92485   0.00000  Uiso   1.00
H162   H     0.77275   0.17396   0.02772   0.00000  Uiso   1.00
H163   H     0.84185   0.22853   0.07802   0.00000  Uiso   1.00
H164   H     0.64919   0.16588   0.08884   0.00000  Uiso   1.00
H165   H     0.81946   0.14579   0.90766   0.00000  Uiso   1.00
H166   H     0.93061   0.26014   0.14742   0.00000  Uiso   1.00
H167   H     0.52438   0.12805   0.17023   0.00000  Uiso   1.00
H168   H     0.88343   0.08567   0.78817   0.00000  Uiso   1.00
H169   H     0.86660   0.95140   0.13263   0.00000  Uiso   1.00
H170   H     0.94085   0.99375   0.18869   0.00000  Uiso   1.00
H171   H     0.74818   0.93112   0.19952   0.00000  Uiso   1.00
H172   H     0.91846   0.91102   0.01834   0.00000  Uiso   1.00
H173   H     0.01096   0.06959   0.23725   0.00000  Uiso   1.00
H174   H     0.60472   0.93750   0.26006   0.00000  Uiso   1.00
H175   H     0.96378   0.89512   0.87800   0.00000  Uiso   1.00
O176   O     0.01791   0.19674   0.22734   0.00000  Uiso   1.00
O177   O     0.48495   0.02344   0.25725   0.00000  Uiso   1.00
O178   O     0.95602   0.96785   0.75600   0.00000  Uiso   1.00
N179   N     0.93934   0.20948   0.16086   0.00000  Uiso   1.00
N180   N     0.55954   0.08599   0.18219   0.00000  Uiso   1.00
N181   N     0.89520   0.04637   0.82500   0.00000  Uiso   1.00
N182   N     0.98257   0.10695   0.20919   0.00000  Uiso   1.00
N183   N     0.60277   0.98346   0.23053   0.00000  Uiso   1.00
N184   N     0.93844   0.94383   0.87334   0.00000  Uiso   1.00
C185   C     0.22070   0.97546   0.81663   0.00000  Uiso   1.00
C186   C     0.22730   0.00345   0.87511   0.00000  Uiso   1.00
C187   C     0.28566   0.01889   0.88188   0.00000  Uiso   1.00
C188   C     0.28131   0.04398   0.93905   0.00000  Uiso   1.00
C189   C     0.30075   0.08606   0.02244   0.00000  Uiso   1.00
C190   C     0.16167   0.02473   0.78811   0.00000  Uiso   1.00
C191   C     0.16486   0.05805   0.72173   0.00000  Uiso   1.00
C192   C     0.10526   0.10105   0.70566   0.00000  Uiso   1.00
C193   C     0.02281   0.17612   0.65396   0.00000  Uiso   1.00
C194   C     0.19671   0.90993   0.84801   0.00000  Uiso   1.00
C195   C     0.22935   0.84673   0.83198   0.00000  Uiso   1.00
C196   C     0.19924   0.79307   0.86633   0.00000  Uiso   1.00
C197   C     0.17119   0.68990   0.90764   0.00000  Uiso   1.00
C198   C     0.10918   0.99255   0.90612   0.00000  Uiso   1.00
C199   C     0.16672   0.01273   0.92371   0.00000  Uiso   1.00
C200   C     0.16227   0.03780   0.98089   0.00000  Uiso   1.00
C201   C     0.22062   0.05328   0.98775   0.00000  Uiso   1.00
C202   C     0.10110   0.03401   0.83671   0.00000  Uiso   1.00
C203   C     0.04147   0.07696   0.82073   0.00000  Uiso   1.00
C204   C     0.04457   0.11035   0.75435   0.00000  Uiso   1.00
C205   C     0.13613   0.91921   0.89661   0.00000  Uiso   1.00
C206   C     0.10596   0.86564   0.93099   0.00000  Uiso   1.00
C207   C     0.13855   0.80237   0.91502   0.00000  Uiso   1.00
H208   H     0.26786   0.96823   0.77879   0.00000  Uiso   1.00
H209   H     0.33253   0.01171   0.84425   0.00000  Uiso   1.00
H210   H     0.21175   0.05085   0.68412   0.00000  Uiso   1.00
H211   H     0.27623   0.83956   0.79436   0.00000  Uiso   1.00
H212   H     0.37751   0.06402   0.93825   0.00000  Uiso   1.00
H213   H     0.12282   0.14654   0.60060   0.00000  Uiso   1.00
H214   H     0.25880   0.70100   0.83307   0.00000  Uiso   1.00
H215   H     0.06201   0.99978   0.94396   0.00000  Uiso   1.00
H216   H     0.11538   0.04498   0.01849   0.00000  Uiso   1.00
H217   H     0.99460   0.08413   0.85836   0.00000  Uiso   1.00
H218   H     0.05908   0.87284   0.96860   0.00000  Uiso   1.00
H219   H     0.20126   0.09103   0.07967   0.00000  Uiso   1.00
H220   H     0.94658   0.17356   0.74202   0.00000  Uiso   1.00
H221   H     0.08255   0.72801   0.97449   0.00000  Uiso   1.00
O222   O     0.32820   0.10672   0.05500   0.00000  Uiso   1.00
O223   O     0.99407   0.21497   0.61201   0.00000  Uiso   1.00
O224   O     0.17246   0.63043   0.91700   0.00000  Uiso   1.00
N225   N     0.32871   0.06416   0.96131   0.00000  Uiso   1.00
N226   N     0.09060   0.14133   0.64563   0.00000  Uiso   1.00
N227   N     0.21771   0.72478   0.86296   0.00000  Uiso   1.00
N228   N     0.23387   0.07870   0.03741   0.00000  Uiso   1.00
N229   N     0.99576   0.15586   0.72173   0.00000  Uiso   1.00
N230   N     0.12287   0.73932   0.93905   0.00000  Uiso   1.00
C231   C     0.06234   0.67569   0.24531   0.00000  Uiso   1.00
C232   C     0.10308   0.72815   0.23965   0.00000  Uiso   1.00
C233   C     0.11753   0.74635   0.29319   0.00000  Uiso   1.00
C234   C     0.15555   0.79536   0.27749   0.00000  Uiso   1.00
C235   C     0.21538   0.87227   0.27887   0.00000  Uiso   1.00
C236   C     0.10860   0.62427   0.20283   0.00000  Uiso   1.00
C237   C     0.12768   0.55513   0.22540   0.00000  Uiso   1.00
C238   C     0.17034   0.51670   0.17870   0.00000  Uiso   1.00
C239   C     0.23870   0.43233   0.12290   0.00000  Uiso   1.00
C240   C     0.00400   0.71212   0.20911   0.00000  Uiso   1.00
C241   C     0.93514   0.71683   0.23697   0.00000  Uiso   1.00
C242   C     0.88974   0.75234   0.19555   0.00000  Uiso   1.00
C243   C     0.79570   0.80437   0.14951   0.00000  Uiso   1.00
C244   C     0.10416   0.73036   0.12223   0.00000  Uiso   1.00
C245   C     0.12579   0.75784   0.17279   0.00000  Uiso   1.00
C246   C     0.16380   0.80684   0.15701   0.00000  Uiso   1.00
C247   C     0.17831   0.82511   0.21052   0.00000  Uiso   1.00
C248   C     0.13131   0.65396   0.13597   0.00000  Uiso   1.00
C249   C     0.17395   0.61562   0.08923   0.00000  Uiso   1.00
C250   C     0.19310   0.54644   0.11173   0.00000  Uiso   1.00
C251   C     0.02672   0.74182   0.14226   0.00000  Uiso   1.00
C252   C     0.98141   0.77732   0.10079   0.00000  Uiso   1.00
C253   C     0.91250   0.78209   0.12858   0.00000  Uiso   1.00
H254   H     0.04465   0.65257   0.29736   0.00000  Uiso   1.00
H255   H     0.09995   0.72335   0.34492   0.00000  Uiso   1.00
H256   H     0.11009   0.53217   0.27714   0.00000  Uiso   1.00
H257   H     0.91758   0.69384   0.28871   0.00000  Uiso   1.00
H258   H     0.17129   0.81491   0.36817   0.00000  Uiso   1.00
H259   H     0.19265   0.41178   0.22525   0.00000  Uiso   1.00
H260   H     0.78671   0.75270   0.24963   0.00000  Uiso   1.00
H261   H     0.12184   0.75348   0.07017   0.00000  Uiso   1.00
H262   H     0.18137   0.82981   0.10527   0.00000  Uiso   1.00
H263   H     0.19151   0.63862   0.03749   0.00000  Uiso   1.00
H264   H     0.99901   0.80029   0.04906   0.00000  Uiso   1.00
H265   H     0.23738   0.90131   0.17366   0.00000  Uiso   1.00
H266   H     0.25874   0.49817   0.03074   0.00000  Uiso   1.00
H267   H     0.85281   0.83910   0.05512   0.00000  Uiso   1.00
O268   O     0.24212   0.90648   0.29810   0.00000  Uiso   1.00
O269   O     0.27014   0.37759   0.11059   0.00000  Uiso   1.00
O270   O     0.73756   0.82487   0.14258   0.00000  Uiso   1.00
N271   N     0.17866   0.82478   0.31757   0.00000  Uiso   1.00
N272   N     0.19865   0.44787   0.18395   0.00000  Uiso   1.00
N273   N     0.81913   0.76659   0.20675   0.00000  Uiso   1.00
N274   N     0.21422   0.87127   0.21291   0.00000  Uiso   1.00
N275   N     0.23421   0.49437   0.07929   0.00000  Uiso   1.00
N276   N     0.85469   0.81308   0.10208   0.00000  Uiso   1.00
C277   C     0.89438   0.50308   0.43142   0.00000  Uiso   1.00
C278   C     0.84073   0.46376   0.43675   0.00000  Uiso   1.00
C279   C     0.81930   0.45371   0.38301   0.00000  Uiso   1.00
C280   C     0.76971   0.41629   0.39841   0.00000  Uiso   1.00
C281   C     0.69056   0.35923   0.39652   0.00000  Uiso   1.00
C282   C     0.94833   0.45440   0.46778   0.00000  Uiso   1.00
C283   C     0.01739   0.43648   0.44013   0.00000  Uiso   1.00
C284   C     0.05837   0.39119   0.48165   0.00000  Uiso   1.00
C285   C     0.14629   0.31964   0.52795   0.00000  Uiso   1.00
C286   C     0.85981   0.55777   0.47397   0.00000  Uiso   1.00
C287   C     0.85446   0.62677   0.45154   0.00000  Uiso   1.00
C288   C     0.82093   0.66851   0.49828   0.00000  Uiso   1.00
C289   C     0.77141   0.75745   0.55419   0.00000  Uiso   1.00
C290   C     0.84438   0.45451   0.55433   0.00000  Uiso   1.00
C291   C     0.81357   0.43738   0.50351   0.00000  Uiso   1.00
C292   C     0.76399   0.39997   0.51900   0.00000  Uiso   1.00
C293   C     0.74250   0.38986   0.46529   0.00000  Uiso   1.00
C294   C     0.92118   0.42802   0.53454   0.00000  Uiso   1.00
C295   C     0.96207   0.38275   0.57611   0.00000  Uiso   1.00
C296   C     0.03117   0.36476   0.54853   0.00000  Uiso   1.00
C297   C     0.83266   0.53139   0.54073   0.00000  Uiso   1.00
C298   C     0.79914   0.57303   0.58752   0.00000  Uiso   1.00
C299   C     0.79373   0.64208   0.56516   0.00000  Uiso   1.00
H300   H     0.91552   0.52361   0.37945   0.00000  Uiso   1.00
H301   H     0.84034   0.47412   0.33135   0.00000  Uiso   1.00
H302   H     0.03839   0.45691   0.38846   0.00000  Uiso   1.00
H303   H     0.87548   0.64716   0.39987   0.00000  Uiso   1.00
H304   H     0.74502   0.40760   0.30747   0.00000  Uiso   1.00
H305   H     0.16263   0.37133   0.42790   0.00000  Uiso   1.00
H306   H     0.81910   0.77251   0.45195   0.00000  Uiso   1.00
H307   H     0.82324   0.43397   0.60631   0.00000  Uiso   1.00
H308   H     0.74299   0.37956   0.57066   0.00000  Uiso   1.00
H309   H     0.94104   0.36235   0.62777   0.00000  Uiso   1.00
H310   H     0.77813   0.55260   0.63918   0.00000  Uiso   1.00
H311   H     0.66601   0.33085   0.50170   0.00000  Uiso   1.00
H312   H     0.08362   0.29458   0.62213   0.00000  Uiso   1.00
H313   H     0.74009   0.69576   0.64618   0.00000  Uiso   1.00
O314   O     0.65441   0.33504   0.37704   0.00000  Uiso   1.00
O315   O     0.20229   0.28746   0.53504   0.00000  Uiso   1.00
O316   O     0.75159   0.81380   0.56659   0.00000  Uiso   1.00
N317   N     0.73743   0.39702   0.35808   0.00000  Uiso   1.00
N318   N     0.12787   0.36309   0.47066   0.00000  Uiso   1.00
N319   N     0.80671   0.73817   0.49315   0.00000  Uiso   1.00
N320   N     0.69492   0.35572   0.46259   0.00000  Uiso   1.00
N321   N     0.08535   0.32180   0.57518   0.00000  Uiso   1.00
N322   N     0.76420   0.69687   0.59767   0.00000  Uiso   1.00
C323   C     0.48637   0.74965   0.57757   0.00000  Uiso   1.00
C324   C     0.47659   0.69317   0.54889   0.00000  Uiso   1.00
C325   C     0.41562   0.68784   0.53757   0.00000  Uiso   1.00
C326   C     0.41727   0.63239   0.51102   0.00000  Uiso   1.00
C327   C     0.39289   0.55206   0.46869   0.00000  Uiso   1.00
C328   C     0.54194   0.77975   0.52584   0.00000  Uiso   1.00
C329   C     0.53592   0.84721   0.49514   0.00000  Uiso   1.00
C330   C     0.59259   0.86465   0.44919   0.00000  Uiso   1.00
C331   C     0.66968   0.91874   0.37111   0.00000  Uiso   1.00
C332   C     0.51690   0.71505   0.63945   0.00000  Uiso   1.00
C333   C     0.48984   0.72814   0.70428   0.00000  Uiso   1.00
C334   C     0.52544   0.69111   0.75398   0.00000  Uiso   1.00
C335   C     0.56365   0.64476   0.85231   0.00000  Uiso   1.00
C336   C     0.59773   0.66065   0.55056   0.00000  Uiso   1.00
C337   C     0.53707   0.64483   0.53422   0.00000  Uiso   1.00
C338   C     0.53882   0.58937   0.50768   0.00000  Uiso   1.00
C339   C     0.47786   0.58396   0.49632   0.00000  Uiso   1.00
C340   C     0.60242   0.73141   0.51117   0.00000  Uiso   1.00
C341   C     0.65912   0.74875   0.46526   0.00000  Uiso   1.00
C342   C     0.65318   0.81622   0.43449   0.00000  Uiso   1.00
C343   C     0.57738   0.66671   0.62478   0.00000  Uiso   1.00
C344   C     0.61303   0.62967   0.67440   0.00000  Uiso   1.00
C345   C     0.58603   0.64269   0.73929   0.00000  Uiso   1.00
H346   H     0.43929   0.78729   0.58898   0.00000  Uiso   1.00
H347   H     0.36883   0.72526   0.54892   0.00000  Uiso   1.00
H348   H     0.48911   0.88461   0.50651   0.00000  Uiso   1.00
H349   H     0.44303   0.76555   0.71561   0.00000  Uiso   1.00
H350   H     0.31739   0.63519   0.49801   0.00000  Uiso   1.00
H351   H     0.57102   0.97119   0.40859   0.00000  Uiso   1.00
H352   H     0.47385   0.72012   0.84954   0.00000  Uiso   1.00
H353   H     0.64482   0.62302   0.53913   0.00000  Uiso   1.00
H354   H     0.58563   0.55197   0.49633   0.00000  Uiso   1.00
H355   H     0.70591   0.71133   0.45392   0.00000  Uiso   1.00
H356   H     0.65984   0.59226   0.66302   0.00000  Uiso   1.00
H357   H     0.49335   0.49454   0.45532   0.00000  Uiso   1.00
H358   H     0.74699   0.83055   0.36591   0.00000  Uiso   1.00
H359   H     0.64982   0.57948   0.80685   0.00000  Uiso   1.00
O360   O     0.36273   0.52111   0.44939   0.00000  Uiso   1.00
O361   O     0.69549   0.96193   0.33209   0.00000  Uiso   1.00
O362   O     0.56801   0.63254   0.91060   0.00000  Uiso   1.00
N363   N     0.36692   0.61183   0.49385   0.00000  Uiso   1.00
N364   N     0.60405   0.92597   0.41024   0.00000  Uiso   1.00
N365   N     0.51321   0.69126   0.82249   0.00000  Uiso   1.00
N366   N     0.46160   0.53615   0.47088   0.00000  Uiso   1.00
N367   N     0.69873   0.85029   0.38728   0.00000  Uiso   1.00
N368   N     0.60790   0.61558   0.79952   0.00000  Uiso   1.00
C369   C     0.58456   0.34103   0.85402   0.00000  Uiso   1.00
C370   C     0.55719   0.33517   0.79512   0.00000  Uiso   1.00
C371   C     0.53923   0.27840   0.78786   0.00000  Uiso   1.00
C372   C     0.51524   0.28319   0.73036   0.00000  Uiso   1.00
C373   C     0.47361   0.26506   0.64630   0.00000  Uiso   1.00
C374   C     0.53658   0.40161   0.88256   0.00000  Uiso   1.00
C375   C     0.50130   0.40070   0.94883   0.00000  Uiso   1.00
C376   C     0.45996   0.46142   0.96493   0.00000  Uiso   1.00
C377   C     0.38636   0.54645   0.01663   0.00000  Uiso   1.00
C378   C     0.65257   0.36132   0.82323   0.00000  Uiso   1.00
C379   C     0.71482   0.32655   0.83963   0.00000  Uiso   1.00
C380   C     0.77113   0.35337   0.80579   0.00000  Uiso   1.00
C381   C     0.87763   0.37584   0.76538   0.00000  Uiso   1.00
C382   C     0.57389   0.45050   0.76479   0.00000  Uiso   1.00
C383   C     0.55140   0.39463   0.74666   0.00000  Uiso   1.00
C384   C     0.52743   0.39951   0.68915   0.00000  Uiso   1.00
C385   C     0.50944   0.34275   0.68181   0.00000  Uiso   1.00
C386   C     0.53079   0.46107   0.83410   0.00000  Uiso   1.00
C387   C     0.48950   0.52181   0.85011   0.00000  Uiso   1.00
C388   C     0.45416   0.52099   0.91638   0.00000  Uiso   1.00
C389   C     0.64678   0.42078   0.77477   0.00000  Uiso   1.00
C390   C     0.70301   0.44766   0.74091   0.00000  Uiso   1.00
C391   C     0.76533   0.41293   0.75724   0.00000  Uiso   1.00
H392   H     0.58906   0.29474   0.89175   0.00000  Uiso   1.00
H393   H     0.54372   0.23240   0.82538   0.00000  Uiso   1.00
H394   H     0.50580   0.35468   0.98632   0.00000  Uiso   1.00
H395   H     0.71928   0.28054   0.87713   0.00000  Uiso   1.00
H396   H     0.49087   0.18951   0.73045   0.00000  Uiso   1.00
H397   H     0.41092   0.44735   0.06979   0.00000  Uiso   1.00
H398   H     0.86109   0.29101   0.83955   0.00000  Uiso   1.00
H399   H     0.56938   0.49679   0.72707   0.00000  Uiso   1.00
H400   H     0.52295   0.44553   0.65166   0.00000  Uiso   1.00
H401   H     0.48503   0.56781   0.81260   0.00000  Uiso   1.00
H402   H     0.69851   0.49367   0.70341   0.00000  Uiso   1.00
H403   H     0.47401   0.36249   0.58945   0.00000  Uiso   1.00
H404   H     0.39407   0.62034   0.92880   0.00000  Uiso   1.00
H405   H     0.84424   0.46400   0.69855   0.00000  Uiso   1.00
O406   O     0.45223   0.23864   0.61333   0.00000  Uiso   1.00
O407   O     0.34736   0.57692   0.05854   0.00000  Uiso   1.00
O408   O     0.93797   0.37181   0.75646   0.00000  Uiso   1.00
N409   N     0.49328   0.23725   0.70760   0.00000  Uiso   1.00
N410   N     0.41853   0.47831   0.02487   0.00000  Uiso   1.00
N411   N     0.83940   0.33216   0.80963   0.00000  Uiso   1.00
N412   N     0.48421   0.33033   0.63173   0.00000  Uiso   1.00
N413   N     0.40946   0.57140   0.94900   0.00000  Uiso   1.00
N414   N     0.83033   0.42525   0.73376   0.00000  Uiso   1.00
C415   C     0.54206   0.86113   0.10937   0.00000  Uiso   1.00
C416   C     0.49735   0.84402   0.07133   0.00000  Uiso   1.00
C417   C     0.51266   0.78692   0.04252   0.00000  Uiso   1.00
C418   C     0.46512   0.78052   0.00989   0.00000  Uiso   1.00
C419   C     0.40495   0.74652   0.95135   0.00000  Uiso   1.00
C420   C     0.55435   0.93081   0.07354   0.00000  Uiso   1.00
C421   C     0.61758   0.94669   0.04661   0.00000  Uiso   1.00
C422   C     0.61801   0.01336   0.01585   0.00000  Uiso   1.00
C423   C     0.64632   0.11411   0.96079   0.00000  Uiso   1.00
C424   C     0.49796   0.87036   0.17862   0.00000  Uiso   1.00
C425   C     0.51378   0.83543   0.24004   0.00000  Uiso   1.00
C426   C     0.46674   0.85122   0.29775   0.00000  Uiso   1.00
C427   C     0.40749   0.85811   0.40584   0.00000  Uiso   1.00
C428   C     0.43040   0.95130   0.10264   0.00000  Uiso   1.00
C429   C     0.43671   0.89299   0.06767   0.00000  Uiso   1.00
C430   C     0.38912   0.88668   0.03508   0.00000  Uiso   1.00
C431   C     0.40436   0.82958   0.00623   0.00000  Uiso   1.00
C432   C     0.49370   0.97979   0.06989   0.00000  Uiso   1.00
C433   C     0.49404   0.04645   0.03917   0.00000  Uiso   1.00
C434   C     0.55725   0.06243   0.01219   0.00000  Uiso   1.00
C435   C     0.43731   0.91934   0.17497   0.00000  Uiso   1.00
C436   C     0.39023   0.93519   0.23259   0.00000  Uiso   1.00
C437   C     0.40598   0.90028   0.29409   0.00000  Uiso   1.00
H438   H     0.58928   0.82301   0.11221   0.00000  Uiso   1.00
H439   H     0.55961   0.74904   0.04535   0.00000  Uiso   1.00
H440   H     0.66450   0.90878   0.04945   0.00000  Uiso   1.00
H441   H     0.56072   0.79754   0.24284   0.00000  Uiso   1.00
H442   H     0.49998   0.68864   0.96960   0.00000  Uiso   1.00
H443   H     0.72115   0.02548   0.97825   0.00000  Uiso   1.00
H444   H     0.50230   0.79089   0.38607   0.00000  Uiso   1.00
H445   H     0.38318   0.98943   0.09980   0.00000  Uiso   1.00
H446   H     0.34219   0.92459   0.03226   0.00000  Uiso   1.00
H447   H     0.44709   0.08433   0.03635   0.00000  Uiso   1.00
H448   H     0.34331   0.97309   0.22975   0.00000  Uiso   1.00
H449   H     0.32352   0.83112   0.95897   0.00000  Uiso   1.00
H450   H     0.54469   0.16796   0.96762   0.00000  Uiso   1.00
H451   H     0.32584   0.93338   0.37544   0.00000  Uiso   1.00
O452   O     0.38851   0.71423   0.92006   0.00000  Uiso   1.00
O453   O     0.67869   0.15615   0.93142   0.00000  Uiso   1.00
O454   O     0.39156   0.84838   0.46647   0.00000  Uiso   1.00
N455   N     0.46406   0.73106   0.97637   0.00000  Uiso   1.00
N456   N     0.67085   0.04598   0.98446   0.00000  Uiso   1.00
N457   N     0.46625   0.82668   0.36573   0.00000  Uiso   1.00
N458   N     0.36911   0.80773   0.97066   0.00000  Uiso   1.00
N459   N     0.57590   0.12265   0.97874   0.00000  Uiso   1.00
N460   N     0.37130   0.90335   0.36001   0.00000  Uiso   1.00
C461   C     0.00167   0.01243   0.51616   0.00000  Uiso   1.00
C462   C     0.98293   0.97186   0.47473   0.00000  Uiso   1.00
C463   C     0.92504   0.94557   0.49188   0.00000  Uiso   1.00
C464   C     0.91716   0.90995   0.44726   0.00000  Uiso   1.00
C465   C     0.88071   0.84830   0.39202   0.00000  Uiso   1.00
C466   C     0.07225   0.97491   0.52893   0.00000  Uiso   1.00
C467   C     0.08946   0.95118   0.59167   0.00000  Uiso   1.00
C468   C     0.15678   0.91812   0.59268   0.00000  Uiso   1.00
C469   C     0.25903   0.86124   0.62158   0.00000  Uiso   1.00
C470   C     0.01080   0.07919   0.46961   0.00000  Uiso   1.00
C471   C     0.97637   0.14316   0.48246   0.00000  Uiso   1.00
C472   C     0.99196   0.19790   0.43353   0.00000  Uiso   1.00
C473   C     0.99880   0.30294   0.37032   0.00000  Uiso   1.00
C474   C     0.09062   0.99592   0.40641   0.00000  Uiso   1.00
C475   C     0.03124   0.96290   0.41512   0.00000  Uiso   1.00
C476   C     0.02345   0.92731   0.37045   0.00000  Uiso   1.00
C477   C     0.96555   0.90096   0.38754   0.00000  Uiso   1.00
C478   C     0.12057   0.96594   0.46932   0.00000  Uiso   1.00
C479   C     0.18788   0.93291   0.47024   0.00000  Uiso   1.00
C480   C     0.20519   0.90914   0.53296   0.00000  Uiso   1.00
C481   C     0.05912   0.07023   0.40999   0.00000  Uiso   1.00
C482   C     0.07478   0.12489   0.36103   0.00000  Uiso   1.00
C483   C     0.04036   0.18892   0.37381   0.00000  Uiso   1.00
H484   H     0.96406   0.01941   0.56257   0.00000  Uiso   1.00
H485   H     0.88766   0.95252   0.53803   0.00000  Uiso   1.00
H486   H     0.05207   0.95813   0.63779   0.00000  Uiso   1.00
H487   H     0.93898   0.15008   0.52860   0.00000  Uiso   1.00
H488   H     0.82427   0.87438   0.48453   0.00000  Uiso   1.00
H489   H     0.17094   0.88624   0.69489   0.00000  Uiso   1.00
H490   H     0.93248   0.29099   0.46464   0.00000  Uiso   1.00
H491   H     0.12824   0.98894   0.35999   0.00000  Uiso   1.00
H492   H     0.06084   0.92037   0.32433   0.00000  Uiso   1.00
H493   H     0.22525   0.92599   0.42410   0.00000  Uiso   1.00
H494   H     0.11217   0.11793   0.31490   0.00000  Uiso   1.00
H495   H     0.96484   0.84829   0.31109   0.00000  Uiso   1.00
H496   H     0.31150   0.86015   0.52145   0.00000  Uiso   1.00
H497   H     0.07304   0.26490   0.29120   0.00000  Uiso   1.00
O498   O     0.84727   0.81676   0.37802   0.00000  Uiso   1.00
O499   O     0.30208   0.83233   0.65400   0.00000  Uiso   1.00
O500   O     0.98922   0.36336   0.35192   0.00000  Uiso   1.00
N501   N     0.86660   0.87766   0.44860   0.00000  Uiso   1.00
N502   N     0.19070   0.88874   0.64528   0.00000  Uiso   1.00
N503   N     0.96778   0.26715   0.43002   0.00000  Uiso   1.00
N504   N     0.94223   0.86362   0.35527   0.00000  Uiso   1.00
N505   N     0.26634   0.87470   0.55195   0.00000  Uiso   1.00
N506   N     0.04341   0.25311   0.33669   0.00000  Uiso   1.00
C507   C     0.12188   0.39375   0.97503   0.00000  Uiso   1.00
C508   C     0.08341   0.34567   0.96477   0.00000  Uiso   1.00
C509   C     0.05337   0.35406   0.91037   0.00000  Uiso   1.00
C510   C     0.02054   0.30445   0.91031   0.00000  Uiso   1.00
C511   C     0.96117   0.23833   0.88640   0.00000  Uiso   1.00
C512   C     0.08650   0.41369   0.04329   0.00000  Uiso   1.00
C513   C     0.05907   0.47926   0.05490   0.00000  Uiso   1.00
C514   C     0.02884   0.48689   0.12095   0.00000  Uiso   1.00
C515   C     0.97431   0.52637   0.21895   0.00000  Uiso   1.00
C516   C     0.19238   0.35128   0.98328   0.00000  Uiso   1.00
C517   C     0.25398   0.36439   0.94445   0.00000  Uiso   1.00
C518   C     0.31291   0.31949   0.95998   0.00000  Uiso   1.00
C519   C     0.42278   0.26207   0.96481   0.00000  Uiso   1.00
C520   C     0.11699   0.29072   0.07168   0.00000  Uiso   1.00
C521   C     0.08075   0.28971   0.01726   0.00000  Uiso   1.00
C522   C     0.04795   0.24007   0.01729   0.00000  Uiso   1.00
C523   C     0.01787   0.24838   0.96289   0.00000  Uiso   1.00
C524   C     0.08384   0.35773   0.09578   0.00000  Uiso   1.00
C525   C     0.05365   0.36527   0.16183   0.00000  Uiso   1.00
C526   C     0.02617   0.43083   0.17354   0.00000  Uiso   1.00
C527   C     0.18972   0.29532   0.03577   0.00000  Uiso   1.00
C528   C     0.24856   0.25039   0.05137   0.00000  Uiso   1.00
C529   C     0.31024   0.26343   0.01257   0.00000  Uiso   1.00
H530   H     0.12395   0.43732   0.93417   0.00000  Uiso   1.00
H531   H     0.05544   0.39738   0.86975   0.00000  Uiso   1.00
H532   H     0.06114   0.52255   0.01427   0.00000  Uiso   1.00
H533   H     0.25602   0.40770   0.90383   0.00000  Uiso   1.00
H534   H     0.97828   0.32843   0.82150   0.00000  Uiso   1.00
H535   H     0.99032   0.59237   0.12622   0.00000  Uiso   1.00
H536   H     0.40127   0.35018   0.89334   0.00000  Uiso   1.00
H537   H     0.11492   0.24715   0.11255   0.00000  Uiso   1.00
H538   H     0.04590   0.19677   0.05792   0.00000  Uiso   1.00
H539   H     0.05160   0.32195   0.20244   0.00000  Uiso   1.00
H540   H     0.24649   0.20709   0.09199   0.00000  Uiso   1.00
H541   H     0.97053   0.16562   0.97422   0.00000  Uiso   1.00
H542   H     0.98258   0.42956   0.27895   0.00000  Uiso   1.00
H543   H     0.39353   0.18736   0.04606   0.00000  Uiso   1.00
O544   O     0.92915   0.21733   0.85872   0.00000  Uiso   1.00
O545   O     0.94496   0.56361   0.25850   0.00000  Uiso   1.00
O546   O     0.48412   0.24585   0.95296   0.00000  Uiso   1.00
N547   N     0.98594   0.29702   0.86493   0.00000  Uiso   1.00
N548   N     0.99719   0.54379   0.14983   0.00000  Uiso   1.00
N549   N     0.38140   0.31737   0.93211   0.00000  Uiso   1.00
N550   N     0.98177   0.20941   0.94711   0.00000  Uiso   1.00
N551   N     0.99302   0.45618   0.23201   0.00000  Uiso   1.00
N552   N     0.37723   0.22976   0.01429   0.00000  Uiso   1.00
