data_job_06833
_audit_creation_date              2018-12-19
_audit_creation_method            'Materials Studio'
_symmetry_space_group_name_H-M    'P1'
_symmetry_Int_Tables_number       1
_symmetry_cell_setting            triclinic
loop_
_symmetry_equiv_pos_as_xyz
  x,y,z
_cell_length_a                    20.8660
_cell_length_b                    21.7000
_cell_length_c                    21.7663
_cell_angle_alpha                 70.3503
_cell_angle_beta                  117.8775
_cell_angle_gamma                 87.8016
loop_
_atom_site_label
_atom_site_type_symbol
_atom_site_fract_x
_atom_site_fract_y
_atom_site_fract_z
_atom_site_U_iso_or_equiv
_atom_site_adp_type
_atom_site_occupancy
C1     C     0.55425   0.86276   0.62924   0.00000  Uiso   1.00
C2     C     0.47743   0.91101   0.58086   0.00000  Uiso   1.00
C3     C     0.43911   0.94479   0.50247   0.00000  Uiso   1.00
C4     C     0.36953   0.98669   0.46881   0.00000  Uiso   1.00
C5     C     0.25485   0.06045   0.38712   0.00000  Uiso   1.00
C6     C     0.60271   0.89043   0.68691   0.00000  Uiso   1.00
C7     C     0.66973   0.90691   0.69769   0.00000  Uiso   1.00
C8     C     0.70560   0.93148   0.75332   0.00000  Uiso   1.00
C9     C     0.78545   0.97325   0.83630   0.00000  Uiso   1.00
C10    C     0.54461   0.79667   0.67451   0.00000  Uiso   1.00
C11    C     0.56279   0.73430   0.67489   0.00000  Uiso   1.00
C12    C     0.54977   0.67992   0.72009   0.00000  Uiso   1.00
C13    C     0.53941   0.57611   0.78383   0.00000  Uiso   1.00
C14    C     0.49881   0.87710   0.70886   0.00000  Uiso   1.00
C15    C     0.44732   0.91880   0.62411   0.00000  Uiso   1.00
C16    C     0.37778   0.96065   0.59056   0.00000  Uiso   1.00
C17    C     0.33936   0.99449   0.51213   0.00000  Uiso   1.00
C18    C     0.57260   0.89822   0.73015   0.00000  Uiso   1.00
C19    C     0.60839   0.92277   0.78578   0.00000  Uiso   1.00
C20    C     0.67544   0.93929   0.79664   0.00000  Uiso   1.00
C21    C     0.51450   0.80446   0.71776   0.00000  Uiso   1.00
C22    C     0.50145   0.75017   0.76297   0.00000  Uiso   1.00
C23    C     0.51961   0.68773   0.76342   0.00000  Uiso   1.00
H24    H     0.57769   0.85670   0.59558   0.00000  Uiso   1.00
H25    H     0.46244   0.93875   0.46903   0.00000  Uiso   1.00
H26    H     0.69302   0.90087   0.66423   0.00000  Uiso   1.00
H27    H     0.58609   0.72829   0.64142   0.00000  Uiso   1.00
H28    H     0.32139   0.03318   0.34780   0.00000  Uiso   1.00
H29    H     0.80759   0.95328   0.75940   0.00000  Uiso   1.00
H30    H     0.58213   0.58936   0.71131   0.00000  Uiso   1.00
H31    H     0.47537   0.88316   0.74253   0.00000  Uiso   1.00
H32    H     0.35449   0.96667   0.62404   0.00000  Uiso   1.00
H33    H     0.58507   0.92879   0.81923   0.00000  Uiso   1.00
H34    H     0.47815   0.75621   0.79643   0.00000  Uiso   1.00
H35    H     0.23377   0.05584   0.47361   0.00000  Uiso   1.00
H36    H     0.71998   0.97594   0.88521   0.00000  Uiso   1.00
H37    H     0.49451   0.61203   0.83712   0.00000  Uiso   1.00
O38    O     0.19992   0.09899   0.33011   0.00000  Uiso   1.00
O39    O     0.83781   0.99415   0.87012   0.00000  Uiso   1.00
O40    O     0.54200   0.51670   0.80703   0.00000  Uiso   1.00
N41    N     0.31735   0.02704   0.39367   0.00000  Uiso   1.00
N42    N     0.77192   0.95235   0.77848   0.00000  Uiso   1.00
N43    N     0.56115   0.61211   0.73354   0.00000  Uiso   1.00
N44    N     0.27020   0.03924   0.46136   0.00000  Uiso   1.00
N45    N     0.72477   0.96455   0.84618   0.00000  Uiso   1.00
N46    N     0.51400   0.62431   0.80124   0.00000  Uiso   1.00
C47    C     0.67713   0.31538   0.33677   0.00000  Uiso   1.00
C48    C     0.72451   0.36727   0.33898   0.00000  Uiso   1.00
C49    C     0.78971   0.36184   0.33657   0.00000  Uiso   1.00
C50    C     0.82485   0.41472   0.33924   0.00000  Uiso   1.00
C51    C     0.90287   0.48673   0.34197   0.00000  Uiso   1.00
C52    C     0.67133   0.29721   0.40775   0.00000  Uiso   1.00
C53    C     0.69181   0.23287   0.46314   0.00000  Uiso   1.00
C54    C     0.68217   0.22677   0.52370   0.00000  Uiso   1.00
C55    C     0.67757   0.19000   0.63315   0.00000  Uiso   1.00
C56    C     0.59887   0.35262   0.26979   0.00000  Uiso   1.00
C57    C     0.55841   0.33486   0.20920   0.00000  Uiso   1.00
C58    C     0.48776   0.37542   0.15361   0.00000  Uiso   1.00
C59    C     0.37065   0.42468   0.04887   0.00000  Uiso   1.00
C60    C     0.62361   0.41895   0.34581   0.00000  Uiso   1.00
C61    C     0.69544   0.42353   0.34389   0.00000  Uiso   1.00
C62    C     0.73049   0.47644   0.34657   0.00000  Uiso   1.00
C63    C     0.79573   0.47109   0.34416   0.00000  Uiso   1.00
C64    C     0.64226   0.35346   0.41266   0.00000  Uiso   1.00
C65    C     0.63259   0.34746   0.47314   0.00000  Uiso   1.00
C66    C     0.65305   0.28313   0.52862   0.00000  Uiso   1.00
C67    C     0.56980   0.40888   0.27470   0.00000  Uiso   1.00
C68    C     0.49920   0.44946   0.21920   0.00000  Uiso   1.00
C69    C     0.45863   0.43177   0.15853   0.00000  Uiso   1.00
H70    H     0.69976   0.27157   0.33296   0.00000  Uiso   1.00
H71    H     0.81219   0.31829   0.33278   0.00000  Uiso   1.00
H72    H     0.71429   0.18934   0.45933   0.00000  Uiso   1.00
H73    H     0.58092   0.29133   0.20542   0.00000  Uiso   1.00
H74    H     0.92404   0.39489   0.33478   0.00000  Uiso   1.00
H75    H     0.71759   0.12298   0.60160   0.00000  Uiso   1.00
H76    H     0.43634   0.33803   0.06619   0.00000  Uiso   1.00
H77    H     0.60097   0.46275   0.34963   0.00000  Uiso   1.00
H78    H     0.70798   0.51997   0.35036   0.00000  Uiso   1.00
H79    H     0.61009   0.39101   0.47692   0.00000  Uiso   1.00
H80    H     0.47672   0.49299   0.22301   0.00000  Uiso   1.00
H81    H     0.83946   0.55857   0.34905   0.00000  Uiso   1.00
H82    H     0.63301   0.28666   0.61587   0.00000  Uiso   1.00
H83    H     0.35177   0.50172   0.08047   0.00000  Uiso   1.00
O84    O     0.95394   0.51091   0.34212   0.00000  Uiso   1.00
O85    O     0.68308   0.15417   0.69217   0.00000  Uiso   1.00
O86    O     0.31409   0.43632   0.98973   0.00000  Uiso   1.00
N87    N     0.88944   0.42557   0.33802   0.00000  Uiso   1.00
N88    N     0.69644   0.17135   0.58749   0.00000  Uiso   1.00
N89    N     0.43349   0.37240   0.08694   0.00000  Uiso   1.00
N90    N     0.84393   0.51364   0.34570   0.00000  Uiso   1.00
N91    N     0.65092   0.25942   0.59517   0.00000  Uiso   1.00
N92    N     0.38797   0.46047   0.09462   0.00000  Uiso   1.00
C93    C     0.18023   0.80587   0.85558   0.00000  Uiso   1.00
C94    C     0.16397   0.76118   0.91510   0.00000  Uiso   1.00
C95    C     0.10186   0.77546   0.92050   0.00000  Uiso   1.00
C96    C     0.09726   0.72812   0.97899   0.00000  Uiso   1.00
C97    C     0.06360   0.66778   0.06366   0.00000  Uiso   1.00
C98    C     0.25662   0.81890   0.89947   0.00000  Uiso   1.00
C99    C     0.27239   0.88171   0.89171   0.00000  Uiso   1.00
C100   C     0.34579   0.88295   0.93704   0.00000  Uiso   1.00
C101   C     0.45595   0.91222   0.99740   0.00000  Uiso   1.00
C102   C     0.19020   0.76252   0.81678   0.00000  Uiso   1.00
C103   C     0.15015   0.77794   0.73948   0.00000  Uiso   1.00
C104   C     0.16765   0.73173   0.71518   0.00000  Uiso   1.00
C105   C     0.17470   0.67347   0.64714   0.00000  Uiso   1.00
C106   C     0.28254   0.69640   0.94987   0.00000  Uiso   1.00
C107   C     0.21955   0.70172   0.96632   0.00000  Uiso   1.00
C108   C     0.21505   0.65434   0.02482   0.00000  Uiso   1.00
C109   C     0.15293   0.66855   0.03030   0.00000  Uiso   1.00
C110   C     0.31219   0.75944   0.95069   0.00000  Uiso   1.00
C111   C     0.38558   0.76059   0.99604   0.00000  Uiso   1.00
C112   C     0.40146   0.82338   0.98835   0.00000  Uiso   1.00
C113   C     0.24577   0.70306   0.86799   0.00000  Uiso   1.00
C114   C     0.26334   0.65682   0.84381   0.00000  Uiso   1.00
C115   C     0.22332   0.67216   0.76649   0.00000  Uiso   1.00
H116   H     0.13697   0.85217   0.81571   0.00000  Uiso   1.00
H117   H     0.05886   0.82149   0.88086   0.00000  Uiso   1.00
H118   H     0.22937   0.92772   0.85207   0.00000  Uiso   1.00
H119   H     0.10715   0.82396   0.69986   0.00000  Uiso   1.00
H120   H     0.99680   0.76126   0.97569   0.00000  Uiso   1.00
H121   H     0.35633   0.98525   0.91498   0.00000  Uiso   1.00
H122   H     0.09860   0.76647   0.59402   0.00000  Uiso   1.00
H123   H     0.32580   0.65010   0.98974   0.00000  Uiso   1.00
H124   H     0.25806   0.60833   0.06445   0.00000  Uiso   1.00
H125   H     0.42857   0.71456   0.03566   0.00000  Uiso   1.00
H126   H     0.30635   0.61081   0.88345   0.00000  Uiso   1.00
H127   H     0.15847   0.58825   0.12470   0.00000  Uiso   1.00
H128   H     0.51800   0.81225   0.06398   0.00000  Uiso   1.00
H129   H     0.26028   0.59346   0.74303   0.00000  Uiso   1.00
O130   O     0.02968   0.65093   0.09621   0.00000  Uiso   1.00
O131   O     0.50137   0.94480   0.01654   0.00000  Uiso   1.00
O132   O     0.16323   0.65776   0.59546   0.00000  Uiso   1.00
N133   N     0.04414   0.72627   0.00050   0.00000  Uiso   1.00
N134   N     0.38027   0.93569   0.94374   0.00000  Uiso   1.00
N135   N     0.13933   0.73115   0.64367   0.00000  Uiso   1.00
N136   N     0.13113   0.63317   0.08068   0.00000  Uiso   1.00
N137   N     0.46727   0.84259   0.02392   0.00000  Uiso   1.00
N138   N     0.22633   0.63806   0.72385   0.00000  Uiso   1.00
C139   C     0.29393   0.17432   0.87775   0.00000  Uiso   1.00
C140   C     0.34828   0.13206   0.96179   0.00000  Uiso   1.00
C141   C     0.41004   0.08133   0.99137   0.00000  Uiso   1.00
C142   C     0.45279   0.04861   0.06982   0.00000  Uiso   1.00
C143   C     0.54001   0.98037   0.19316   0.00000  Uiso   1.00
C144   C     0.29346   0.24751   0.86710   0.00000  Uiso   1.00
C145   C     0.30912   0.29384   0.81704   0.00000  Uiso   1.00
C146   C     0.30572   0.35831   0.81578   0.00000  Uiso   1.00
C147   C     0.30778   0.46932   0.79206   0.00000  Uiso   1.00
C148   C     0.21681   0.16540   0.86381   0.00000  Uiso   1.00
C149   C     0.16802   0.14271   0.81097   0.00000  Uiso   1.00
C150   C     0.10007   0.13807   0.80692   0.00000  Uiso   1.00
C151   C     0.98313   0.12158   0.77809   0.00000  Uiso   1.00
C152   C     0.26003   0.20643   0.96450   0.00000  Uiso   1.00
C153   C     0.32987   0.14951   0.00891   0.00000  Uiso   1.00
C154   C     0.37254   0.11686   0.08735   0.00000  Uiso   1.00
C155   C     0.43435   0.06608   0.11703   0.00000  Uiso   1.00
C156   C     0.27505   0.26495   0.91422   0.00000  Uiso   1.00
C157   C     0.27162   0.32937   0.91303   0.00000  Uiso   1.00
C158   C     0.28728   0.37579   0.86299   0.00000  Uiso   1.00
C159   C     0.19840   0.18284   0.91093   0.00000  Uiso   1.00
C160   C     0.13052   0.17824   0.90696   0.00000  Uiso   1.00
C161   C     0.08163   0.15554   0.85413   0.00000  Uiso   1.00
H162   H     0.30826   0.16074   0.84106   0.00000  Uiso   1.00
H163   H     0.42427   0.06785   0.95488   0.00000  Uiso   1.00
H164   H     0.32336   0.28033   0.78058   0.00000  Uiso   1.00
H165   H     0.18228   0.12922   0.77451   0.00000  Uiso   1.00
H166   H     0.54479   0.97257   0.10185   0.00000  Uiso   1.00
H167   H     0.33199   0.42060   0.73431   0.00000  Uiso   1.00
H168   H     0.03449   0.10195   0.72151   0.00000  Uiso   1.00
H169   H     0.24570   0.22002   0.00119   0.00000  Uiso   1.00
H170   H     0.35828   0.13037   0.12380   0.00000  Uiso   1.00
H171   H     0.25737   0.34285   0.94950   0.00000  Uiso   1.00
H172   H     0.11629   0.19174   0.94343   0.00000  Uiso   1.00
H173   H     0.49123   0.02331   0.23895   0.00000  Uiso   1.00
H174   H     0.27843   0.47135   0.87141   0.00000  Uiso   1.00
H175   H     0.98094   0.15270   0.85862   0.00000  Uiso   1.00
O176   O     0.59321   0.93791   0.24817   0.00000  Uiso   1.00
O177   O     0.31402   0.52572   0.76596   0.00000  Uiso   1.00
O178   O     0.92371   0.10766   0.74917   0.00000  Uiso   1.00
N179   N     0.51672   0.99680   0.11729   0.00000  Uiso   1.00
N180   N     0.31778   0.41569   0.77367   0.00000  Uiso   1.00
N181   N     0.03964   0.11779   0.76169   0.00000  Uiso   1.00
N182   N     0.48790   0.02411   0.19106   0.00000  Uiso   1.00
N183   N     0.28897   0.44299   0.84745   0.00000  Uiso   1.00
N184   N     0.01082   0.14510   0.83547   0.00000  Uiso   1.00
C185   C     0.50483   0.38224   0.74332   0.00000  Uiso   1.00
C186   C     0.55051   0.41889   0.71151   0.00000  Uiso   1.00
C187   C     0.53374   0.48756   0.66925   0.00000  Uiso   1.00
C188   C     0.58254   0.51132   0.64539   0.00000  Uiso   1.00
C189   C     0.64386   0.57484   0.59332   0.00000  Uiso   1.00
C190   C     0.55817   0.34519   0.82858   0.00000  Uiso   1.00
C191   C     0.54783   0.35188   0.88475   0.00000  Uiso   1.00
C192   C     0.60308   0.31359   0.95944   0.00000  Uiso   1.00
C193   C     0.67627   0.26265   0.08912   0.00000  Uiso   1.00
C194   C     0.48565   0.32788   0.71233   0.00000  Uiso   1.00
C195   C     0.41435   0.32001   0.67078   0.00000  Uiso   1.00
C196   C     0.40855   0.26714   0.64761   0.00000  Uiso   1.00
C197   C     0.36915   0.18932   0.59680   0.00000  Uiso   1.00
C198   C     0.62133   0.30234   0.77608   0.00000  Uiso   1.00
C199   C     0.61379   0.37549   0.72931   0.00000  Uiso   1.00
C200   C     0.66263   0.39916   0.70550   0.00000  Uiso   1.00
C201   C     0.64593   0.46785   0.66321   0.00000  Uiso   1.00
C202   C     0.62144   0.30179   0.84638   0.00000  Uiso   1.00
C203   C     0.67672   0.26348   0.92100   0.00000  Uiso   1.00
C204   C     0.66647   0.27012   0.97727   0.00000  Uiso   1.00
C205   C     0.54893   0.28448   0.73013   0.00000  Uiso   1.00
C206   C     0.54324   0.23161   0.70703   0.00000  Uiso   1.00
C207   C     0.47194   0.22366   0.66544   0.00000  Uiso   1.00
H208   H     0.45557   0.41602   0.72947   0.00000  Uiso   1.00
H209   H     0.48476   0.52113   0.65549   0.00000  Uiso   1.00
H210   H     0.49885   0.38546   0.87096   0.00000  Uiso   1.00
H211   H     0.36539   0.35360   0.65702   0.00000  Uiso   1.00
H212   H     0.54505   0.61852   0.58135   0.00000  Uiso   1.00
H213   H     0.57475   0.33245   0.03567   0.00000  Uiso   1.00
H214   H     0.29332   0.26525   0.58454   0.00000  Uiso   1.00
H215   H     0.67060   0.26855   0.78994   0.00000  Uiso   1.00
H216   H     0.71159   0.36556   0.71928   0.00000  Uiso   1.00
H217   H     0.72568   0.22990   0.93475   0.00000  Uiso   1.00
H218   H     0.59222   0.19804   0.72081   0.00000  Uiso   1.00
H219   H     0.72916   0.49226   0.63313   0.00000  Uiso   1.00
H220   H     0.75885   0.20619   0.08745   0.00000  Uiso   1.00
H221   H     0.47743   0.13899   0.63631   0.00000  Uiso   1.00
O222   O     0.66021   0.62187   0.55969   0.00000  Uiso   1.00
O223   O     0.69915   0.24655   0.15574   0.00000  Uiso   1.00
O224   O     0.32993   0.15839   0.56386   0.00000  Uiso   1.00
N225   N     0.58275   0.57549   0.60322   0.00000  Uiso   1.00
N226   N     0.61051   0.30804   0.02799   0.00000  Uiso   1.00
N227   N     0.34741   0.24520   0.60623   0.00000  Uiso   1.00
N228   N     0.68181   0.50755   0.63108   0.00000  Uiso   1.00
N229   N     0.70958   0.24010   0.05584   0.00000  Uiso   1.00
N230   N     0.44647   0.17727   0.63409   0.00000  Uiso   1.00
C231   C     0.96958   0.74212   0.31413   0.00000  Uiso   1.00
C232   C     0.89763   0.76265   0.31202   0.00000  Uiso   1.00
C233   C     0.86041   0.71892   0.33786   0.00000  Uiso   1.00
C234   C     0.79548   0.74764   0.33093   0.00000  Uiso   1.00
C235   C     0.68783   0.76888   0.33251   0.00000  Uiso   1.00
C236   C     0.02494   0.77676   0.35787   0.00000  Uiso   1.00
C237   C     0.09477   0.74490   0.42224   0.00000  Uiso   1.00
C238   C     0.13701   0.78550   0.45389   0.00000  Uiso   1.00
C239   C     0.22704   0.82865   0.52662   0.00000  Uiso   1.00
C240   C     0.95252   0.77518   0.23257   0.00000  Uiso   1.00
C241   C     0.96146   0.74199   0.19160   0.00000  Uiso   1.00
C242   C     0.94274   0.78127   0.11777   0.00000  Uiso   1.00
C243   C     0.92032   0.82197   0.99596   0.00000  Uiso   1.00
C244   C     0.92046   0.87088   0.25587   0.00000  Uiso   1.00
C245   C     0.87095   0.83259   0.28038   0.00000  Uiso   1.00
C246   C     0.80605   0.86138   0.27341   0.00000  Uiso   1.00
C247   C     0.76874   0.81770   0.29923   0.00000  Uiso   1.00
C248   C     0.99826   0.84670   0.32623   0.00000  Uiso   1.00
C249   C     0.04041   0.88736   0.35779   0.00000  Uiso   1.00
C250   C     0.11028   0.85556   0.42220   0.00000  Uiso   1.00
C251   C     0.92583   0.84512   0.20093   0.00000  Uiso   1.00
C252   C     0.90710   0.88445   0.12715   0.00000  Uiso   1.00
C253   C     0.91601   0.85133   0.08607   0.00000  Uiso   1.00
H254   H     0.99036   0.68767   0.33876   0.00000  Uiso   1.00
H255   H     0.88108   0.66480   0.36235   0.00000  Uiso   1.00
H256   H     0.11540   0.69078   0.44671   0.00000  Uiso   1.00
H257   H     0.98211   0.68787   0.21611   0.00000  Uiso   1.00
H258   H     0.74817   0.67029   0.37457   0.00000  Uiso   1.00
H259   H     0.24226   0.72506   0.55243   0.00000  Uiso   1.00
H260   H     0.96120   0.71894   0.06616   0.00000  Uiso   1.00
H261   H     0.89968   0.92533   0.23124   0.00000  Uiso   1.00
H262   H     0.78542   0.91551   0.24892   0.00000  Uiso   1.00
H263   H     0.01975   0.94148   0.33328   0.00000  Uiso   1.00
H264   H     0.88645   0.93857   0.10268   0.00000  Uiso   1.00
H265   H     0.67053   0.87377   0.28251   0.00000  Uiso   1.00
H266   H     0.16463   0.92854   0.46038   0.00000  Uiso   1.00
H267   H     0.88356   0.92242   0.97410   0.00000  Uiso   1.00
O268   O     0.63583   0.76128   0.34214   0.00000  Uiso   1.00
O269   O     0.28407   0.83313   0.57548   0.00000  Uiso   1.00
O270   O     0.91531   0.82510   0.93751   0.00000  Uiso   1.00
N271   N     0.74557   0.71953   0.35046   0.00000  Uiso   1.00
N272   N     0.20751   0.77073   0.51676   0.00000  Uiso   1.00
N273   N     0.94476   0.76501   0.06215   0.00000  Uiso   1.00
N274   N     0.70379   0.82902   0.30092   0.00000  Uiso   1.00
N275   N     0.16574   0.88022   0.46723   0.00000  Uiso   1.00
N276   N     0.90298   0.87450   0.01261   0.00000  Uiso   1.00
C277   C     0.36133   0.25012   0.39111   0.00000  Uiso   1.00
C278   C     0.43058   0.20366   0.41008   0.00000  Uiso   1.00
C279   C     0.46204   0.13821   0.46478   0.00000  Uiso   1.00
C280   C     0.52535   0.10403   0.47348   0.00000  Uiso   1.00
C281   C     0.62820   0.02727   0.50967   0.00000  Uiso   1.00
C282   C     0.30704   0.27142   0.30649   0.00000  Uiso   1.00
C283   C     0.23462   0.26296   0.27410   0.00000  Uiso   1.00
C284   C     0.19393   0.28584   0.19559   0.00000  Uiso   1.00
C285   C     0.10495   0.31433   0.07095   0.00000  Uiso   1.00
C286   C     0.38508   0.31344   0.40067   0.00000  Uiso   1.00
C287   C     0.37826   0.34033   0.44746   0.00000  Uiso   1.00
C288   C     0.40326   0.39859   0.44823   0.00000  Uiso   1.00
C289   C     0.43545   0.49233   0.46983   0.00000  Uiso   1.00
C290   C     0.41782   0.30581   0.30928   0.00000  Uiso   1.00
C291   C     0.46126   0.23390   0.36563   0.00000  Uiso   1.00
C292   C     0.52455   0.19982   0.37424   0.00000  Uiso   1.00
C293   C     0.55610   0.13433   0.42895   0.00000  Uiso   1.00
C294   C     0.33772   0.30167   0.26204   0.00000  Uiso   1.00
C295   C     0.29713   0.32457   0.18356   0.00000  Uiso   1.00
C296   C     0.22467   0.31614   0.15106   0.00000  Uiso   1.00
C297   C     0.41577   0.34369   0.35623   0.00000  Uiso   1.00
C298   C     0.44077   0.40193   0.35692   0.00000  Uiso   1.00
C299   C     0.43400   0.42890   0.40370   0.00000  Uiso   1.00
H300   H     0.33744   0.22657   0.42571   0.00000  Uiso   1.00
H301   H     0.43828   0.11482   0.49916   0.00000  Uiso   1.00
H302   H     0.21089   0.23955   0.30851   0.00000  Uiso   1.00
H303   H     0.35452   0.31690   0.48184   0.00000  Uiso   1.00
H304   H     0.56359   0.00424   0.56098   0.00000  Uiso   1.00
H305   H     0.08413   0.26728   0.15897   0.00000  Uiso   1.00
H306   H     0.38699   0.43039   0.52448   0.00000  Uiso   1.00
H307   H     0.44171   0.32936   0.27467   0.00000  Uiso   1.00
H308   H     0.54828   0.22324   0.33984   0.00000  Uiso   1.00
H309   H     0.32089   0.34798   0.14918   0.00000  Uiso   1.00
H310   H     0.46452   0.42533   0.32252   0.00000  Uiso   1.00
H311   H     0.65287   0.09224   0.43167   0.00000  Uiso   1.00
H312   H     0.17340   0.35528   0.02966   0.00000  Uiso   1.00
H313   H     0.47627   0.51839   0.39517   0.00000  Uiso   1.00
O314   O     0.67644   0.97657   0.54190   0.00000  Uiso   1.00
O315   O     0.04739   0.32168   0.01449   0.00000  Uiso   1.00
O316   O     0.44474   0.53567   0.49403   0.00000  Uiso   1.00
N317   N     0.56999   0.03952   0.52161   0.00000  Uiso   1.00
N318   N     0.12172   0.28544   0.14576   0.00000  Uiso   1.00
N319   N     0.40485   0.43794   0.48747   0.00000  Uiso   1.00
N320   N     0.61803   0.08687   0.45203   0.00000  Uiso   1.00
N321   N     0.16976   0.33279   0.07618   0.00000  Uiso   1.00
N322   N     0.45289   0.48529   0.41788   0.00000  Uiso   1.00
C323   C     0.09389   0.09286   0.56263   0.00000  Uiso   1.00
C324   C     0.02689   0.07219   0.56765   0.00000  Uiso   1.00
C325   C     0.98645   0.10198   0.59012   0.00000  Uiso   1.00
C326   C     0.92705   0.07576   0.59091   0.00000  Uiso   1.00
C327   C     0.82577   0.05192   0.60185   0.00000  Uiso   1.00
C328   C     0.07435   0.10838   0.48132   0.00000  Uiso   1.00
C329   C     0.07383   0.16859   0.43122   0.00000  Uiso   1.00
C330   C     0.05439   0.17282   0.35934   0.00000  Uiso   1.00
C331   C     0.02685   0.20515   0.23628   0.00000  Uiso   1.00
C332   C     0.15742   0.02977   0.61249   0.00000  Uiso   1.00
C333   C     0.22675   0.02390   0.67266   0.00000  Uiso   1.00
C334   C     0.27727   0.96195   0.71120   0.00000  Uiso   1.00
C335   C     0.37870   0.87222   0.79180   0.00000  Uiso   1.00
C336   C     0.06032   0.99330   0.52408   0.00000  Uiso   1.00
C337   C     0.00866   0.01812   0.54670   0.00000  Uiso   1.00
C338   C     0.94931   0.99184   0.54746   0.00000  Uiso   1.00
C339   C     0.90879   0.02158   0.56993   0.00000  Uiso   1.00
C340   C     0.05612   0.05431   0.46038   0.00000  Uiso   1.00
C341   C     0.03669   0.05844   0.38857   0.00000  Uiso   1.00
C342   C     0.03613   0.11865   0.33836   0.00000  Uiso   1.00
C343   C     0.13919   0.97570   0.59155   0.00000  Uiso   1.00
C344   C     0.18961   0.91375   0.63000   0.00000  Uiso   1.00
C345   C     0.25900   0.90777   0.69022   0.00000  Uiso   1.00
H346   H     0.10808   0.13496   0.57893   0.00000  Uiso   1.00
H347   H     0.00057   0.14384   0.60631   0.00000  Uiso   1.00
H348   H     0.08795   0.21043   0.44744   0.00000  Uiso   1.00
H349   H     0.24084   0.06575   0.68884   0.00000  Uiso   1.00
H350   H     0.87332   0.12985   0.62741   0.00000  Uiso   1.00
H351   H     0.05757   0.27025   0.29244   0.00000  Uiso   1.00
H352   H     0.37999   0.96518   0.80148   0.00000  Uiso   1.00
H353   H     0.04613   0.95120   0.50777   0.00000  Uiso   1.00
H354   H     0.93521   0.94999   0.53125   0.00000  Uiso   1.00
H355   H     0.02259   0.01659   0.37238   0.00000  Uiso   1.00
H356   H     0.17548   0.87191   0.61378   0.00000  Uiso   1.00
H357   H     0.82027   0.97252   0.56649   0.00000  Uiso   1.00
H358   H     0.00453   0.11293   0.23151   0.00000  Uiso   1.00
H359   H     0.32694   0.80785   0.74056   0.00000  Uiso   1.00
O360   O     0.77493   0.05372   0.61366   0.00000  Uiso   1.00
O361   O     0.01669   0.23792   0.17419   0.00000  Uiso   1.00
O362   O     0.43968   0.83767   0.84204   0.00000  Uiso   1.00
N363   N     0.87606   0.09298   0.60986   0.00000  Uiso   1.00
N364   N     0.04832   0.22425   0.29668   0.00000  Uiso   1.00
N365   N     0.34976   0.93904   0.77258   0.00000  Uiso   1.00
N366   N     0.84752   0.00832   0.57708   0.00000  Uiso   1.00
N367   N     0.01977   0.13959   0.26390   0.00000  Uiso   1.00
N368   N     0.32121   0.85438   0.73980   0.00000  Uiso   1.00
C369   C     0.90449   0.56966   0.98240   0.00000  Uiso   1.00
C370   C     0.88260   0.63015   0.90949   0.00000  Uiso   1.00
C371   C     0.93152   0.66296   0.89218   0.00000  Uiso   1.00
C372   C     0.90047   0.71725   0.82254   0.00000  Uiso   1.00
C373   C     0.87823   0.80801   0.71698   0.00000  Uiso   1.00
C374   C     0.87153   0.51471   0.95794   0.00000  Uiso   1.00
C375   C     0.91115   0.45047   0.98137   0.00000  Uiso   1.00
C376   C     0.87078   0.40759   0.95253   0.00000  Uiso   1.00
C377   C     0.83134   0.31912   0.92223   0.00000  Uiso   1.00
C378   C     0.86193   0.59021   0.01612   0.00000  Uiso   1.00
C379   C     0.89347   0.58942   0.08848   0.00000  Uiso   1.00
C380   C     0.84502   0.61010   0.10863   0.00000  Uiso   1.00
C381   C     0.79068   0.63885   0.16867   0.00000  Uiso   1.00
C382   C     0.76235   0.60775   0.88951   0.00000  Uiso   1.00
C383   C     0.80540   0.65083   0.85903   0.00000  Uiso   1.00
C384   C     0.77426   0.70510   0.78940   0.00000  Uiso   1.00
C385   C     0.82313   0.73799   0.77199   0.00000  Uiso   1.00
C386   C     0.79433   0.53540   0.90748   0.00000  Uiso   1.00
C387   C     0.75389   0.49261   0.87860   0.00000  Uiso   1.00
C388   C     0.79343   0.42832   0.90198   0.00000  Uiso   1.00
C389   C     0.78473   0.61090   0.96566   0.00000  Uiso   1.00
C390   C     0.73622   0.63157   0.98570   0.00000  Uiso   1.00
C391   C     0.76768   0.63083   0.05808   0.00000  Uiso   1.00
H392   H     0.96459   0.55354   0.02168   0.00000  Uiso   1.00
H393   H     0.99127   0.64692   0.93124   0.00000  Uiso   1.00
H394   H     0.97089   0.43447   0.02042   0.00000  Uiso   1.00
H395   H     0.95322   0.57341   0.12751   0.00000  Uiso   1.00
H396   H     0.98679   0.75956   0.80870   0.00000  Uiso   1.00
H397   H     0.94383   0.31158   0.99677   0.00000  Uiso   1.00
H398   H     0.90657   0.60456   0.22259   0.00000  Uiso   1.00
H399   H     0.70224   0.62386   0.85023   0.00000  Uiso   1.00
H400   H     0.71452   0.72110   0.75037   0.00000  Uiso   1.00
H401   H     0.69414   0.50864   0.83956   0.00000  Uiso   1.00
H402   H     0.67647   0.64758   0.94664   0.00000  Uiso   1.00
H403   H     0.76217   0.81976   0.66190   0.00000  Uiso   1.00
H404   H     0.71921   0.37178   0.84998   0.00000  Uiso   1.00
H405   H     0.68195   0.66476   0.07579   0.00000  Uiso   1.00
O406   O     0.88729   0.85235   0.67269   0.00000  Uiso   1.00
O407   O     0.83092   0.26461   0.91945   0.00000  Uiso   1.00
O408   O     0.78204   0.64900   0.21572   0.00000  Uiso   1.00
N409   N     0.93224   0.76039   0.78786   0.00000  Uiso   1.00
N410   N     0.89207   0.34156   0.96369   0.00000  Uiso   1.00
N411   N     0.85724   0.61546   0.17482   0.00000  Uiso   1.00
N412   N     0.81137   0.79279   0.70887   0.00000  Uiso   1.00
N413   N     0.77121   0.37395   0.88470   0.00000  Uiso   1.00
N414   N     0.73637   0.64785   0.09583   0.00000  Uiso   1.00
C415   C     0.71500   0.02172   0.06802   0.00000  Uiso   1.00
C416   C     0.65115   0.07607   0.04716   0.00000  Uiso   1.00
C417   C     0.64404   0.09779   0.09727   0.00000  Uiso   1.00
C418   C     0.58155   0.14803   0.06703   0.00000  Uiso   1.00
C419   C     0.49051   0.22821   0.04644   0.00000  Uiso   1.00
C420   C     0.67896   0.96928   0.04038   0.00000  Uiso   1.00
C421   C     0.69525   0.90121   0.08480   0.00000  Uiso   1.00
C422   C     0.65618   0.86155   0.04885   0.00000  Uiso   1.00
C423   C     0.60837   0.77593   0.01773   0.00000  Uiso   1.00
C424   C     0.74749   0.05450   0.01864   0.00000  Uiso   1.00
C425   C     0.82139   0.05806   0.04477   0.00000  Uiso   1.00
C426   C     0.84002   0.09014   0.99050   0.00000  Uiso   1.00
C427   C     0.89861   0.13683   0.92563   0.00000  Uiso   1.00
C428   C     0.61667   0.07233   0.92518   0.00000  Uiso   1.00
C429   C     0.59774   0.10356   0.96957   0.00000  Uiso   1.00
C430   C     0.53524   0.15378   0.93924   0.00000  Uiso   1.00
C431   C     0.52804   0.17557   0.98930   0.00000  Uiso   1.00
C432   C     0.62555   0.99677   0.96280   0.00000  Uiso   1.00
C433   C     0.58646   0.95720   0.92677   0.00000  Uiso   1.00
C434   C     0.60267   0.88909   0.97112   0.00000  Uiso   1.00
C435   C     0.69408   0.08199   0.94105   0.00000  Uiso   1.00
C436   C     0.71260   0.11406   0.88673   0.00000  Uiso   1.00
C437   C     0.78652   0.11767   0.91278   0.00000  Uiso   1.00
H438   H     0.75658   0.00032   0.12842   0.00000  Uiso   1.00
H439   H     0.68538   0.07649   0.15732   0.00000  Uiso   1.00
H440   H     0.73659   0.87995   0.14484   0.00000  Uiso   1.00
H441   H     0.86271   0.03678   0.10481   0.00000  Uiso   1.00
H442   H     0.58287   0.17306   0.15514   0.00000  Uiso   1.00
H443   H     0.69087   0.75862   0.12883   0.00000  Uiso   1.00
H444   H     0.95682   0.08933   0.04443   0.00000  Uiso   1.00
H445   H     0.57508   0.09373   0.86477   0.00000  Uiso   1.00
H446   H     0.49392   0.17504   0.87920   0.00000  Uiso   1.00
H447   H     0.54513   0.97849   0.86672   0.00000  Uiso   1.00
H448   H     0.67125   0.13532   0.82670   0.00000  Uiso   1.00
H449   H     0.42748   0.25304   0.92941   0.00000  Uiso   1.00
H450   H     0.53547   0.83860   0.90310   0.00000  Uiso   1.00
H451   H     0.80143   0.16931   0.81869   0.00000  Uiso   1.00
O452   O     0.45505   0.26483   0.05652   0.00000  Uiso   1.00
O453   O     0.59674   0.72111   0.02201   0.00000  Uiso   1.00
O454   O     0.94567   0.15499   0.91127   0.00000  Uiso   1.00
N455   N     0.55745   0.18073   0.10003   0.00000  Uiso   1.00
N456   N     0.65841   0.79326   0.07544   0.00000  Uiso   1.00
N457   N     0.90706   0.10243   0.99653   0.00000  Uiso   1.00
N458   N     0.47383   0.22377   0.97856   0.00000  Uiso   1.00
N459   N     0.57479   0.83630   0.95397   0.00000  Uiso   1.00
N460   N     0.82344   0.14547   0.87506   0.00000  Uiso   1.00
C461   C     0.32789   0.77856   0.38449   0.00000  Uiso   1.00
C462   C     0.31304   0.71232   0.42273   0.00000  Uiso   1.00
C463   C     0.34621   0.67594   0.50039   0.00000  Uiso   1.00
C464   C     0.32515   0.61656   0.52405   0.00000  Uiso   1.00
C465   C     0.31008   0.51707   0.59137   0.00000  Uiso   1.00
C466   C     0.35234   0.76672   0.33261   0.00000  Uiso   1.00
C467   C     0.41855   0.77608   0.33448   0.00000  Uiso   1.00
C468   C     0.43058   0.76249   0.28227   0.00000  Uiso   1.00
C469   C     0.47650   0.74750   0.20963   0.00000  Uiso   1.00
C470   C     0.25225   0.82868   0.33230   0.00000  Uiso   1.00
C471   C     0.23431   0.89016   0.33390   0.00000  Uiso   1.00
C472   C     0.16207   0.92875   0.28141   0.00000  Uiso   1.00
C473   C     0.05259   0.00996   0.20829   0.00000  Uiso   1.00
C474   C     0.23151   0.73778   0.28843   0.00000  Uiso   1.00
C475   C     0.26069   0.69018   0.37055   0.00000  Uiso   1.00
C476   C     0.23957   0.63083   0.39410   0.00000  Uiso   1.00
C477   C     0.27271   0.59437   0.47178   0.00000  Uiso   1.00
C478   C     0.29999   0.74457   0.28043   0.00000  Uiso   1.00
C479   C     0.31192   0.73097   0.22820   0.00000  Uiso   1.00
C480   C     0.37813   0.74031   0.23000   0.00000  Uiso   1.00
C481   C     0.19990   0.80654   0.28012   0.00000  Uiso   1.00
C482   C     0.12767   0.84504   0.22762   0.00000  Uiso   1.00
C483   C     0.10963   0.90656   0.22914   0.00000  Uiso   1.00
H484   H     0.36865   0.79580   0.42511   0.00000  Uiso   1.00
H485   H     0.38672   0.69310   0.54075   0.00000  Uiso   1.00
H486   H     0.45905   0.79323   0.37486   0.00000  Uiso   1.00
H487   H     0.27483   0.90728   0.37428   0.00000  Uiso   1.00
H488   H     0.38370   0.56945   0.64595   0.00000  Uiso   1.00
H489   H     0.53619   0.78060   0.29615   0.00000  Uiso   1.00
H490   H     0.14774   0.02111   0.29492   0.00000  Uiso   1.00
H491   H     0.19075   0.72054   0.24780   0.00000  Uiso   1.00
H492   H     0.19906   0.61371   0.35371   0.00000  Uiso   1.00
H493   H     0.27139   0.71384   0.18783   0.00000  Uiso   1.00
H494   H     0.08718   0.82789   0.18725   0.00000  Uiso   1.00
H495   H     0.23139   0.50502   0.49414   0.00000  Uiso   1.00
H496   H     0.38388   0.71617   0.14434   0.00000  Uiso   1.00
H497   H     0.99543   0.95667   0.14312   0.00000  Uiso   1.00
O498   O     0.31624   0.46830   0.64291   0.00000  Uiso   1.00
O499   O     0.51630   0.74534   0.18399   0.00000  Uiso   1.00
O500   O     0.00666   0.06087   0.18238   0.00000  Uiso   1.00
N501   N     0.34670   0.56896   0.59568   0.00000  Uiso   1.00
N502   N     0.48928   0.76636   0.26866   0.00000  Uiso   1.00
N503   N     0.12611   0.99122   0.26749   0.00000  Uiso   1.00
N504   N     0.26474   0.53428   0.51400   0.00000  Uiso   1.00
N505   N     0.40732   0.73169   0.18697   0.00000  Uiso   1.00
N506   N     0.04416   0.95655   0.18581   0.00000  Uiso   1.00
C507   C     0.92729   0.57102   0.59835   0.00000  Uiso   1.00
C508   C     0.97677   0.52974   0.58525   0.00000  Uiso   1.00
C509   C     0.01825   0.55477   0.55200   0.00000  Uiso   1.00
C510   C     0.05992   0.50883   0.54513   0.00000  Uiso   1.00
C511   C     0.13670   0.45516   0.52088   0.00000  Uiso   1.00
C512   C     0.84986   0.55812   0.55885   0.00000  Uiso   1.00
C513   C     0.78464   0.60701   0.50341   0.00000  Uiso   1.00
C514   C     0.71948   0.58495   0.47433   0.00000  Uiso   1.00
C515   C     0.59922   0.57533   0.40913   0.00000  Uiso   1.00
C516   C     0.95539   0.53878   0.68310   0.00000  Uiso   1.00
C517   C     0.97888   0.57141   0.73212   0.00000  Uiso   1.00
C518   C     0.00254   0.53306   0.80764   0.00000  Uiso   1.00
C519   C     0.04613   0.49342   0.93536   0.00000  Uiso   1.00
C520   C     0.92751   0.44490   0.64528   0.00000  Uiso   1.00
C521   C     0.97689   0.46124   0.61075   0.00000  Uiso   1.00
C522   C     0.01850   0.41524   0.60393   0.00000  Uiso   1.00
C523   C     0.06004   0.44020   0.57067   0.00000  Uiso   1.00
C524   C     0.84998   0.48962   0.58434   0.00000  Uiso   1.00
C525   C     0.78489   0.46748   0.55534   0.00000  Uiso   1.00
C526   C     0.71960   0.51632   0.49987   0.00000  Uiso   1.00
C527   C     0.95551   0.47027   0.70859   0.00000  Uiso   1.00
C528   C     0.97913   0.43187   0.78405   0.00000  Uiso   1.00
C529   C     0.00266   0.46444   0.83318   0.00000  Uiso   1.00
H530   H     0.92719   0.62435   0.57850   0.00000  Uiso   1.00
H531   H     0.01814   0.60779   0.53227   0.00000  Uiso   1.00
H532   H     0.78457   0.66002   0.48370   0.00000  Uiso   1.00
H533   H     0.97878   0.62442   0.71237   0.00000  Uiso   1.00
H534   H     0.11901   0.55923   0.49224   0.00000  Uiso   1.00
H535   H     0.62650   0.66935   0.38984   0.00000  Uiso   1.00
H536   H     0.03603   0.59429   0.87204   0.00000  Uiso   1.00
H537   H     0.92761   0.39157   0.66513   0.00000  Uiso   1.00
H538   H     0.01858   0.36223   0.62366   0.00000  Uiso   1.00
H539   H     0.78501   0.41446   0.57509   0.00000  Uiso   1.00
H540   H     0.97922   0.37886   0.80376   0.00000  Uiso   1.00
H541   H     0.11936   0.35992   0.56641   0.00000  Uiso   1.00
H542   H     0.62686   0.47005   0.46401   0.00000  Uiso   1.00
H543   H     0.03639   0.39498   0.94622   0.00000  Uiso   1.00
O544   O     0.17901   0.44448   0.50046   0.00000  Uiso   1.00
O545   O     0.53286   0.58896   0.36612   0.00000  Uiso   1.00
O546   O     0.07015   0.49048   0.99876   0.00000  Uiso   1.00
N547   N     0.10662   0.51634   0.51540   0.00000  Uiso   1.00
N548   N     0.64616   0.61930   0.41965   0.00000  Uiso   1.00
N549   N     0.02901   0.54913   0.87047   0.00000  Uiso   1.00
N550   N     0.10681   0.40910   0.55531   0.00000  Uiso   1.00
N551   N     0.64635   0.51206   0.45956   0.00000  Uiso   1.00
N552   N     0.02920   0.44189   0.91038   0.00000  Uiso   1.00
