data_job_00257
_audit_creation_date              2018-12-19
_audit_creation_method            'Materials Studio'
_symmetry_space_group_name_H-M    'P1'
_symmetry_Int_Tables_number       1
_symmetry_cell_setting            triclinic
loop_
_symmetry_equiv_pos_as_xyz
  x,y,z
_cell_length_a                    7.3693
_cell_length_b                    16.4844
_cell_length_c                    21.7412
_cell_angle_alpha                 90.0000
_cell_angle_beta                  112.8124
_cell_angle_gamma                 90.0000
loop_
_atom_site_label
_atom_site_type_symbol
_atom_site_fract_x
_atom_site_fract_y
_atom_site_fract_z
_atom_site_U_iso_or_equiv
_atom_site_adp_type
_atom_site_occupancy
C1     C     0.77114   0.63467   0.19297   0.00000  Uiso   1.00
C2     C     0.78037   0.62970   0.26417   0.00000  Uiso   1.00
C3     C     0.94610   0.61080   0.32041   0.00000  Uiso   1.00
C4     C     0.92425   0.60935   0.38102   0.00000  Uiso   1.00
C5     C     0.96611   0.59903   0.49092   0.00000  Uiso   1.00
C6     C     0.60919   0.57613   0.15197   0.00000  Uiso   1.00
C7     C     0.63101   0.51220   0.11386   0.00000  Uiso   1.00
C8     C     0.46504   0.46567   0.08002   0.00000  Uiso   1.00
C9     C     0.24111   0.37221   0.01569   0.00000  Uiso   1.00
C10    C     0.69529   0.71946   0.16802   0.00000  Uiso   1.00
C11    C     0.78946   0.77604   0.14340   0.00000  Uiso   1.00
C12    C     0.69596   0.85018   0.12305   0.00000  Uiso   1.00
C13    C     0.60571   0.97927   0.08366   0.00000  Uiso   1.00
C14    C     0.43760   0.66573   0.20061   0.00000  Uiso   1.00
C15    C     0.59920   0.64657   0.26831   0.00000  Uiso   1.00
C16    C     0.57708   0.64516   0.32885   0.00000  Uiso   1.00
C17    C     0.74276   0.62626   0.38517   0.00000  Uiso   1.00
C18    C     0.42803   0.59300   0.15611   0.00000  Uiso   1.00
C19    C     0.26198   0.54656   0.12231   0.00000  Uiso   1.00
C20    C     0.28354   0.48257   0.08417   0.00000  Uiso   1.00
C21    C     0.51412   0.73634   0.17217   0.00000  Uiso   1.00
C22    C     0.42044   0.81040   0.15185   0.00000  Uiso   1.00
C23    C     0.51446   0.86708   0.12720   0.00000  Uiso   1.00
H24    H     0.91218   0.62154   0.18974   0.00000  Uiso   1.00
H25    H     0.08628   0.59774   0.31718   0.00000  Uiso   1.00
H26    H     0.77122   0.49916   0.11066   0.00000  Uiso   1.00
H27    H     0.92965   0.76296   0.14020   0.00000  Uiso   1.00
H28    H     0.19938   0.57876   0.46028   0.00000  Uiso   1.00
H29    H     0.53505   0.37093   0.02482   0.00000  Uiso   1.00
H30    H     0.86915   0.92720   0.08710   0.00000  Uiso   1.00
H31    H     0.29655   0.67887   0.20383   0.00000  Uiso   1.00
H32    H     0.43687   0.65822   0.33204   0.00000  Uiso   1.00
H33    H     0.12181   0.55964   0.12552   0.00000  Uiso   1.00
H34    H     0.28025   0.82344   0.15506   0.00000  Uiso   1.00
H35    H     0.67230   0.62784   0.47235   0.00000  Uiso   1.00
H36    H     0.00796   0.42001   0.03688   0.00000  Uiso   1.00
H37    H     0.34206   0.97628   0.09916   0.00000  Uiso   1.00
O38    O     0.03924   0.58866   0.55040   0.00000  Uiso   1.00
O39    O     0.16766   0.31600   0.97907   0.00000  Uiso   1.00
O40    O     0.60599   0.04581   0.06079   0.00000  Uiso   1.00
N41    N     0.05608   0.59316   0.44553   0.00000  Uiso   1.00
N42    N     0.43498   0.39884   0.03840   0.00000  Uiso   1.00
N43    N     0.74731   0.91890   0.09661   0.00000  Uiso   1.00
N44    N     0.77246   0.61958   0.45202   0.00000  Uiso   1.00
N45    N     0.15136   0.42525   0.04489   0.00000  Uiso   1.00
N46    N     0.46369   0.94531   0.10310   0.00000  Uiso   1.00
C47    C     0.22886   0.13467   0.30703   0.00000  Uiso   1.00
C48    C     0.21963   0.12970   0.23583   0.00000  Uiso   1.00
C49    C     0.05390   0.11080   0.17959   0.00000  Uiso   1.00
C50    C     0.07575   0.10935   0.11898   0.00000  Uiso   1.00
C51    C     0.03389   0.09903   0.00908   0.00000  Uiso   1.00
C52    C     0.39081   0.07613   0.34803   0.00000  Uiso   1.00
C53    C     0.36899   0.01220   0.38614   0.00000  Uiso   1.00
C54    C     0.53496   0.96567   0.41998   0.00000  Uiso   1.00
C55    C     0.75889   0.87221   0.48431   0.00000  Uiso   1.00
C56    C     0.30471   0.21946   0.33198   0.00000  Uiso   1.00
C57    C     0.21054   0.27604   0.35660   0.00000  Uiso   1.00
C58    C     0.30404   0.35018   0.37695   0.00000  Uiso   1.00
C59    C     0.39429   0.47927   0.41634   0.00000  Uiso   1.00
C60    C     0.56240   0.16573   0.29939   0.00000  Uiso   1.00
C61    C     0.40080   0.14657   0.23169   0.00000  Uiso   1.00
C62    C     0.42292   0.14516   0.17115   0.00000  Uiso   1.00
C63    C     0.25724   0.12626   0.11483   0.00000  Uiso   1.00
C64    C     0.57197   0.09300   0.34389   0.00000  Uiso   1.00
C65    C     0.73802   0.04656   0.37769   0.00000  Uiso   1.00
C66    C     0.71646   0.98257   0.41583   0.00000  Uiso   1.00
C67    C     0.48588   0.23634   0.32783   0.00000  Uiso   1.00
C68    C     0.57956   0.31040   0.34815   0.00000  Uiso   1.00
C69    C     0.48554   0.36708   0.37280   0.00000  Uiso   1.00
H70    H     0.08782   0.12154   0.31026   0.00000  Uiso   1.00
H71    H     0.91372   0.09774   0.18282   0.00000  Uiso   1.00
H72    H     0.22878   0.99916   0.38934   0.00000  Uiso   1.00
H73    H     0.07035   0.26296   0.35980   0.00000  Uiso   1.00
H74    H     0.80062   0.07876   0.03972   0.00000  Uiso   1.00
H75    H     0.46495   0.87093   0.47518   0.00000  Uiso   1.00
H76    H     0.13085   0.42720   0.41290   0.00000  Uiso   1.00
H77    H     0.70345   0.17887   0.29617   0.00000  Uiso   1.00
H78    H     0.56313   0.15822   0.16796   0.00000  Uiso   1.00
H79    H     0.87819   0.05964   0.37448   0.00000  Uiso   1.00
H80    H     0.71975   0.32344   0.34494   0.00000  Uiso   1.00
H81    H     0.32770   0.12784   0.02765   0.00000  Uiso   1.00
H82    H     0.99204   0.92001   0.46312   0.00000  Uiso   1.00
H83    H     0.65794   0.47628   0.40084   0.00000  Uiso   1.00
O84    O     0.96076   0.08866   0.94960   0.00000  Uiso   1.00
O85    O     0.83234   0.81600   0.52093   0.00000  Uiso   1.00
O86    O     0.39401   0.54581   0.43921   0.00000  Uiso   1.00
N87    N     0.94392   0.09316   0.05447   0.00000  Uiso   1.00
N88    N     0.56502   0.89884   0.46160   0.00000  Uiso   1.00
N89    N     0.25269   0.41890   0.40339   0.00000  Uiso   1.00
N90    N     0.22754   0.11958   0.04798   0.00000  Uiso   1.00
N91    N     0.84864   0.92525   0.45511   0.00000  Uiso   1.00
N92    N     0.53631   0.44531   0.39690   0.00000  Uiso   1.00
C93    C     0.22886   0.36533   0.80703   0.00000  Uiso   1.00
C94    C     0.21963   0.37030   0.73583   0.00000  Uiso   1.00
C95    C     0.05390   0.38920   0.67959   0.00000  Uiso   1.00
C96    C     0.07575   0.39065   0.61898   0.00000  Uiso   1.00
C97    C     0.03389   0.40097   0.50908   0.00000  Uiso   1.00
C98    C     0.39081   0.42387   0.84803   0.00000  Uiso   1.00
C99    C     0.36899   0.48780   0.88614   0.00000  Uiso   1.00
C100   C     0.53496   0.53433   0.91998   0.00000  Uiso   1.00
C101   C     0.75889   0.62779   0.98431   0.00000  Uiso   1.00
C102   C     0.30471   0.28054   0.83198   0.00000  Uiso   1.00
C103   C     0.21054   0.22396   0.85660   0.00000  Uiso   1.00
C104   C     0.30404   0.14982   0.87695   0.00000  Uiso   1.00
C105   C     0.39429   0.02073   0.91634   0.00000  Uiso   1.00
C106   C     0.56240   0.33427   0.79939   0.00000  Uiso   1.00
C107   C     0.40080   0.35343   0.73169   0.00000  Uiso   1.00
C108   C     0.42292   0.35484   0.67115   0.00000  Uiso   1.00
C109   C     0.25724   0.37374   0.61483   0.00000  Uiso   1.00
C110   C     0.57197   0.40700   0.84389   0.00000  Uiso   1.00
C111   C     0.73802   0.45344   0.87769   0.00000  Uiso   1.00
C112   C     0.71646   0.51743   0.91583   0.00000  Uiso   1.00
C113   C     0.48588   0.26366   0.82783   0.00000  Uiso   1.00
C114   C     0.57956   0.18960   0.84815   0.00000  Uiso   1.00
C115   C     0.48554   0.13292   0.87280   0.00000  Uiso   1.00
H116   H     0.08782   0.37846   0.81026   0.00000  Uiso   1.00
H117   H     0.91372   0.40226   0.68282   0.00000  Uiso   1.00
H118   H     0.22878   0.50084   0.88934   0.00000  Uiso   1.00
H119   H     0.07035   0.23704   0.85980   0.00000  Uiso   1.00
H120   H     0.80062   0.42124   0.53972   0.00000  Uiso   1.00
H121   H     0.46495   0.62907   0.97518   0.00000  Uiso   1.00
H122   H     0.13085   0.07280   0.91290   0.00000  Uiso   1.00
H123   H     0.70345   0.32113   0.79617   0.00000  Uiso   1.00
H124   H     0.56313   0.34178   0.66796   0.00000  Uiso   1.00
H125   H     0.87819   0.44036   0.87448   0.00000  Uiso   1.00
H126   H     0.71975   0.17656   0.84494   0.00000  Uiso   1.00
H127   H     0.32770   0.37216   0.52765   0.00000  Uiso   1.00
H128   H     0.99204   0.57999   0.96312   0.00000  Uiso   1.00
H129   H     0.65794   0.02372   0.90084   0.00000  Uiso   1.00
O130   O     0.96076   0.41134   0.44960   0.00000  Uiso   1.00
O131   O     0.83234   0.68400   0.02093   0.00000  Uiso   1.00
O132   O     0.39401   0.95419   0.93921   0.00000  Uiso   1.00
N133   N     0.94392   0.40684   0.55447   0.00000  Uiso   1.00
N134   N     0.56502   0.60116   0.96160   0.00000  Uiso   1.00
N135   N     0.25269   0.08110   0.90339   0.00000  Uiso   1.00
N136   N     0.22754   0.38042   0.54798   0.00000  Uiso   1.00
N137   N     0.84864   0.57475   0.95511   0.00000  Uiso   1.00
N138   N     0.53631   0.05469   0.89690   0.00000  Uiso   1.00
C139   C     0.77114   0.86533   0.69297   0.00000  Uiso   1.00
C140   C     0.78037   0.87030   0.76417   0.00000  Uiso   1.00
C141   C     0.94610   0.88920   0.82041   0.00000  Uiso   1.00
C142   C     0.92425   0.89065   0.88102   0.00000  Uiso   1.00
C143   C     0.96611   0.90097   0.99092   0.00000  Uiso   1.00
C144   C     0.60919   0.92387   0.65197   0.00000  Uiso   1.00
C145   C     0.63101   0.98780   0.61386   0.00000  Uiso   1.00
C146   C     0.46504   0.03433   0.58002   0.00000  Uiso   1.00
C147   C     0.24111   0.12779   0.51569   0.00000  Uiso   1.00
C148   C     0.69529   0.78054   0.66802   0.00000  Uiso   1.00
C149   C     0.78946   0.72396   0.64340   0.00000  Uiso   1.00
C150   C     0.69596   0.64982   0.62305   0.00000  Uiso   1.00
C151   C     0.60571   0.52073   0.58366   0.00000  Uiso   1.00
C152   C     0.43760   0.83427   0.70061   0.00000  Uiso   1.00
C153   C     0.59920   0.85343   0.76831   0.00000  Uiso   1.00
C154   C     0.57708   0.85484   0.82885   0.00000  Uiso   1.00
C155   C     0.74276   0.87374   0.88517   0.00000  Uiso   1.00
C156   C     0.42803   0.90700   0.65611   0.00000  Uiso   1.00
C157   C     0.26198   0.95344   0.62231   0.00000  Uiso   1.00
C158   C     0.28354   0.01743   0.58417   0.00000  Uiso   1.00
C159   C     0.51412   0.76366   0.67217   0.00000  Uiso   1.00
C160   C     0.42044   0.68960   0.65185   0.00000  Uiso   1.00
C161   C     0.51446   0.63292   0.62720   0.00000  Uiso   1.00
H162   H     0.91218   0.87846   0.68974   0.00000  Uiso   1.00
H163   H     0.08628   0.90226   0.81718   0.00000  Uiso   1.00
H164   H     0.77122   0.00084   0.61066   0.00000  Uiso   1.00
H165   H     0.92965   0.73704   0.64020   0.00000  Uiso   1.00
H166   H     0.19938   0.92124   0.96028   0.00000  Uiso   1.00
H167   H     0.53505   0.12907   0.52482   0.00000  Uiso   1.00
H168   H     0.86915   0.57280   0.58710   0.00000  Uiso   1.00
H169   H     0.29655   0.82113   0.70383   0.00000  Uiso   1.00
H170   H     0.43687   0.84178   0.83204   0.00000  Uiso   1.00
H171   H     0.12181   0.94036   0.62552   0.00000  Uiso   1.00
H172   H     0.28025   0.67656   0.65506   0.00000  Uiso   1.00
H173   H     0.67230   0.87216   0.97235   0.00000  Uiso   1.00
H174   H     0.00796   0.07999   0.53688   0.00000  Uiso   1.00
H175   H     0.34206   0.52372   0.59916   0.00000  Uiso   1.00
O176   O     0.03924   0.91134   0.05040   0.00000  Uiso   1.00
O177   O     0.16766   0.18400   0.47907   0.00000  Uiso   1.00
O178   O     0.60599   0.45419   0.56079   0.00000  Uiso   1.00
N179   N     0.05608   0.90684   0.94553   0.00000  Uiso   1.00
N180   N     0.43498   0.10116   0.53840   0.00000  Uiso   1.00
N181   N     0.74731   0.58110   0.59661   0.00000  Uiso   1.00
N182   N     0.77246   0.88042   0.95202   0.00000  Uiso   1.00
N183   N     0.15136   0.07475   0.54489   0.00000  Uiso   1.00
N184   N     0.46369   0.55469   0.60310   0.00000  Uiso   1.00
