data_job_01609
_audit_creation_date              2018-12-19
_audit_creation_method            'Materials Studio'
_symmetry_space_group_name_H-M    'P1'
_symmetry_Int_Tables_number       1
_symmetry_cell_setting            triclinic
loop_
_symmetry_equiv_pos_as_xyz
  x,y,z
_cell_length_a                    12.5266
_cell_length_b                    11.7096
_cell_length_c                    38.8696
_cell_angle_alpha                 90.0000
_cell_angle_beta                  90.0000
_cell_angle_gamma                 90.0000
loop_
_atom_site_label
_atom_site_type_symbol
_atom_site_fract_x
_atom_site_fract_y
_atom_site_fract_z
_atom_site_U_iso_or_equiv
_atom_site_adp_type
_atom_site_occupancy
C1     C     0.74111   0.09116   0.84479   0.00000  Uiso   1.00
C2     C     0.82400   0.18065   0.85472   0.00000  Uiso   1.00
C3     C     0.92012   0.19999   0.83795   0.00000  Uiso   1.00
C4     C     0.98497   0.28580   0.85102   0.00000  Uiso   1.00
C5     C     0.11832   0.41497   0.86207   0.00000  Uiso   1.00
C6     C     0.72419   0.01771   0.87673   0.00000  Uiso   1.00
C7     C     0.73637   0.90004   0.87845   0.00000  Uiso   1.00
C8     C     0.71717   0.84868   0.91005   0.00000  Uiso   1.00
C9     C     0.69548   0.72486   0.95525   0.00000  Uiso   1.00
C10    C     0.63692   0.15598   0.83928   0.00000  Uiso   1.00
C11    C     0.57570   0.15455   0.80952   0.00000  Uiso   1.00
C12    C     0.48302   0.21959   0.80960   0.00000  Uiso   1.00
C13    C     0.32583   0.31046   0.79666   0.00000  Uiso   1.00
C14    C     0.68535   0.20916   0.89783   0.00000  Uiso   1.00
C15    C     0.79372   0.24474   0.88353   0.00000  Uiso   1.00
C16    C     0.85843   0.33055   0.89663   0.00000  Uiso   1.00
C17    C     0.95463   0.35001   0.87988   0.00000  Uiso   1.00
C18    C     0.69391   0.08180   0.90554   0.00000  Uiso   1.00
C19    C     0.67468   0.03060   0.93714   0.00000  Uiso   1.00
C20    C     0.68684   0.91289   0.93891   0.00000  Uiso   1.00
C21    C     0.60663   0.22008   0.86809   0.00000  Uiso   1.00
C22    C     0.51402   0.28512   0.86821   0.00000  Uiso   1.00
C23    C     0.45268   0.28380   0.83846   0.00000  Uiso   1.00
H24    H     0.76468   0.04125   0.82237   0.00000  Uiso   1.00
H25    H     0.94353   0.15036   0.81566   0.00000  Uiso   1.00
H26    H     0.75980   0.85046   0.85615   0.00000  Uiso   1.00
H27    H     0.59916   0.10494   0.78724   0.00000  Uiso   1.00
H28    H     0.12848   0.29957   0.82094   0.00000  Uiso   1.00
H29    H     0.74103   0.66721   0.90632   0.00000  Uiso   1.00
H30    H     0.40230   0.20382   0.76099   0.00000  Uiso   1.00
H31    H     0.66177   0.25906   0.92027   0.00000  Uiso   1.00
H32    H     0.83498   0.38013   0.91893   0.00000  Uiso   1.00
H33    H     0.65124   0.08023   0.95943   0.00000  Uiso   1.00
H34    H     0.49061   0.33471   0.89051   0.00000  Uiso   1.00
H35    H     0.04038   0.48605   0.90476   0.00000  Uiso   1.00
H36    H     0.65292   0.85369   0.99014   0.00000  Uiso   1.00
H37    H     0.31420   0.39031   0.84481   0.00000  Uiso   1.00
O38    O     0.20025   0.46850   0.86021   0.00000  Uiso   1.00
O39    O     0.69190   0.63886   0.97222   0.00000  Uiso   1.00
O40    O     0.24751   0.34289   0.78156   0.00000  Uiso   1.00
N41    N     0.08397   0.32686   0.84084   0.00000  Uiso   1.00
N42    N     0.72174   0.73564   0.92067   0.00000  Uiso   1.00
N43    N     0.40504   0.23730   0.78480   0.00000  Uiso   1.00
N44    N     0.03656   0.42721   0.88594   0.00000  Uiso   1.00
N45    N     0.67433   0.83599   0.96577   0.00000  Uiso   1.00
N46    N     0.35763   0.33765   0.82991   0.00000  Uiso   1.00
C47    C     0.07079   0.58998   0.15931   0.00000  Uiso   1.00
C48    C     0.98787   0.67950   0.14942   0.00000  Uiso   1.00
C49    C     0.89177   0.69876   0.16621   0.00000  Uiso   1.00
C50    C     0.82689   0.78460   0.15318   0.00000  Uiso   1.00
C51    C     0.69351   0.91379   0.14219   0.00000  Uiso   1.00
C52    C     0.08768   0.51665   0.12735   0.00000  Uiso   1.00
C53    C     0.07551   0.39898   0.12559   0.00000  Uiso   1.00
C54    C     0.09468   0.34775   0.09397   0.00000  Uiso   1.00
C55    C     0.11633   0.22410   0.04873   0.00000  Uiso   1.00
C56    C     0.17497   0.65479   0.16483   0.00000  Uiso   1.00
C57    C     0.23622   0.65326   0.19458   0.00000  Uiso   1.00
C58    C     0.32890   0.71832   0.19452   0.00000  Uiso   1.00
C59    C     0.48608   0.80916   0.20748   0.00000  Uiso   1.00
C60    C     0.12647   0.70819   0.10630   0.00000  Uiso   1.00
C61    C     0.01811   0.74370   0.12063   0.00000  Uiso   1.00
C62    C     0.95337   0.82954   0.10757   0.00000  Uiso   1.00
C63    C     0.85719   0.84893   0.12433   0.00000  Uiso   1.00
C64    C     0.11792   0.58085   0.09856   0.00000  Uiso   1.00
C65    C     0.13712   0.52977   0.06694   0.00000  Uiso   1.00
C66    C     0.12498   0.41207   0.06513   0.00000  Uiso   1.00
C67    C     0.20522   0.71900   0.13604   0.00000  Uiso   1.00
C68    C     0.29782   0.78406   0.13594   0.00000  Uiso   1.00
C69    C     0.35919   0.78264   0.16568   0.00000  Uiso   1.00
H70    H     0.04724   0.53999   0.18173   0.00000  Uiso   1.00
H71    H     0.86838   0.64904   0.18849   0.00000  Uiso   1.00
H72    H     0.05212   0.34932   0.14787   0.00000  Uiso   1.00
H73    H     0.21279   0.60357   0.21686   0.00000  Uiso   1.00
H74    H     0.68341   0.79824   0.18329   0.00000  Uiso   1.00
H75    H     0.07085   0.16625   0.09764   0.00000  Uiso   1.00
H76    H     0.40967   0.70238   0.24311   0.00000  Uiso   1.00
H77    H     0.15002   0.75817   0.08389   0.00000  Uiso   1.00
H78    H     0.97680   0.87921   0.08528   0.00000  Uiso   1.00
H79    H     0.16052   0.57948   0.04467   0.00000  Uiso   1.00
H80    H     0.32120   0.83373   0.11365   0.00000  Uiso   1.00
H81    H     0.77139   0.98505   0.09952   0.00000  Uiso   1.00
H82    H     0.15884   0.35306   0.01388   0.00000  Uiso   1.00
H83    H     0.49766   0.88919   0.15935   0.00000  Uiso   1.00
O84    O     0.61158   0.96731   0.14408   0.00000  Uiso   1.00
O85    O     0.11991   0.13816   0.03172   0.00000  Uiso   1.00
O86    O     0.56443   0.84155   0.22257   0.00000  Uiso   1.00
N87    N     0.72790   0.82561   0.16338   0.00000  Uiso   1.00
N88    N     0.09012   0.23474   0.08331   0.00000  Uiso   1.00
N89    N     0.40690   0.73595   0.21931   0.00000  Uiso   1.00
N90    N     0.77524   0.92613   0.11831   0.00000  Uiso   1.00
N91    N     0.13746   0.33526   0.03824   0.00000  Uiso   1.00
N92    N     0.45424   0.83647   0.17424   0.00000  Uiso   1.00
C93    C     0.25889   0.90884   0.34479   0.00000  Uiso   1.00
C94    C     0.17600   0.81935   0.35472   0.00000  Uiso   1.00
C95    C     0.07988   0.80001   0.33795   0.00000  Uiso   1.00
C96    C     0.01503   0.71420   0.35102   0.00000  Uiso   1.00
C97    C     0.88168   0.58503   0.36207   0.00000  Uiso   1.00
C98    C     0.27581   0.98229   0.37673   0.00000  Uiso   1.00
C99    C     0.26363   0.09996   0.37845   0.00000  Uiso   1.00
C100   C     0.28283   0.15132   0.41005   0.00000  Uiso   1.00
C101   C     0.30452   0.27514   0.45525   0.00000  Uiso   1.00
C102   C     0.36308   0.84402   0.33928   0.00000  Uiso   1.00
C103   C     0.42430   0.84545   0.30952   0.00000  Uiso   1.00
C104   C     0.51698   0.78041   0.30960   0.00000  Uiso   1.00
C105   C     0.67417   0.68954   0.29666   0.00000  Uiso   1.00
C106   C     0.31465   0.79084   0.39783   0.00000  Uiso   1.00
C107   C     0.20628   0.75526   0.38353   0.00000  Uiso   1.00
C108   C     0.14157   0.66945   0.39663   0.00000  Uiso   1.00
C109   C     0.04537   0.64999   0.37988   0.00000  Uiso   1.00
C110   C     0.30609   0.91820   0.40554   0.00000  Uiso   1.00
C111   C     0.32532   0.96940   0.43714   0.00000  Uiso   1.00
C112   C     0.31316   0.08711   0.43891   0.00000  Uiso   1.00
C113   C     0.39337   0.77992   0.36809   0.00000  Uiso   1.00
C114   C     0.48598   0.71488   0.36821   0.00000  Uiso   1.00
C115   C     0.54732   0.71620   0.33846   0.00000  Uiso   1.00
H116   H     0.23532   0.95875   0.32237   0.00000  Uiso   1.00
H117   H     0.05647   0.84964   0.31566   0.00000  Uiso   1.00
H118   H     0.24020   0.14954   0.35615   0.00000  Uiso   1.00
H119   H     0.40084   0.89506   0.28724   0.00000  Uiso   1.00
H120   H     0.87152   0.70043   0.32094   0.00000  Uiso   1.00
H121   H     0.25897   0.33279   0.40632   0.00000  Uiso   1.00
H122   H     0.59770   0.79618   0.26099   0.00000  Uiso   1.00
H123   H     0.33823   0.74094   0.42027   0.00000  Uiso   1.00
H124   H     0.16502   0.61987   0.41893   0.00000  Uiso   1.00
H125   H     0.34876   0.91977   0.45943   0.00000  Uiso   1.00
H126   H     0.50939   0.66529   0.39051   0.00000  Uiso   1.00
H127   H     0.95962   0.51395   0.40476   0.00000  Uiso   1.00
H128   H     0.34708   0.14631   0.49014   0.00000  Uiso   1.00
H129   H     0.68580   0.60969   0.34481   0.00000  Uiso   1.00
O130   O     0.79975   0.53150   0.36021   0.00000  Uiso   1.00
O131   O     0.30810   0.36114   0.47222   0.00000  Uiso   1.00
O132   O     0.75249   0.65711   0.28156   0.00000  Uiso   1.00
N133   N     0.91603   0.67314   0.34084   0.00000  Uiso   1.00
N134   N     0.27826   0.26436   0.42067   0.00000  Uiso   1.00
N135   N     0.59496   0.76270   0.28480   0.00000  Uiso   1.00
N136   N     0.96344   0.57279   0.38594   0.00000  Uiso   1.00
N137   N     0.32567   0.16401   0.46577   0.00000  Uiso   1.00
N138   N     0.64237   0.66235   0.32991   0.00000  Uiso   1.00
C139   C     0.92921   0.41002   0.65931   0.00000  Uiso   1.00
C140   C     0.01213   0.32050   0.64942   0.00000  Uiso   1.00
C141   C     0.10823   0.30124   0.66621   0.00000  Uiso   1.00
C142   C     0.17311   0.21540   0.65318   0.00000  Uiso   1.00
C143   C     0.30649   0.08621   0.64219   0.00000  Uiso   1.00
C144   C     0.91232   0.48335   0.62735   0.00000  Uiso   1.00
C145   C     0.92449   0.60102   0.62559   0.00000  Uiso   1.00
C146   C     0.90532   0.65225   0.59397   0.00000  Uiso   1.00
C147   C     0.88367   0.77590   0.54873   0.00000  Uiso   1.00
C148   C     0.82503   0.34521   0.66483   0.00000  Uiso   1.00
C149   C     0.76378   0.34674   0.69458   0.00000  Uiso   1.00
C150   C     0.67110   0.28168   0.69452   0.00000  Uiso   1.00
C151   C     0.51392   0.19084   0.70748   0.00000  Uiso   1.00
C152   C     0.87353   0.29181   0.60630   0.00000  Uiso   1.00
C153   C     0.98189   0.25630   0.62063   0.00000  Uiso   1.00
C154   C     0.04663   0.17046   0.60757   0.00000  Uiso   1.00
C155   C     0.14281   0.15107   0.62433   0.00000  Uiso   1.00
C156   C     0.88208   0.41915   0.59856   0.00000  Uiso   1.00
C157   C     0.86288   0.47023   0.56694   0.00000  Uiso   1.00
C158   C     0.87502   0.58793   0.56513   0.00000  Uiso   1.00
C159   C     0.79478   0.28100   0.63604   0.00000  Uiso   1.00
C160   C     0.70218   0.21594   0.63594   0.00000  Uiso   1.00
C161   C     0.64081   0.21736   0.66568   0.00000  Uiso   1.00
H162   H     0.95276   0.46001   0.68173   0.00000  Uiso   1.00
H163   H     0.13162   0.35096   0.68849   0.00000  Uiso   1.00
H164   H     0.94788   0.65068   0.64787   0.00000  Uiso   1.00
H165   H     0.78721   0.39643   0.71686   0.00000  Uiso   1.00
H166   H     0.31659   0.20176   0.68329   0.00000  Uiso   1.00
H167   H     0.92915   0.83375   0.59764   0.00000  Uiso   1.00
H168   H     0.59033   0.29762   0.74311   0.00000  Uiso   1.00
H169   H     0.84998   0.24183   0.58389   0.00000  Uiso   1.00
H170   H     0.02320   0.12079   0.58528   0.00000  Uiso   1.00
H171   H     0.83948   0.42052   0.54467   0.00000  Uiso   1.00
H172   H     0.67880   0.16627   0.61365   0.00000  Uiso   1.00
H173   H     0.22861   0.01495   0.59952   0.00000  Uiso   1.00
H174   H     0.84116   0.64694   0.51388   0.00000  Uiso   1.00
H175   H     0.50234   0.11081   0.65935   0.00000  Uiso   1.00
O176   O     0.38842   0.03269   0.64408   0.00000  Uiso   1.00
O177   O     0.88009   0.86184   0.53172   0.00000  Uiso   1.00
O178   O     0.43557   0.15845   0.72257   0.00000  Uiso   1.00
N179   N     0.27210   0.17439   0.66338   0.00000  Uiso   1.00
N180   N     0.90988   0.76526   0.58331   0.00000  Uiso   1.00
N181   N     0.59310   0.26405   0.71931   0.00000  Uiso   1.00
N182   N     0.22476   0.07387   0.61831   0.00000  Uiso   1.00
N183   N     0.86254   0.66474   0.53824   0.00000  Uiso   1.00
N184   N     0.54576   0.16353   0.67424   0.00000  Uiso   1.00
C185   C     0.24111   0.90884   0.84479   0.00000  Uiso   1.00
C186   C     0.32400   0.81935   0.85472   0.00000  Uiso   1.00
C187   C     0.42012   0.80001   0.83795   0.00000  Uiso   1.00
C188   C     0.48497   0.71420   0.85102   0.00000  Uiso   1.00
C189   C     0.61832   0.58503   0.86207   0.00000  Uiso   1.00
C190   C     0.22419   0.98229   0.87673   0.00000  Uiso   1.00
C191   C     0.23637   0.09996   0.87845   0.00000  Uiso   1.00
C192   C     0.21717   0.15132   0.91005   0.00000  Uiso   1.00
C193   C     0.19548   0.27514   0.95525   0.00000  Uiso   1.00
C194   C     0.13692   0.84402   0.83928   0.00000  Uiso   1.00
C195   C     0.07570   0.84545   0.80952   0.00000  Uiso   1.00
C196   C     0.98302   0.78041   0.80960   0.00000  Uiso   1.00
C197   C     0.82583   0.68954   0.79666   0.00000  Uiso   1.00
C198   C     0.18535   0.79084   0.89783   0.00000  Uiso   1.00
C199   C     0.29372   0.75526   0.88353   0.00000  Uiso   1.00
C200   C     0.35843   0.66945   0.89663   0.00000  Uiso   1.00
C201   C     0.45463   0.64999   0.87988   0.00000  Uiso   1.00
C202   C     0.19391   0.91820   0.90554   0.00000  Uiso   1.00
C203   C     0.17468   0.96940   0.93714   0.00000  Uiso   1.00
C204   C     0.18684   0.08711   0.93891   0.00000  Uiso   1.00
C205   C     0.10663   0.77992   0.86809   0.00000  Uiso   1.00
C206   C     0.01402   0.71488   0.86821   0.00000  Uiso   1.00
C207   C     0.95268   0.71620   0.83846   0.00000  Uiso   1.00
H208   H     0.26468   0.95875   0.82237   0.00000  Uiso   1.00
H209   H     0.44353   0.84964   0.81566   0.00000  Uiso   1.00
H210   H     0.25980   0.14954   0.85615   0.00000  Uiso   1.00
H211   H     0.09916   0.89506   0.78724   0.00000  Uiso   1.00
H212   H     0.62848   0.70043   0.82094   0.00000  Uiso   1.00
H213   H     0.24103   0.33279   0.90632   0.00000  Uiso   1.00
H214   H     0.90230   0.79618   0.76099   0.00000  Uiso   1.00
H215   H     0.16177   0.74094   0.92027   0.00000  Uiso   1.00
H216   H     0.33498   0.61987   0.91893   0.00000  Uiso   1.00
H217   H     0.15124   0.91977   0.95943   0.00000  Uiso   1.00
H218   H     0.99061   0.66529   0.89051   0.00000  Uiso   1.00
H219   H     0.54038   0.51395   0.90476   0.00000  Uiso   1.00
H220   H     0.15292   0.14631   0.99014   0.00000  Uiso   1.00
H221   H     0.81420   0.60969   0.84481   0.00000  Uiso   1.00
O222   O     0.70025   0.53150   0.86021   0.00000  Uiso   1.00
O223   O     0.19190   0.36114   0.97222   0.00000  Uiso   1.00
O224   O     0.74751   0.65711   0.78156   0.00000  Uiso   1.00
N225   N     0.58397   0.67314   0.84084   0.00000  Uiso   1.00
N226   N     0.22174   0.26436   0.92067   0.00000  Uiso   1.00
N227   N     0.90504   0.76270   0.78480   0.00000  Uiso   1.00
N228   N     0.53656   0.57279   0.88594   0.00000  Uiso   1.00
N229   N     0.17433   0.16401   0.96577   0.00000  Uiso   1.00
N230   N     0.85763   0.66235   0.82991   0.00000  Uiso   1.00
C231   C     0.57079   0.41002   0.15931   0.00000  Uiso   1.00
C232   C     0.48787   0.32050   0.14942   0.00000  Uiso   1.00
C233   C     0.39177   0.30124   0.16621   0.00000  Uiso   1.00
C234   C     0.32689   0.21540   0.15318   0.00000  Uiso   1.00
C235   C     0.19351   0.08621   0.14219   0.00000  Uiso   1.00
C236   C     0.58768   0.48335   0.12735   0.00000  Uiso   1.00
C237   C     0.57551   0.60102   0.12559   0.00000  Uiso   1.00
C238   C     0.59468   0.65225   0.09397   0.00000  Uiso   1.00
C239   C     0.61633   0.77590   0.04873   0.00000  Uiso   1.00
C240   C     0.67497   0.34521   0.16483   0.00000  Uiso   1.00
C241   C     0.73622   0.34674   0.19458   0.00000  Uiso   1.00
C242   C     0.82890   0.28168   0.19452   0.00000  Uiso   1.00
C243   C     0.98608   0.19084   0.20748   0.00000  Uiso   1.00
C244   C     0.62647   0.29181   0.10630   0.00000  Uiso   1.00
C245   C     0.51811   0.25630   0.12063   0.00000  Uiso   1.00
C246   C     0.45337   0.17046   0.10757   0.00000  Uiso   1.00
C247   C     0.35719   0.15107   0.12433   0.00000  Uiso   1.00
C248   C     0.61792   0.41915   0.09856   0.00000  Uiso   1.00
C249   C     0.63712   0.47023   0.06694   0.00000  Uiso   1.00
C250   C     0.62498   0.58793   0.06513   0.00000  Uiso   1.00
C251   C     0.70522   0.28100   0.13604   0.00000  Uiso   1.00
C252   C     0.79782   0.21594   0.13594   0.00000  Uiso   1.00
C253   C     0.85919   0.21736   0.16568   0.00000  Uiso   1.00
H254   H     0.54724   0.46001   0.18173   0.00000  Uiso   1.00
H255   H     0.36838   0.35096   0.18849   0.00000  Uiso   1.00
H256   H     0.55212   0.65068   0.14787   0.00000  Uiso   1.00
H257   H     0.71279   0.39643   0.21686   0.00000  Uiso   1.00
H258   H     0.18341   0.20176   0.18329   0.00000  Uiso   1.00
H259   H     0.57085   0.83375   0.09764   0.00000  Uiso   1.00
H260   H     0.90967   0.29762   0.24311   0.00000  Uiso   1.00
H261   H     0.65002   0.24183   0.08389   0.00000  Uiso   1.00
H262   H     0.47680   0.12079   0.08528   0.00000  Uiso   1.00
H263   H     0.66052   0.42052   0.04467   0.00000  Uiso   1.00
H264   H     0.82120   0.16627   0.11365   0.00000  Uiso   1.00
H265   H     0.27139   0.01495   0.09952   0.00000  Uiso   1.00
H266   H     0.65884   0.64694   0.01388   0.00000  Uiso   1.00
H267   H     0.99766   0.11081   0.15935   0.00000  Uiso   1.00
O268   O     0.11158   0.03269   0.14408   0.00000  Uiso   1.00
O269   O     0.61991   0.86184   0.03172   0.00000  Uiso   1.00
O270   O     0.06443   0.15845   0.22257   0.00000  Uiso   1.00
N271   N     0.22790   0.17439   0.16338   0.00000  Uiso   1.00
N272   N     0.59012   0.76526   0.08331   0.00000  Uiso   1.00
N273   N     0.90690   0.26405   0.21931   0.00000  Uiso   1.00
N274   N     0.27524   0.07387   0.11831   0.00000  Uiso   1.00
N275   N     0.63746   0.66474   0.03824   0.00000  Uiso   1.00
N276   N     0.95424   0.16353   0.17424   0.00000  Uiso   1.00
C277   C     0.75889   0.09116   0.34479   0.00000  Uiso   1.00
C278   C     0.67600   0.18065   0.35472   0.00000  Uiso   1.00
C279   C     0.57988   0.19999   0.33795   0.00000  Uiso   1.00
C280   C     0.51503   0.28580   0.35102   0.00000  Uiso   1.00
C281   C     0.38168   0.41497   0.36207   0.00000  Uiso   1.00
C282   C     0.77581   0.01771   0.37673   0.00000  Uiso   1.00
C283   C     0.76363   0.90004   0.37845   0.00000  Uiso   1.00
C284   C     0.78283   0.84868   0.41005   0.00000  Uiso   1.00
C285   C     0.80452   0.72486   0.45525   0.00000  Uiso   1.00
C286   C     0.86308   0.15598   0.33928   0.00000  Uiso   1.00
C287   C     0.92430   0.15455   0.30952   0.00000  Uiso   1.00
C288   C     0.01698   0.21959   0.30960   0.00000  Uiso   1.00
C289   C     0.17417   0.31046   0.29666   0.00000  Uiso   1.00
C290   C     0.81465   0.20916   0.39783   0.00000  Uiso   1.00
C291   C     0.70628   0.24474   0.38353   0.00000  Uiso   1.00
C292   C     0.64157   0.33055   0.39663   0.00000  Uiso   1.00
C293   C     0.54537   0.35001   0.37988   0.00000  Uiso   1.00
C294   C     0.80609   0.08180   0.40554   0.00000  Uiso   1.00
C295   C     0.82532   0.03060   0.43714   0.00000  Uiso   1.00
C296   C     0.81316   0.91289   0.43891   0.00000  Uiso   1.00
C297   C     0.89337   0.22008   0.36809   0.00000  Uiso   1.00
C298   C     0.98598   0.28512   0.36821   0.00000  Uiso   1.00
C299   C     0.04732   0.28380   0.33846   0.00000  Uiso   1.00
H300   H     0.73532   0.04125   0.32237   0.00000  Uiso   1.00
H301   H     0.55647   0.15036   0.31566   0.00000  Uiso   1.00
H302   H     0.74020   0.85046   0.35615   0.00000  Uiso   1.00
H303   H     0.90084   0.10494   0.28724   0.00000  Uiso   1.00
H304   H     0.37152   0.29957   0.32094   0.00000  Uiso   1.00
H305   H     0.75897   0.66721   0.40632   0.00000  Uiso   1.00
H306   H     0.09770   0.20382   0.26099   0.00000  Uiso   1.00
H307   H     0.83823   0.25906   0.42027   0.00000  Uiso   1.00
H308   H     0.66502   0.38013   0.41893   0.00000  Uiso   1.00
H309   H     0.84876   0.08023   0.45943   0.00000  Uiso   1.00
H310   H     0.00939   0.33471   0.39051   0.00000  Uiso   1.00
H311   H     0.45962   0.48605   0.40476   0.00000  Uiso   1.00
H312   H     0.84708   0.85369   0.49014   0.00000  Uiso   1.00
H313   H     0.18580   0.39031   0.34481   0.00000  Uiso   1.00
O314   O     0.29975   0.46850   0.36021   0.00000  Uiso   1.00
O315   O     0.80810   0.63886   0.47222   0.00000  Uiso   1.00
O316   O     0.25249   0.34289   0.28156   0.00000  Uiso   1.00
N317   N     0.41603   0.32686   0.34084   0.00000  Uiso   1.00
N318   N     0.77826   0.73564   0.42067   0.00000  Uiso   1.00
N319   N     0.09496   0.23730   0.28480   0.00000  Uiso   1.00
N320   N     0.46344   0.42721   0.38594   0.00000  Uiso   1.00
N321   N     0.82567   0.83599   0.46577   0.00000  Uiso   1.00
N322   N     0.14237   0.33765   0.32991   0.00000  Uiso   1.00
C323   C     0.42921   0.58998   0.65931   0.00000  Uiso   1.00
C324   C     0.51213   0.67950   0.64942   0.00000  Uiso   1.00
C325   C     0.60823   0.69876   0.66621   0.00000  Uiso   1.00
C326   C     0.67311   0.78460   0.65318   0.00000  Uiso   1.00
C327   C     0.80649   0.91379   0.64219   0.00000  Uiso   1.00
C328   C     0.41232   0.51665   0.62735   0.00000  Uiso   1.00
C329   C     0.42449   0.39898   0.62559   0.00000  Uiso   1.00
C330   C     0.40532   0.34775   0.59397   0.00000  Uiso   1.00
C331   C     0.38367   0.22410   0.54873   0.00000  Uiso   1.00
C332   C     0.32503   0.65479   0.66483   0.00000  Uiso   1.00
C333   C     0.26378   0.65326   0.69458   0.00000  Uiso   1.00
C334   C     0.17110   0.71832   0.69452   0.00000  Uiso   1.00
C335   C     0.01392   0.80916   0.70748   0.00000  Uiso   1.00
C336   C     0.37353   0.70819   0.60630   0.00000  Uiso   1.00
C337   C     0.48189   0.74370   0.62063   0.00000  Uiso   1.00
C338   C     0.54663   0.82954   0.60757   0.00000  Uiso   1.00
C339   C     0.64281   0.84893   0.62433   0.00000  Uiso   1.00
C340   C     0.38208   0.58085   0.59856   0.00000  Uiso   1.00
C341   C     0.36288   0.52977   0.56694   0.00000  Uiso   1.00
C342   C     0.37502   0.41207   0.56513   0.00000  Uiso   1.00
C343   C     0.29478   0.71900   0.63604   0.00000  Uiso   1.00
C344   C     0.20218   0.78406   0.63594   0.00000  Uiso   1.00
C345   C     0.14081   0.78264   0.66568   0.00000  Uiso   1.00
H346   H     0.45276   0.53999   0.68173   0.00000  Uiso   1.00
H347   H     0.63162   0.64904   0.68849   0.00000  Uiso   1.00
H348   H     0.44788   0.34932   0.64787   0.00000  Uiso   1.00
H349   H     0.28721   0.60357   0.71686   0.00000  Uiso   1.00
H350   H     0.81659   0.79824   0.68329   0.00000  Uiso   1.00
H351   H     0.42915   0.16625   0.59764   0.00000  Uiso   1.00
H352   H     0.09033   0.70238   0.74311   0.00000  Uiso   1.00
H353   H     0.34998   0.75817   0.58389   0.00000  Uiso   1.00
H354   H     0.52320   0.87921   0.58528   0.00000  Uiso   1.00
H355   H     0.33948   0.57948   0.54467   0.00000  Uiso   1.00
H356   H     0.17880   0.83373   0.61365   0.00000  Uiso   1.00
H357   H     0.72861   0.98505   0.59952   0.00000  Uiso   1.00
H358   H     0.34116   0.35306   0.51388   0.00000  Uiso   1.00
H359   H     0.00234   0.88919   0.65935   0.00000  Uiso   1.00
O360   O     0.88842   0.96731   0.64408   0.00000  Uiso   1.00
O361   O     0.38009   0.13816   0.53172   0.00000  Uiso   1.00
O362   O     0.93557   0.84155   0.72257   0.00000  Uiso   1.00
N363   N     0.77210   0.82561   0.66338   0.00000  Uiso   1.00
N364   N     0.40988   0.23474   0.58331   0.00000  Uiso   1.00
N365   N     0.09310   0.73595   0.71931   0.00000  Uiso   1.00
N366   N     0.72476   0.92613   0.61831   0.00000  Uiso   1.00
N367   N     0.36254   0.33526   0.53824   0.00000  Uiso   1.00
N368   N     0.04576   0.83647   0.67424   0.00000  Uiso   1.00
