data_job_03348
_audit_creation_date              2018-12-19
_audit_creation_method            'Materials Studio'
_symmetry_space_group_name_H-M    'P1'
_symmetry_Int_Tables_number       1
_symmetry_cell_setting            triclinic
loop_
_symmetry_equiv_pos_as_xyz
  x,y,z
_cell_length_a                    29.1048
_cell_length_b                    15.9716
_cell_length_c                    20.3731
_cell_angle_alpha                 90.0000
_cell_angle_beta                  45.6639
_cell_angle_gamma                 90.0000
loop_
_atom_site_label
_atom_site_type_symbol
_atom_site_fract_x
_atom_site_fract_y
_atom_site_fract_z
_atom_site_U_iso_or_equiv
_atom_site_adp_type
_atom_site_occupancy
C1     C     0.87273   0.46030   0.67084   0.00000  Uiso   1.00
C2     C     0.81802   0.51130   0.75511   0.00000  Uiso   1.00
C3     C     0.82432   0.57231   0.79689   0.00000  Uiso   1.00
C4     C     0.76845   0.61184   0.87329   0.00000  Uiso   1.00
C5     C     0.69262   0.69417   0.99909   0.00000  Uiso   1.00
C6     C     0.85513   0.36864   0.69921   0.00000  Uiso   1.00
C7     C     0.89263   0.30971   0.69399   0.00000  Uiso   1.00
C8     C     0.86800   0.22915   0.72332   0.00000  Uiso   1.00
C9     C     0.84980   0.08999   0.76228   0.00000  Uiso   1.00
C10    C     0.86938   0.47470   0.60028   0.00000  Uiso   1.00
C11    C     0.91887   0.50491   0.51185   0.00000  Uiso   1.00
C12    C     0.90625   0.51362   0.45788   0.00000  Uiso   1.00
C13    C     0.91018   0.53912   0.34322   0.00000  Uiso   1.00
C14    C     0.76232   0.42200   0.73222   0.00000  Uiso   1.00
C15    C     0.75805   0.49050   0.78844   0.00000  Uiso   1.00
C16    C     0.70216   0.52995   0.86480   0.00000  Uiso   1.00
C17    C     0.70837   0.59101   0.90669   0.00000  Uiso   1.00
C18    C     0.79516   0.34784   0.73255   0.00000  Uiso   1.00
C19    C     0.77047   0.26735   0.76189   0.00000  Uiso   1.00
C20    C     0.80793   0.20832   0.75672   0.00000  Uiso   1.00
C21    C     0.80941   0.45390   0.63361   0.00000  Uiso   1.00
C22    C     0.79671   0.46255   0.57976   0.00000  Uiso   1.00
C23    C     0.84617   0.49278   0.49128   0.00000  Uiso   1.00
H24    H     0.91942   0.47648   0.64489   0.00000  Uiso   1.00
H25    H     0.87074   0.58838   0.77108   0.00000  Uiso   1.00
H26    H     0.93904   0.32583   0.66818   0.00000  Uiso   1.00
H27    H     0.96527   0.52100   0.48608   0.00000  Uiso   1.00
H28    H     0.79031   0.70326   0.92570   0.00000  Uiso   1.00
H29    H     0.93434   0.14963   0.70871   0.00000  Uiso   1.00
H30    H     0.98967   0.56119   0.32471   0.00000  Uiso   1.00
H31    H     0.71563   0.40581   0.75817   0.00000  Uiso   1.00
H32    H     0.65576   0.51384   0.89058   0.00000  Uiso   1.00
H33    H     0.72407   0.25128   0.78768   0.00000  Uiso   1.00
H34    H     0.75030   0.44645   0.60558   0.00000  Uiso   1.00
H35    H     0.61583   0.64275   0.02270   0.00000  Uiso   1.00
H36    H     0.75986   0.08912   0.80570   0.00000  Uiso   1.00
H37    H     0.81518   0.50068   0.42170   0.00000  Uiso   1.00
O38    O     0.66736   0.74532   0.05927   0.00000  Uiso   1.00
O39    O     0.85633   0.01899   0.77456   0.00000  Uiso   1.00
O40    O     0.92891   0.55894   0.27077   0.00000  Uiso   1.00
N41    N     0.75746   0.67420   0.93035   0.00000  Uiso   1.00
N42    N     0.89212   0.15660   0.72748   0.00000  Uiso   1.00
N43    N     0.94385   0.54135   0.36847   0.00000  Uiso   1.00
N44    N     0.66358   0.64164   0.98254   0.00000  Uiso   1.00
N45    N     0.79823   0.12404   0.77967   0.00000  Uiso   1.00
N46    N     0.84996   0.50879   0.42066   0.00000  Uiso   1.00
C47    C     0.37273   0.96030   0.67084   0.00000  Uiso   1.00
C48    C     0.31802   0.01130   0.75511   0.00000  Uiso   1.00
C49    C     0.32432   0.07231   0.79689   0.00000  Uiso   1.00
C50    C     0.26845   0.11184   0.87329   0.00000  Uiso   1.00
C51    C     0.19262   0.19417   0.99909   0.00000  Uiso   1.00
C52    C     0.35513   0.86864   0.69921   0.00000  Uiso   1.00
C53    C     0.39263   0.80971   0.69399   0.00000  Uiso   1.00
C54    C     0.36800   0.72915   0.72332   0.00000  Uiso   1.00
C55    C     0.34980   0.58999   0.76228   0.00000  Uiso   1.00
C56    C     0.36938   0.97470   0.60028   0.00000  Uiso   1.00
C57    C     0.41887   0.00491   0.51185   0.00000  Uiso   1.00
C58    C     0.40625   0.01362   0.45788   0.00000  Uiso   1.00
C59    C     0.41018   0.03912   0.34322   0.00000  Uiso   1.00
C60    C     0.26232   0.92200   0.73222   0.00000  Uiso   1.00
C61    C     0.25805   0.99050   0.78844   0.00000  Uiso   1.00
C62    C     0.20216   0.02995   0.86480   0.00000  Uiso   1.00
C63    C     0.20837   0.09101   0.90669   0.00000  Uiso   1.00
C64    C     0.29516   0.84784   0.73255   0.00000  Uiso   1.00
C65    C     0.27047   0.76735   0.76189   0.00000  Uiso   1.00
C66    C     0.30793   0.70832   0.75672   0.00000  Uiso   1.00
C67    C     0.30941   0.95390   0.63361   0.00000  Uiso   1.00
C68    C     0.29671   0.96255   0.57976   0.00000  Uiso   1.00
C69    C     0.34617   0.99278   0.49128   0.00000  Uiso   1.00
H70    H     0.41942   0.97648   0.64489   0.00000  Uiso   1.00
H71    H     0.37074   0.08838   0.77108   0.00000  Uiso   1.00
H72    H     0.43904   0.82583   0.66818   0.00000  Uiso   1.00
H73    H     0.46527   0.02100   0.48608   0.00000  Uiso   1.00
H74    H     0.29031   0.20326   0.92570   0.00000  Uiso   1.00
H75    H     0.43434   0.64963   0.70871   0.00000  Uiso   1.00
H76    H     0.48967   0.06119   0.32471   0.00000  Uiso   1.00
H77    H     0.21563   0.90581   0.75817   0.00000  Uiso   1.00
H78    H     0.15576   0.01384   0.89058   0.00000  Uiso   1.00
H79    H     0.22407   0.75128   0.78768   0.00000  Uiso   1.00
H80    H     0.25030   0.94645   0.60558   0.00000  Uiso   1.00
H81    H     0.11583   0.14275   0.02270   0.00000  Uiso   1.00
H82    H     0.25986   0.58912   0.80570   0.00000  Uiso   1.00
H83    H     0.31518   0.00068   0.42170   0.00000  Uiso   1.00
O84    O     0.16736   0.24532   0.05927   0.00000  Uiso   1.00
O85    O     0.35633   0.51899   0.77456   0.00000  Uiso   1.00
O86    O     0.42891   0.05894   0.27077   0.00000  Uiso   1.00
N87    N     0.25746   0.17420   0.93035   0.00000  Uiso   1.00
N88    N     0.39212   0.65660   0.72748   0.00000  Uiso   1.00
N89    N     0.44385   0.04135   0.36847   0.00000  Uiso   1.00
N90    N     0.16358   0.14164   0.98254   0.00000  Uiso   1.00
N91    N     0.29823   0.62404   0.77967   0.00000  Uiso   1.00
N92    N     0.34996   0.00879   0.42066   0.00000  Uiso   1.00
C93    C     0.12727   0.46030   0.82916   0.00000  Uiso   1.00
C94    C     0.18198   0.51130   0.74489   0.00000  Uiso   1.00
C95    C     0.17568   0.57231   0.70311   0.00000  Uiso   1.00
C96    C     0.23155   0.61184   0.62671   0.00000  Uiso   1.00
C97    C     0.30738   0.69417   0.50091   0.00000  Uiso   1.00
C98    C     0.14487   0.36864   0.80079   0.00000  Uiso   1.00
C99    C     0.10737   0.30971   0.80601   0.00000  Uiso   1.00
C100   C     0.13200   0.22915   0.77668   0.00000  Uiso   1.00
C101   C     0.15020   0.08999   0.73772   0.00000  Uiso   1.00
C102   C     0.13062   0.47470   0.89972   0.00000  Uiso   1.00
C103   C     0.08113   0.50491   0.98815   0.00000  Uiso   1.00
C104   C     0.09375   0.51362   0.04212   0.00000  Uiso   1.00
C105   C     0.08982   0.53912   0.15678   0.00000  Uiso   1.00
C106   C     0.23768   0.42200   0.76778   0.00000  Uiso   1.00
C107   C     0.24195   0.49050   0.71156   0.00000  Uiso   1.00
C108   C     0.29784   0.52995   0.63520   0.00000  Uiso   1.00
C109   C     0.29163   0.59101   0.59331   0.00000  Uiso   1.00
C110   C     0.20484   0.34784   0.76745   0.00000  Uiso   1.00
C111   C     0.22953   0.26735   0.73811   0.00000  Uiso   1.00
C112   C     0.19207   0.20832   0.74328   0.00000  Uiso   1.00
C113   C     0.19059   0.45390   0.86639   0.00000  Uiso   1.00
C114   C     0.20329   0.46255   0.92024   0.00000  Uiso   1.00
C115   C     0.15383   0.49278   0.00872   0.00000  Uiso   1.00
H116   H     0.08058   0.47648   0.85511   0.00000  Uiso   1.00
H117   H     0.12926   0.58838   0.72892   0.00000  Uiso   1.00
H118   H     0.06096   0.32583   0.83182   0.00000  Uiso   1.00
H119   H     0.03473   0.52100   0.01392   0.00000  Uiso   1.00
H120   H     0.20969   0.70326   0.57430   0.00000  Uiso   1.00
H121   H     0.06566   0.14963   0.79129   0.00000  Uiso   1.00
H122   H     0.01033   0.56119   0.17529   0.00000  Uiso   1.00
H123   H     0.28437   0.40581   0.74183   0.00000  Uiso   1.00
H124   H     0.34424   0.51384   0.60942   0.00000  Uiso   1.00
H125   H     0.27593   0.25128   0.71232   0.00000  Uiso   1.00
H126   H     0.24970   0.44645   0.89442   0.00000  Uiso   1.00
H127   H     0.38417   0.64275   0.47730   0.00000  Uiso   1.00
H128   H     0.24014   0.08912   0.69430   0.00000  Uiso   1.00
H129   H     0.18482   0.50068   0.07830   0.00000  Uiso   1.00
O130   O     0.33264   0.74532   0.44073   0.00000  Uiso   1.00
O131   O     0.14367   0.01899   0.72544   0.00000  Uiso   1.00
O132   O     0.07109   0.55894   0.22923   0.00000  Uiso   1.00
N133   N     0.24254   0.67420   0.56965   0.00000  Uiso   1.00
N134   N     0.10788   0.15660   0.77252   0.00000  Uiso   1.00
N135   N     0.05615   0.54135   0.13153   0.00000  Uiso   1.00
N136   N     0.33642   0.64164   0.51746   0.00000  Uiso   1.00
N137   N     0.20177   0.12404   0.72033   0.00000  Uiso   1.00
N138   N     0.15004   0.50879   0.07934   0.00000  Uiso   1.00
C139   C     0.62727   0.96030   0.82916   0.00000  Uiso   1.00
C140   C     0.68198   0.01130   0.74489   0.00000  Uiso   1.00
C141   C     0.67568   0.07231   0.70311   0.00000  Uiso   1.00
C142   C     0.73155   0.11184   0.62671   0.00000  Uiso   1.00
C143   C     0.80738   0.19417   0.50091   0.00000  Uiso   1.00
C144   C     0.64487   0.86864   0.80079   0.00000  Uiso   1.00
C145   C     0.60737   0.80971   0.80601   0.00000  Uiso   1.00
C146   C     0.63200   0.72915   0.77668   0.00000  Uiso   1.00
C147   C     0.65020   0.58999   0.73772   0.00000  Uiso   1.00
C148   C     0.63062   0.97470   0.89972   0.00000  Uiso   1.00
C149   C     0.58113   0.00491   0.98815   0.00000  Uiso   1.00
C150   C     0.59375   0.01362   0.04212   0.00000  Uiso   1.00
C151   C     0.58982   0.03912   0.15678   0.00000  Uiso   1.00
C152   C     0.73768   0.92200   0.76778   0.00000  Uiso   1.00
C153   C     0.74195   0.99050   0.71156   0.00000  Uiso   1.00
C154   C     0.79784   0.02995   0.63520   0.00000  Uiso   1.00
C155   C     0.79163   0.09101   0.59331   0.00000  Uiso   1.00
C156   C     0.70484   0.84784   0.76745   0.00000  Uiso   1.00
C157   C     0.72953   0.76735   0.73811   0.00000  Uiso   1.00
C158   C     0.69207   0.70832   0.74328   0.00000  Uiso   1.00
C159   C     0.69059   0.95390   0.86639   0.00000  Uiso   1.00
C160   C     0.70329   0.96255   0.92024   0.00000  Uiso   1.00
C161   C     0.65383   0.99278   0.00872   0.00000  Uiso   1.00
H162   H     0.58058   0.97648   0.85511   0.00000  Uiso   1.00
H163   H     0.62926   0.08838   0.72892   0.00000  Uiso   1.00
H164   H     0.56096   0.82583   0.83182   0.00000  Uiso   1.00
H165   H     0.53473   0.02100   0.01392   0.00000  Uiso   1.00
H166   H     0.70969   0.20326   0.57430   0.00000  Uiso   1.00
H167   H     0.56566   0.64963   0.79129   0.00000  Uiso   1.00
H168   H     0.51033   0.06119   0.17529   0.00000  Uiso   1.00
H169   H     0.78437   0.90581   0.74183   0.00000  Uiso   1.00
H170   H     0.84424   0.01384   0.60942   0.00000  Uiso   1.00
H171   H     0.77593   0.75128   0.71232   0.00000  Uiso   1.00
H172   H     0.74970   0.94645   0.89442   0.00000  Uiso   1.00
H173   H     0.88417   0.14275   0.47730   0.00000  Uiso   1.00
H174   H     0.74014   0.58912   0.69430   0.00000  Uiso   1.00
H175   H     0.68482   0.00068   0.07830   0.00000  Uiso   1.00
O176   O     0.83264   0.24532   0.44073   0.00000  Uiso   1.00
O177   O     0.64367   0.51899   0.72544   0.00000  Uiso   1.00
O178   O     0.57109   0.05894   0.22923   0.00000  Uiso   1.00
N179   N     0.74254   0.17420   0.56965   0.00000  Uiso   1.00
N180   N     0.60788   0.65660   0.77252   0.00000  Uiso   1.00
N181   N     0.55615   0.04135   0.13153   0.00000  Uiso   1.00
N182   N     0.83642   0.14164   0.51746   0.00000  Uiso   1.00
N183   N     0.70177   0.62404   0.72033   0.00000  Uiso   1.00
N184   N     0.65004   0.00879   0.07934   0.00000  Uiso   1.00
C185   C     0.12727   0.53970   0.32916   0.00000  Uiso   1.00
C186   C     0.18198   0.48870   0.24489   0.00000  Uiso   1.00
C187   C     0.17568   0.42769   0.20311   0.00000  Uiso   1.00
C188   C     0.23155   0.38816   0.12671   0.00000  Uiso   1.00
C189   C     0.30738   0.30583   0.00091   0.00000  Uiso   1.00
C190   C     0.14487   0.63136   0.30079   0.00000  Uiso   1.00
C191   C     0.10737   0.69029   0.30601   0.00000  Uiso   1.00
C192   C     0.13200   0.77085   0.27668   0.00000  Uiso   1.00
C193   C     0.15020   0.91001   0.23772   0.00000  Uiso   1.00
C194   C     0.13062   0.52530   0.39972   0.00000  Uiso   1.00
C195   C     0.08113   0.49509   0.48815   0.00000  Uiso   1.00
C196   C     0.09375   0.48638   0.54212   0.00000  Uiso   1.00
C197   C     0.08982   0.46088   0.65678   0.00000  Uiso   1.00
C198   C     0.23768   0.57800   0.26778   0.00000  Uiso   1.00
C199   C     0.24195   0.50950   0.21156   0.00000  Uiso   1.00
C200   C     0.29784   0.47005   0.13520   0.00000  Uiso   1.00
C201   C     0.29163   0.40899   0.09331   0.00000  Uiso   1.00
C202   C     0.20484   0.65216   0.26745   0.00000  Uiso   1.00
C203   C     0.22953   0.73265   0.23811   0.00000  Uiso   1.00
C204   C     0.19207   0.79168   0.24328   0.00000  Uiso   1.00
C205   C     0.19059   0.54610   0.36639   0.00000  Uiso   1.00
C206   C     0.20329   0.53745   0.42024   0.00000  Uiso   1.00
C207   C     0.15383   0.50722   0.50872   0.00000  Uiso   1.00
H208   H     0.08058   0.52352   0.35511   0.00000  Uiso   1.00
H209   H     0.12926   0.41162   0.22892   0.00000  Uiso   1.00
H210   H     0.06096   0.67417   0.33182   0.00000  Uiso   1.00
H211   H     0.03473   0.47900   0.51392   0.00000  Uiso   1.00
H212   H     0.20969   0.29674   0.07430   0.00000  Uiso   1.00
H213   H     0.06566   0.85037   0.29129   0.00000  Uiso   1.00
H214   H     0.01033   0.43881   0.67529   0.00000  Uiso   1.00
H215   H     0.28437   0.59419   0.24183   0.00000  Uiso   1.00
H216   H     0.34424   0.48616   0.10942   0.00000  Uiso   1.00
H217   H     0.27593   0.74872   0.21232   0.00000  Uiso   1.00
H218   H     0.24970   0.55355   0.39442   0.00000  Uiso   1.00
H219   H     0.38417   0.35725   0.97730   0.00000  Uiso   1.00
H220   H     0.24014   0.91088   0.19430   0.00000  Uiso   1.00
H221   H     0.18482   0.49932   0.57830   0.00000  Uiso   1.00
O222   O     0.33264   0.25468   0.94073   0.00000  Uiso   1.00
O223   O     0.14367   0.98101   0.22544   0.00000  Uiso   1.00
O224   O     0.07109   0.44106   0.72923   0.00000  Uiso   1.00
N225   N     0.24254   0.32580   0.06965   0.00000  Uiso   1.00
N226   N     0.10788   0.84340   0.27252   0.00000  Uiso   1.00
N227   N     0.05615   0.45865   0.63153   0.00000  Uiso   1.00
N228   N     0.33642   0.35836   0.01746   0.00000  Uiso   1.00
N229   N     0.20177   0.87596   0.22033   0.00000  Uiso   1.00
N230   N     0.15004   0.49121   0.57934   0.00000  Uiso   1.00
C231   C     0.62727   0.03970   0.32916   0.00000  Uiso   1.00
C232   C     0.68198   0.98870   0.24489   0.00000  Uiso   1.00
C233   C     0.67568   0.92769   0.20311   0.00000  Uiso   1.00
C234   C     0.73155   0.88816   0.12671   0.00000  Uiso   1.00
C235   C     0.80738   0.80583   0.00091   0.00000  Uiso   1.00
C236   C     0.64487   0.13136   0.30079   0.00000  Uiso   1.00
C237   C     0.60737   0.19029   0.30601   0.00000  Uiso   1.00
C238   C     0.63200   0.27085   0.27668   0.00000  Uiso   1.00
C239   C     0.65020   0.41001   0.23772   0.00000  Uiso   1.00
C240   C     0.63062   0.02530   0.39972   0.00000  Uiso   1.00
C241   C     0.58113   0.99509   0.48815   0.00000  Uiso   1.00
C242   C     0.59375   0.98638   0.54212   0.00000  Uiso   1.00
C243   C     0.58982   0.96088   0.65678   0.00000  Uiso   1.00
C244   C     0.73768   0.07800   0.26778   0.00000  Uiso   1.00
C245   C     0.74195   0.00950   0.21156   0.00000  Uiso   1.00
C246   C     0.79784   0.97005   0.13520   0.00000  Uiso   1.00
C247   C     0.79163   0.90899   0.09331   0.00000  Uiso   1.00
C248   C     0.70484   0.15216   0.26745   0.00000  Uiso   1.00
C249   C     0.72953   0.23265   0.23811   0.00000  Uiso   1.00
C250   C     0.69207   0.29168   0.24328   0.00000  Uiso   1.00
C251   C     0.69059   0.04610   0.36639   0.00000  Uiso   1.00
C252   C     0.70329   0.03745   0.42024   0.00000  Uiso   1.00
C253   C     0.65383   0.00722   0.50872   0.00000  Uiso   1.00
H254   H     0.58058   0.02352   0.35511   0.00000  Uiso   1.00
H255   H     0.62926   0.91162   0.22892   0.00000  Uiso   1.00
H256   H     0.56096   0.17417   0.33182   0.00000  Uiso   1.00
H257   H     0.53473   0.97900   0.51392   0.00000  Uiso   1.00
H258   H     0.70969   0.79674   0.07430   0.00000  Uiso   1.00
H259   H     0.56566   0.35037   0.29129   0.00000  Uiso   1.00
H260   H     0.51033   0.93881   0.67529   0.00000  Uiso   1.00
H261   H     0.78437   0.09419   0.24183   0.00000  Uiso   1.00
H262   H     0.84424   0.98616   0.10942   0.00000  Uiso   1.00
H263   H     0.77593   0.24872   0.21232   0.00000  Uiso   1.00
H264   H     0.74970   0.05355   0.39442   0.00000  Uiso   1.00
H265   H     0.88417   0.85725   0.97730   0.00000  Uiso   1.00
H266   H     0.74014   0.41088   0.19430   0.00000  Uiso   1.00
H267   H     0.68482   0.99932   0.57830   0.00000  Uiso   1.00
O268   O     0.83264   0.75468   0.94073   0.00000  Uiso   1.00
O269   O     0.64367   0.48101   0.22544   0.00000  Uiso   1.00
O270   O     0.57109   0.94106   0.72923   0.00000  Uiso   1.00
N271   N     0.74254   0.82580   0.06965   0.00000  Uiso   1.00
N272   N     0.60788   0.34340   0.27252   0.00000  Uiso   1.00
N273   N     0.55615   0.95865   0.63153   0.00000  Uiso   1.00
N274   N     0.83642   0.85836   0.01746   0.00000  Uiso   1.00
N275   N     0.70177   0.37596   0.22033   0.00000  Uiso   1.00
N276   N     0.65004   0.99121   0.57934   0.00000  Uiso   1.00
C277   C     0.87273   0.53970   0.17084   0.00000  Uiso   1.00
C278   C     0.81802   0.48870   0.25511   0.00000  Uiso   1.00
C279   C     0.82432   0.42769   0.29689   0.00000  Uiso   1.00
C280   C     0.76845   0.38816   0.37329   0.00000  Uiso   1.00
C281   C     0.69262   0.30583   0.49909   0.00000  Uiso   1.00
C282   C     0.85513   0.63136   0.19921   0.00000  Uiso   1.00
C283   C     0.89263   0.69029   0.19399   0.00000  Uiso   1.00
C284   C     0.86800   0.77085   0.22332   0.00000  Uiso   1.00
C285   C     0.84980   0.91001   0.26228   0.00000  Uiso   1.00
C286   C     0.86938   0.52530   0.10028   0.00000  Uiso   1.00
C287   C     0.91887   0.49509   0.01185   0.00000  Uiso   1.00
C288   C     0.90625   0.48638   0.95788   0.00000  Uiso   1.00
C289   C     0.91018   0.46088   0.84322   0.00000  Uiso   1.00
C290   C     0.76232   0.57800   0.23222   0.00000  Uiso   1.00
C291   C     0.75805   0.50950   0.28844   0.00000  Uiso   1.00
C292   C     0.70216   0.47005   0.36480   0.00000  Uiso   1.00
C293   C     0.70837   0.40899   0.40669   0.00000  Uiso   1.00
C294   C     0.79516   0.65216   0.23255   0.00000  Uiso   1.00
C295   C     0.77047   0.73265   0.26189   0.00000  Uiso   1.00
C296   C     0.80793   0.79168   0.25672   0.00000  Uiso   1.00
C297   C     0.80941   0.54610   0.13361   0.00000  Uiso   1.00
C298   C     0.79671   0.53745   0.07976   0.00000  Uiso   1.00
C299   C     0.84617   0.50722   0.99128   0.00000  Uiso   1.00
H300   H     0.91942   0.52352   0.14489   0.00000  Uiso   1.00
H301   H     0.87074   0.41162   0.27108   0.00000  Uiso   1.00
H302   H     0.93904   0.67417   0.16818   0.00000  Uiso   1.00
H303   H     0.96527   0.47900   0.98608   0.00000  Uiso   1.00
H304   H     0.79031   0.29674   0.42570   0.00000  Uiso   1.00
H305   H     0.93434   0.85037   0.20871   0.00000  Uiso   1.00
H306   H     0.98967   0.43881   0.82471   0.00000  Uiso   1.00
H307   H     0.71563   0.59419   0.25817   0.00000  Uiso   1.00
H308   H     0.65576   0.48616   0.39058   0.00000  Uiso   1.00
H309   H     0.72407   0.74872   0.28768   0.00000  Uiso   1.00
H310   H     0.75030   0.55355   0.10558   0.00000  Uiso   1.00
H311   H     0.61583   0.35725   0.52270   0.00000  Uiso   1.00
H312   H     0.75986   0.91088   0.30570   0.00000  Uiso   1.00
H313   H     0.81518   0.49932   0.92170   0.00000  Uiso   1.00
O314   O     0.66736   0.25468   0.55927   0.00000  Uiso   1.00
O315   O     0.85633   0.98101   0.27456   0.00000  Uiso   1.00
O316   O     0.92891   0.44106   0.77077   0.00000  Uiso   1.00
N317   N     0.75746   0.32580   0.43035   0.00000  Uiso   1.00
N318   N     0.89212   0.84340   0.22748   0.00000  Uiso   1.00
N319   N     0.94385   0.45865   0.86847   0.00000  Uiso   1.00
N320   N     0.66358   0.35836   0.48254   0.00000  Uiso   1.00
N321   N     0.79823   0.87596   0.27967   0.00000  Uiso   1.00
N322   N     0.84996   0.49121   0.92066   0.00000  Uiso   1.00
C323   C     0.37273   0.03970   0.17084   0.00000  Uiso   1.00
C324   C     0.31802   0.98870   0.25511   0.00000  Uiso   1.00
C325   C     0.32432   0.92769   0.29689   0.00000  Uiso   1.00
C326   C     0.26845   0.88816   0.37329   0.00000  Uiso   1.00
C327   C     0.19262   0.80583   0.49909   0.00000  Uiso   1.00
C328   C     0.35513   0.13136   0.19921   0.00000  Uiso   1.00
C329   C     0.39263   0.19029   0.19399   0.00000  Uiso   1.00
C330   C     0.36800   0.27085   0.22332   0.00000  Uiso   1.00
C331   C     0.34980   0.41001   0.26228   0.00000  Uiso   1.00
C332   C     0.36938   0.02530   0.10028   0.00000  Uiso   1.00
C333   C     0.41887   0.99509   0.01185   0.00000  Uiso   1.00
C334   C     0.40625   0.98638   0.95788   0.00000  Uiso   1.00
C335   C     0.41018   0.96088   0.84322   0.00000  Uiso   1.00
C336   C     0.26232   0.07800   0.23222   0.00000  Uiso   1.00
C337   C     0.25805   0.00950   0.28844   0.00000  Uiso   1.00
C338   C     0.20216   0.97005   0.36480   0.00000  Uiso   1.00
C339   C     0.20837   0.90899   0.40669   0.00000  Uiso   1.00
C340   C     0.29516   0.15216   0.23255   0.00000  Uiso   1.00
C341   C     0.27047   0.23265   0.26189   0.00000  Uiso   1.00
C342   C     0.30793   0.29168   0.25672   0.00000  Uiso   1.00
C343   C     0.30941   0.04610   0.13361   0.00000  Uiso   1.00
C344   C     0.29671   0.03745   0.07976   0.00000  Uiso   1.00
C345   C     0.34617   0.00722   0.99128   0.00000  Uiso   1.00
H346   H     0.41942   0.02352   0.14489   0.00000  Uiso   1.00
H347   H     0.37074   0.91162   0.27108   0.00000  Uiso   1.00
H348   H     0.43904   0.17417   0.16818   0.00000  Uiso   1.00
H349   H     0.46527   0.97900   0.98608   0.00000  Uiso   1.00
H350   H     0.29031   0.79674   0.42570   0.00000  Uiso   1.00
H351   H     0.43434   0.35037   0.20871   0.00000  Uiso   1.00
H352   H     0.48967   0.93881   0.82471   0.00000  Uiso   1.00
H353   H     0.21563   0.09419   0.25817   0.00000  Uiso   1.00
H354   H     0.15576   0.98616   0.39058   0.00000  Uiso   1.00
H355   H     0.22407   0.24872   0.28768   0.00000  Uiso   1.00
H356   H     0.25030   0.05355   0.10558   0.00000  Uiso   1.00
H357   H     0.11583   0.85725   0.52270   0.00000  Uiso   1.00
H358   H     0.25986   0.41088   0.30570   0.00000  Uiso   1.00
H359   H     0.31518   0.99932   0.92170   0.00000  Uiso   1.00
O360   O     0.16736   0.75468   0.55927   0.00000  Uiso   1.00
O361   O     0.35633   0.48101   0.27456   0.00000  Uiso   1.00
O362   O     0.42891   0.94106   0.77077   0.00000  Uiso   1.00
N363   N     0.25746   0.82580   0.43035   0.00000  Uiso   1.00
N364   N     0.39212   0.34340   0.22748   0.00000  Uiso   1.00
N365   N     0.44385   0.95865   0.86847   0.00000  Uiso   1.00
N366   N     0.16358   0.85836   0.48254   0.00000  Uiso   1.00
N367   N     0.29823   0.37596   0.27967   0.00000  Uiso   1.00
N368   N     0.34996   0.99121   0.92066   0.00000  Uiso   1.00
