data_job_00411
_audit_creation_date              2018-12-19
_audit_creation_method            'Materials Studio'
_symmetry_space_group_name_H-M    'P1'
_symmetry_Int_Tables_number       1
_symmetry_cell_setting            triclinic
loop_
_symmetry_equiv_pos_as_xyz
  x,y,z
_cell_length_a                    12.3798
_cell_length_b                    11.1678
_cell_length_c                    26.2661
_cell_angle_alpha                 90.0000
_cell_angle_beta                  45.6931
_cell_angle_gamma                 90.0000
loop_
_atom_site_label
_atom_site_type_symbol
_atom_site_fract_x
_atom_site_fract_y
_atom_site_fract_z
_atom_site_U_iso_or_equiv
_atom_site_adp_type
_atom_site_occupancy
C1     C     0.99099   0.27804   0.36027   0.00000  Uiso   1.00
C2     C     0.97608   0.27862   0.42301   0.00000  Uiso   1.00
C3     C     0.06155   0.34710   0.42823   0.00000  Uiso   1.00
C4     C     0.03064   0.33482   0.48996   0.00000  Uiso   1.00
C5     C     0.02463   0.34753   0.57909   0.00000  Uiso   1.00
C6     C     0.02012   0.14817   0.33567   0.00000  Uiso   1.00
C7     C     0.14262   0.10699   0.26744   0.00000  Uiso   1.00
C8     C     0.14877   0.98490   0.25565   0.00000  Uiso   1.00
C9     C     0.21109   0.79512   0.20915   0.00000  Uiso   1.00
C10    C     0.83500   0.30892   0.39089   0.00000  Uiso   1.00
C11    C     0.80184   0.40288   0.36908   0.00000  Uiso   1.00
C12    C     0.65214   0.41612   0.40376   0.00000  Uiso   1.00
C13    C     0.42703   0.47592   0.44300   0.00000  Uiso   1.00
C14    C     0.78410   0.13446   0.46062   0.00000  Uiso   1.00
C15    C     0.86371   0.20062   0.47752   0.00000  Uiso   1.00
C16    C     0.83265   0.18824   0.53926   0.00000  Uiso   1.00
C17    C     0.91806   0.25670   0.54457   0.00000  Uiso   1.00
C18    C     0.90776   0.07019   0.39017   0.00000  Uiso   1.00
C19    C     0.91373   0.94814   0.37847   0.00000  Uiso   1.00
C20    C     0.03620   0.90677   0.31025   0.00000  Uiso   1.00
C21    C     0.72262   0.23094   0.44540   0.00000  Uiso   1.00
C22    C     0.57295   0.24403   0.48012   0.00000  Uiso   1.00
C23    C     0.53957   0.33799   0.45837   0.00000  Uiso   1.00
H24    H     0.07848   0.33875   0.31783   0.00000  Uiso   1.00
H25    H     0.14851   0.40743   0.38603   0.00000  Uiso   1.00
H26    H     0.22955   0.16736   0.22527   0.00000  Uiso   1.00
H27    H     0.88883   0.46321   0.32690   0.00000  Uiso   1.00
H28    H     0.17663   0.44915   0.48568   0.00000  Uiso   1.00
H29    H     0.34750   0.94296   0.14669   0.00000  Uiso   1.00
H30    H     0.62901   0.56682   0.36099   0.00000  Uiso   1.00
H31    H     0.69662   0.07374   0.50306   0.00000  Uiso   1.00
H32    H     0.74569   0.12788   0.58144   0.00000  Uiso   1.00
H33    H     0.82674   0.88781   0.42067   0.00000  Uiso   1.00
H34    H     0.48602   0.18366   0.52229   0.00000  Uiso   1.00
H35    H     0.84970   0.22226   0.64428   0.00000  Uiso   1.00
H36    H     0.02056   0.71607   0.30528   0.00000  Uiso   1.00
H37    H     0.30208   0.33992   0.51959   0.00000  Uiso   1.00
O38    O     0.05237   0.37607   0.61319   0.00000  Uiso   1.00
O39    O     0.27652   0.71198   0.16844   0.00000  Uiso   1.00
O40    O     0.33390   0.53046   0.44960   0.00000  Uiso   1.00
N41    N     0.09293   0.38834   0.51226   0.00000  Uiso   1.00
N42    N     0.25269   0.91508   0.19533   0.00000  Uiso   1.00
N43    N     0.58098   0.49831   0.39566   0.00000  Uiso   1.00
N44    N     0.91701   0.26625   0.59760   0.00000  Uiso   1.00
N45    N     0.07677   0.79299   0.28066   0.00000  Uiso   1.00
N46    N     0.40506   0.37622   0.48100   0.00000  Uiso   1.00
C47    C     0.00901   0.27804   0.13973   0.00000  Uiso   1.00
C48    C     0.02392   0.27862   0.07699   0.00000  Uiso   1.00
C49    C     0.93845   0.34710   0.07177   0.00000  Uiso   1.00
C50    C     0.96936   0.33482   0.01004   0.00000  Uiso   1.00
C51    C     0.97537   0.34753   0.92091   0.00000  Uiso   1.00
C52    C     0.97988   0.14817   0.16433   0.00000  Uiso   1.00
C53    C     0.85738   0.10699   0.23256   0.00000  Uiso   1.00
C54    C     0.85123   0.98490   0.24435   0.00000  Uiso   1.00
C55    C     0.78891   0.79512   0.29085   0.00000  Uiso   1.00
C56    C     0.16500   0.30892   0.10911   0.00000  Uiso   1.00
C57    C     0.19816   0.40288   0.13092   0.00000  Uiso   1.00
C58    C     0.34786   0.41612   0.09624   0.00000  Uiso   1.00
C59    C     0.57297   0.47592   0.05700   0.00000  Uiso   1.00
C60    C     0.21590   0.13446   0.03938   0.00000  Uiso   1.00
C61    C     0.13629   0.20062   0.02248   0.00000  Uiso   1.00
C62    C     0.16735   0.18824   0.96074   0.00000  Uiso   1.00
C63    C     0.08194   0.25670   0.95543   0.00000  Uiso   1.00
C64    C     0.09224   0.07019   0.10983   0.00000  Uiso   1.00
C65    C     0.08627   0.94814   0.12153   0.00000  Uiso   1.00
C66    C     0.96380   0.90677   0.18975   0.00000  Uiso   1.00
C67    C     0.27738   0.23094   0.05460   0.00000  Uiso   1.00
C68    C     0.42705   0.24403   0.01988   0.00000  Uiso   1.00
C69    C     0.46043   0.33799   0.04163   0.00000  Uiso   1.00
H70    H     0.92152   0.33875   0.18217   0.00000  Uiso   1.00
H71    H     0.85149   0.40743   0.11397   0.00000  Uiso   1.00
H72    H     0.77045   0.16736   0.27473   0.00000  Uiso   1.00
H73    H     0.11117   0.46321   0.17310   0.00000  Uiso   1.00
H74    H     0.82337   0.44915   0.01432   0.00000  Uiso   1.00
H75    H     0.65250   0.94296   0.35331   0.00000  Uiso   1.00
H76    H     0.37099   0.56682   0.13901   0.00000  Uiso   1.00
H77    H     0.30338   0.07374   0.99694   0.00000  Uiso   1.00
H78    H     0.25431   0.12788   0.91856   0.00000  Uiso   1.00
H79    H     0.17326   0.88781   0.07933   0.00000  Uiso   1.00
H80    H     0.51398   0.18366   0.97771   0.00000  Uiso   1.00
H81    H     0.15030   0.22226   0.85572   0.00000  Uiso   1.00
H82    H     0.97944   0.71607   0.19472   0.00000  Uiso   1.00
H83    H     0.69792   0.33992   0.98041   0.00000  Uiso   1.00
O84    O     0.94763   0.37607   0.88681   0.00000  Uiso   1.00
O85    O     0.72348   0.71198   0.33156   0.00000  Uiso   1.00
O86    O     0.66610   0.53046   0.05040   0.00000  Uiso   1.00
N87    N     0.90707   0.38834   0.98774   0.00000  Uiso   1.00
N88    N     0.74731   0.91508   0.30467   0.00000  Uiso   1.00
N89    N     0.41902   0.49831   0.10434   0.00000  Uiso   1.00
N90    N     0.08299   0.26625   0.90240   0.00000  Uiso   1.00
N91    N     0.92323   0.79299   0.21934   0.00000  Uiso   1.00
N92    N     0.59494   0.37622   0.01900   0.00000  Uiso   1.00
C93    C     0.00901   0.72196   0.63973   0.00000  Uiso   1.00
C94    C     0.02392   0.72138   0.57699   0.00000  Uiso   1.00
C95    C     0.93845   0.65290   0.57177   0.00000  Uiso   1.00
C96    C     0.96936   0.66518   0.51004   0.00000  Uiso   1.00
C97    C     0.97537   0.65247   0.42091   0.00000  Uiso   1.00
C98    C     0.97988   0.85183   0.66433   0.00000  Uiso   1.00
C99    C     0.85738   0.89301   0.73256   0.00000  Uiso   1.00
C100   C     0.85123   0.01510   0.74435   0.00000  Uiso   1.00
C101   C     0.78891   0.20488   0.79085   0.00000  Uiso   1.00
C102   C     0.16500   0.69108   0.60911   0.00000  Uiso   1.00
C103   C     0.19816   0.59712   0.63092   0.00000  Uiso   1.00
C104   C     0.34786   0.58388   0.59624   0.00000  Uiso   1.00
C105   C     0.57297   0.52408   0.55700   0.00000  Uiso   1.00
C106   C     0.21590   0.86554   0.53938   0.00000  Uiso   1.00
C107   C     0.13629   0.79938   0.52248   0.00000  Uiso   1.00
C108   C     0.16735   0.81176   0.46074   0.00000  Uiso   1.00
C109   C     0.08194   0.74330   0.45543   0.00000  Uiso   1.00
C110   C     0.09224   0.92981   0.60983   0.00000  Uiso   1.00
C111   C     0.08627   0.05186   0.62153   0.00000  Uiso   1.00
C112   C     0.96380   0.09323   0.68975   0.00000  Uiso   1.00
C113   C     0.27738   0.76906   0.55460   0.00000  Uiso   1.00
C114   C     0.42705   0.75597   0.51988   0.00000  Uiso   1.00
C115   C     0.46043   0.66201   0.54163   0.00000  Uiso   1.00
H116   H     0.92152   0.66125   0.68217   0.00000  Uiso   1.00
H117   H     0.85149   0.59257   0.61397   0.00000  Uiso   1.00
H118   H     0.77045   0.83264   0.77473   0.00000  Uiso   1.00
H119   H     0.11117   0.53679   0.67310   0.00000  Uiso   1.00
H120   H     0.82337   0.55085   0.51432   0.00000  Uiso   1.00
H121   H     0.65250   0.05704   0.85331   0.00000  Uiso   1.00
H122   H     0.37099   0.43318   0.63901   0.00000  Uiso   1.00
H123   H     0.30338   0.92626   0.49694   0.00000  Uiso   1.00
H124   H     0.25431   0.87212   0.41856   0.00000  Uiso   1.00
H125   H     0.17326   0.11219   0.57933   0.00000  Uiso   1.00
H126   H     0.51398   0.81634   0.47771   0.00000  Uiso   1.00
H127   H     0.15030   0.77774   0.35572   0.00000  Uiso   1.00
H128   H     0.97944   0.28393   0.69472   0.00000  Uiso   1.00
H129   H     0.69792   0.66008   0.48041   0.00000  Uiso   1.00
O130   O     0.94763   0.62393   0.38681   0.00000  Uiso   1.00
O131   O     0.72348   0.28802   0.83156   0.00000  Uiso   1.00
O132   O     0.66610   0.46954   0.55040   0.00000  Uiso   1.00
N133   N     0.90707   0.61166   0.48774   0.00000  Uiso   1.00
N134   N     0.74731   0.08492   0.80467   0.00000  Uiso   1.00
N135   N     0.41902   0.50169   0.60434   0.00000  Uiso   1.00
N136   N     0.08299   0.73375   0.40240   0.00000  Uiso   1.00
N137   N     0.92323   0.20701   0.71934   0.00000  Uiso   1.00
N138   N     0.59494   0.62378   0.51900   0.00000  Uiso   1.00
C139   C     0.99099   0.72196   0.86027   0.00000  Uiso   1.00
C140   C     0.97608   0.72138   0.92301   0.00000  Uiso   1.00
C141   C     0.06155   0.65290   0.92823   0.00000  Uiso   1.00
C142   C     0.03064   0.66518   0.98996   0.00000  Uiso   1.00
C143   C     0.02463   0.65247   0.07909   0.00000  Uiso   1.00
C144   C     0.02012   0.85183   0.83567   0.00000  Uiso   1.00
C145   C     0.14262   0.89301   0.76744   0.00000  Uiso   1.00
C146   C     0.14877   0.01510   0.75565   0.00000  Uiso   1.00
C147   C     0.21109   0.20488   0.70915   0.00000  Uiso   1.00
C148   C     0.83500   0.69108   0.89089   0.00000  Uiso   1.00
C149   C     0.80184   0.59712   0.86908   0.00000  Uiso   1.00
C150   C     0.65214   0.58388   0.90376   0.00000  Uiso   1.00
C151   C     0.42703   0.52408   0.94300   0.00000  Uiso   1.00
C152   C     0.78410   0.86554   0.96062   0.00000  Uiso   1.00
C153   C     0.86371   0.79938   0.97752   0.00000  Uiso   1.00
C154   C     0.83265   0.81176   0.03926   0.00000  Uiso   1.00
C155   C     0.91806   0.74330   0.04457   0.00000  Uiso   1.00
C156   C     0.90776   0.92981   0.89017   0.00000  Uiso   1.00
C157   C     0.91373   0.05186   0.87847   0.00000  Uiso   1.00
C158   C     0.03620   0.09323   0.81025   0.00000  Uiso   1.00
C159   C     0.72262   0.76906   0.94540   0.00000  Uiso   1.00
C160   C     0.57295   0.75597   0.98012   0.00000  Uiso   1.00
C161   C     0.53957   0.66201   0.95837   0.00000  Uiso   1.00
H162   H     0.07848   0.66125   0.81783   0.00000  Uiso   1.00
H163   H     0.14851   0.59257   0.88603   0.00000  Uiso   1.00
H164   H     0.22955   0.83264   0.72527   0.00000  Uiso   1.00
H165   H     0.88883   0.53679   0.82690   0.00000  Uiso   1.00
H166   H     0.17663   0.55085   0.98568   0.00000  Uiso   1.00
H167   H     0.34750   0.05704   0.64669   0.00000  Uiso   1.00
H168   H     0.62901   0.43318   0.86099   0.00000  Uiso   1.00
H169   H     0.69662   0.92626   0.00306   0.00000  Uiso   1.00
H170   H     0.74569   0.87212   0.08144   0.00000  Uiso   1.00
H171   H     0.82674   0.11219   0.92067   0.00000  Uiso   1.00
H172   H     0.48602   0.81634   0.02229   0.00000  Uiso   1.00
H173   H     0.84970   0.77774   0.14428   0.00000  Uiso   1.00
H174   H     0.02056   0.28393   0.80528   0.00000  Uiso   1.00
H175   H     0.30208   0.66008   0.01959   0.00000  Uiso   1.00
O176   O     0.05237   0.62393   0.11319   0.00000  Uiso   1.00
O177   O     0.27652   0.28802   0.66844   0.00000  Uiso   1.00
O178   O     0.33390   0.46954   0.94960   0.00000  Uiso   1.00
N179   N     0.09293   0.61166   0.01226   0.00000  Uiso   1.00
N180   N     0.25269   0.08492   0.69533   0.00000  Uiso   1.00
N181   N     0.58098   0.50169   0.89566   0.00000  Uiso   1.00
N182   N     0.91701   0.73375   0.09760   0.00000  Uiso   1.00
N183   N     0.07677   0.20701   0.78066   0.00000  Uiso   1.00
N184   N     0.40506   0.62378   0.98100   0.00000  Uiso   1.00
