data_job_03905
_audit_creation_date              2018-12-19
_audit_creation_method            'Materials Studio'
_symmetry_space_group_name_H-M    'P1'
_symmetry_Int_Tables_number       1
_symmetry_cell_setting            triclinic
loop_
_symmetry_equiv_pos_as_xyz
  x,y,z
_cell_length_a                    23.4055
_cell_length_b                    23.4055
_cell_length_c                    11.8064
_cell_angle_alpha                 90.0000
_cell_angle_beta                  90.0000
_cell_angle_gamma                 90.0000
loop_
_atom_site_label
_atom_site_type_symbol
_atom_site_fract_x
_atom_site_fract_y
_atom_site_fract_z
_atom_site_U_iso_or_equiv
_atom_site_adp_type
_atom_site_occupancy
C1     C     0.64342   0.62432   0.99452   0.00000  Uiso   1.00
C2     C     0.67876   0.58248   0.92456   0.00000  Uiso   1.00
C3     C     0.65923   0.55125   0.83245   0.00000  Uiso   1.00
C4     C     0.69822   0.51528   0.77981   0.00000  Uiso   1.00
C5     C     0.74450   0.45099   0.66540   0.00000  Uiso   1.00
C6     C     0.64739   0.60368   0.11678   0.00000  Uiso   1.00
C7     C     0.60149   0.59028   0.18629   0.00000  Uiso   1.00
C8     C     0.61407   0.57217   0.29546   0.00000  Uiso   1.00
C9     C     0.61166   0.54083   0.47950   0.00000  Uiso   1.00
C10    C     0.67534   0.68108   0.99040   0.00000  Uiso   1.00
C11    C     0.65292   0.73275   0.95369   0.00000  Uiso   1.00
C12    C     0.68903   0.77980   0.95648   0.00000  Uiso   1.00
C13    C     0.72999   0.86863   0.94431   0.00000  Uiso   1.00
C14    C     0.74738   0.61599   0.06481   0.00000  Uiso   1.00
C15    C     0.73523   0.57796   0.96274   0.00000  Uiso   1.00
C16    C     0.77426   0.54203   0.91022   0.00000  Uiso   1.00
C17    C     0.75479   0.51075   0.81805   0.00000  Uiso   1.00
C18    C     0.70386   0.59916   0.15496   0.00000  Uiso   1.00
C19    C     0.71651   0.58106   0.26406   0.00000  Uiso   1.00
C20    C     0.67064   0.56763   0.33371   0.00000  Uiso   1.00
C21    C     0.73180   0.67655   0.02858   0.00000  Uiso   1.00
C22    C     0.76795   0.72353   0.03145   0.00000  Uiso   1.00
C23    C     0.74560   0.77527   0.99473   0.00000  Uiso   1.00
H24    H     0.59945   0.62784   0.96480   0.00000  Uiso   1.00
H25    H     0.61553   0.55476   0.80294   0.00000  Uiso   1.00
H26    H     0.55780   0.59379   0.15672   0.00000  Uiso   1.00
H27    H     0.60922   0.73624   0.92415   0.00000  Uiso   1.00
H28    H     0.65825   0.47172   0.64034   0.00000  Uiso   1.00
H29    H     0.53652   0.55404   0.38632   0.00000  Uiso   1.00
H30    H     0.64496   0.85442   0.89590   0.00000  Uiso   1.00
H31    H     0.79134   0.61246   0.09454   0.00000  Uiso   1.00
H32    H     0.81795   0.53854   0.93979   0.00000  Uiso   1.00
H33    H     0.76022   0.57757   0.29357   0.00000  Uiso   1.00
H34    H     0.81164   0.72002   0.06100   0.00000  Uiso   1.00
H35    H     0.82254   0.45856   0.75142   0.00000  Uiso   1.00
H36    H     0.70081   0.54088   0.49740   0.00000  Uiso   1.00
H37    H     0.80925   0.84125   0.00698   0.00000  Uiso   1.00
O38    O     0.75443   0.41677   0.59176   0.00000  Uiso   1.00
O39    O     0.59472   0.52478   0.57046   0.00000  Uiso   1.00
O40    O     0.73699   0.91887   0.92704   0.00000  Uiso   1.00
N41    N     0.69327   0.47878   0.68771   0.00000  Uiso   1.00
N42    N     0.57946   0.55573   0.38515   0.00000  Uiso   1.00
N43    N     0.68083   0.83657   0.92668   0.00000  Uiso   1.00
N44    N     0.78167   0.47169   0.74747   0.00000  Uiso   1.00
N45    N     0.66786   0.54865   0.44492   0.00000  Uiso   1.00
N46    N     0.76924   0.82948   0.98644   0.00000  Uiso   1.00
C47    C     0.35658   0.37568   0.99452   0.00000  Uiso   1.00
C48    C     0.32124   0.41752   0.92456   0.00000  Uiso   1.00
C49    C     0.34077   0.44875   0.83245   0.00000  Uiso   1.00
C50    C     0.30178   0.48472   0.77981   0.00000  Uiso   1.00
C51    C     0.25550   0.54901   0.66540   0.00000  Uiso   1.00
C52    C     0.35261   0.39632   0.11678   0.00000  Uiso   1.00
C53    C     0.39851   0.40972   0.18629   0.00000  Uiso   1.00
C54    C     0.38593   0.42783   0.29546   0.00000  Uiso   1.00
C55    C     0.38834   0.45917   0.47950   0.00000  Uiso   1.00
C56    C     0.32466   0.31892   0.99040   0.00000  Uiso   1.00
C57    C     0.34708   0.26725   0.95369   0.00000  Uiso   1.00
C58    C     0.31097   0.22020   0.95648   0.00000  Uiso   1.00
C59    C     0.27001   0.13137   0.94431   0.00000  Uiso   1.00
C60    C     0.25262   0.38401   0.06481   0.00000  Uiso   1.00
C61    C     0.26477   0.42204   0.96274   0.00000  Uiso   1.00
C62    C     0.22574   0.45797   0.91022   0.00000  Uiso   1.00
C63    C     0.24521   0.48925   0.81805   0.00000  Uiso   1.00
C64    C     0.29614   0.40084   0.15496   0.00000  Uiso   1.00
C65    C     0.28349   0.41894   0.26406   0.00000  Uiso   1.00
C66    C     0.32936   0.43237   0.33371   0.00000  Uiso   1.00
C67    C     0.26820   0.32345   0.02858   0.00000  Uiso   1.00
C68    C     0.23205   0.27647   0.03145   0.00000  Uiso   1.00
C69    C     0.25440   0.22473   0.99473   0.00000  Uiso   1.00
H70    H     0.40055   0.37216   0.96480   0.00000  Uiso   1.00
H71    H     0.38447   0.44524   0.80294   0.00000  Uiso   1.00
H72    H     0.44220   0.40621   0.15672   0.00000  Uiso   1.00
H73    H     0.39078   0.26376   0.92415   0.00000  Uiso   1.00
H74    H     0.34175   0.52828   0.64034   0.00000  Uiso   1.00
H75    H     0.46348   0.44596   0.38632   0.00000  Uiso   1.00
H76    H     0.35504   0.14558   0.89590   0.00000  Uiso   1.00
H77    H     0.20866   0.38754   0.09454   0.00000  Uiso   1.00
H78    H     0.18205   0.46146   0.93979   0.00000  Uiso   1.00
H79    H     0.23978   0.42243   0.29357   0.00000  Uiso   1.00
H80    H     0.18836   0.27998   0.06100   0.00000  Uiso   1.00
H81    H     0.17746   0.54144   0.75142   0.00000  Uiso   1.00
H82    H     0.29919   0.45912   0.49740   0.00000  Uiso   1.00
H83    H     0.19075   0.15875   0.00698   0.00000  Uiso   1.00
O84    O     0.24557   0.58323   0.59176   0.00000  Uiso   1.00
O85    O     0.40528   0.47522   0.57046   0.00000  Uiso   1.00
O86    O     0.26301   0.08113   0.92704   0.00000  Uiso   1.00
N87    N     0.30673   0.52122   0.68771   0.00000  Uiso   1.00
N88    N     0.42054   0.44427   0.38515   0.00000  Uiso   1.00
N89    N     0.31917   0.16343   0.92668   0.00000  Uiso   1.00
N90    N     0.21833   0.52831   0.74747   0.00000  Uiso   1.00
N91    N     0.33214   0.45135   0.44492   0.00000  Uiso   1.00
N92    N     0.23076   0.17052   0.98644   0.00000  Uiso   1.00
C93    C     0.87568   0.14342   0.49452   0.00000  Uiso   1.00
C94    C     0.91752   0.17876   0.42456   0.00000  Uiso   1.00
C95    C     0.94875   0.15923   0.33245   0.00000  Uiso   1.00
C96    C     0.98472   0.19822   0.27981   0.00000  Uiso   1.00
C97    C     0.04901   0.24450   0.16540   0.00000  Uiso   1.00
C98    C     0.89632   0.14739   0.61678   0.00000  Uiso   1.00
C99    C     0.90972   0.10149   0.68629   0.00000  Uiso   1.00
C100   C     0.92783   0.11407   0.79546   0.00000  Uiso   1.00
C101   C     0.95917   0.11166   0.97950   0.00000  Uiso   1.00
C102   C     0.81892   0.17534   0.49040   0.00000  Uiso   1.00
C103   C     0.76725   0.15292   0.45369   0.00000  Uiso   1.00
C104   C     0.72020   0.18903   0.45648   0.00000  Uiso   1.00
C105   C     0.63137   0.22999   0.44431   0.00000  Uiso   1.00
C106   C     0.88401   0.24738   0.56481   0.00000  Uiso   1.00
C107   C     0.92204   0.23523   0.46274   0.00000  Uiso   1.00
C108   C     0.95797   0.27426   0.41022   0.00000  Uiso   1.00
C109   C     0.98925   0.25479   0.31805   0.00000  Uiso   1.00
C110   C     0.90084   0.20386   0.65496   0.00000  Uiso   1.00
C111   C     0.91894   0.21651   0.76406   0.00000  Uiso   1.00
C112   C     0.93237   0.17064   0.83371   0.00000  Uiso   1.00
C113   C     0.82345   0.23180   0.52858   0.00000  Uiso   1.00
C114   C     0.77647   0.26795   0.53145   0.00000  Uiso   1.00
C115   C     0.72473   0.24560   0.49473   0.00000  Uiso   1.00
H116   H     0.87216   0.09945   0.46480   0.00000  Uiso   1.00
H117   H     0.94524   0.11553   0.30294   0.00000  Uiso   1.00
H118   H     0.90621   0.05780   0.65672   0.00000  Uiso   1.00
H119   H     0.76376   0.10922   0.42415   0.00000  Uiso   1.00
H120   H     0.02828   0.15825   0.14034   0.00000  Uiso   1.00
H121   H     0.94596   0.03652   0.88632   0.00000  Uiso   1.00
H122   H     0.64558   0.14496   0.39590   0.00000  Uiso   1.00
H123   H     0.88754   0.29134   0.59454   0.00000  Uiso   1.00
H124   H     0.96146   0.31795   0.43979   0.00000  Uiso   1.00
H125   H     0.92243   0.26022   0.79357   0.00000  Uiso   1.00
H126   H     0.77998   0.31164   0.56100   0.00000  Uiso   1.00
H127   H     0.04144   0.32254   0.25142   0.00000  Uiso   1.00
H128   H     0.95912   0.20081   0.99740   0.00000  Uiso   1.00
H129   H     0.65875   0.30925   0.50698   0.00000  Uiso   1.00
O130   O     0.08323   0.25443   0.09176   0.00000  Uiso   1.00
O131   O     0.97522   0.09472   0.07046   0.00000  Uiso   1.00
O132   O     0.58113   0.23699   0.42704   0.00000  Uiso   1.00
N133   N     0.02122   0.19327   0.18771   0.00000  Uiso   1.00
N134   N     0.94427   0.07946   0.88515   0.00000  Uiso   1.00
N135   N     0.66343   0.18083   0.42668   0.00000  Uiso   1.00
N136   N     0.02831   0.28167   0.24747   0.00000  Uiso   1.00
N137   N     0.95135   0.16786   0.94492   0.00000  Uiso   1.00
N138   N     0.67052   0.26924   0.48644   0.00000  Uiso   1.00
C139   C     0.12432   0.85658   0.49452   0.00000  Uiso   1.00
C140   C     0.08248   0.82124   0.42456   0.00000  Uiso   1.00
C141   C     0.05125   0.84077   0.33245   0.00000  Uiso   1.00
C142   C     0.01528   0.80178   0.27981   0.00000  Uiso   1.00
C143   C     0.95099   0.75550   0.16540   0.00000  Uiso   1.00
C144   C     0.10368   0.85261   0.61678   0.00000  Uiso   1.00
C145   C     0.09028   0.89851   0.68629   0.00000  Uiso   1.00
C146   C     0.07217   0.88593   0.79546   0.00000  Uiso   1.00
C147   C     0.04083   0.88834   0.97950   0.00000  Uiso   1.00
C148   C     0.18108   0.82466   0.49040   0.00000  Uiso   1.00
C149   C     0.23275   0.84708   0.45369   0.00000  Uiso   1.00
C150   C     0.27980   0.81097   0.45648   0.00000  Uiso   1.00
C151   C     0.36863   0.77001   0.44431   0.00000  Uiso   1.00
C152   C     0.11599   0.75262   0.56481   0.00000  Uiso   1.00
C153   C     0.07796   0.76477   0.46274   0.00000  Uiso   1.00
C154   C     0.04203   0.72574   0.41022   0.00000  Uiso   1.00
C155   C     0.01075   0.74521   0.31805   0.00000  Uiso   1.00
C156   C     0.09916   0.79614   0.65496   0.00000  Uiso   1.00
C157   C     0.08106   0.78349   0.76406   0.00000  Uiso   1.00
C158   C     0.06763   0.82936   0.83371   0.00000  Uiso   1.00
C159   C     0.17655   0.76820   0.52858   0.00000  Uiso   1.00
C160   C     0.22353   0.73205   0.53145   0.00000  Uiso   1.00
C161   C     0.27527   0.75440   0.49473   0.00000  Uiso   1.00
H162   H     0.12784   0.90055   0.46480   0.00000  Uiso   1.00
H163   H     0.05476   0.88447   0.30294   0.00000  Uiso   1.00
H164   H     0.09379   0.94220   0.65672   0.00000  Uiso   1.00
H165   H     0.23624   0.89078   0.42415   0.00000  Uiso   1.00
H166   H     0.97172   0.84175   0.14034   0.00000  Uiso   1.00
H167   H     0.05404   0.96348   0.88632   0.00000  Uiso   1.00
H168   H     0.35442   0.85504   0.39590   0.00000  Uiso   1.00
H169   H     0.11246   0.70866   0.59454   0.00000  Uiso   1.00
H170   H     0.03854   0.68205   0.43979   0.00000  Uiso   1.00
H171   H     0.07757   0.73978   0.79357   0.00000  Uiso   1.00
H172   H     0.22002   0.68836   0.56100   0.00000  Uiso   1.00
H173   H     0.95856   0.67746   0.25142   0.00000  Uiso   1.00
H174   H     0.04088   0.79919   0.99740   0.00000  Uiso   1.00
H175   H     0.34125   0.69075   0.50698   0.00000  Uiso   1.00
O176   O     0.91677   0.74557   0.09176   0.00000  Uiso   1.00
O177   O     0.02478   0.90528   0.07046   0.00000  Uiso   1.00
O178   O     0.41887   0.76301   0.42704   0.00000  Uiso   1.00
N179   N     0.97878   0.80673   0.18771   0.00000  Uiso   1.00
N180   N     0.05573   0.92054   0.88515   0.00000  Uiso   1.00
N181   N     0.33657   0.81917   0.42668   0.00000  Uiso   1.00
N182   N     0.97169   0.71833   0.24747   0.00000  Uiso   1.00
N183   N     0.04865   0.83214   0.94492   0.00000  Uiso   1.00
N184   N     0.32948   0.73076   0.48644   0.00000  Uiso   1.00
C185   C     0.85658   0.87568   0.50548   0.00000  Uiso   1.00
C186   C     0.82124   0.91752   0.57544   0.00000  Uiso   1.00
C187   C     0.84077   0.94875   0.66755   0.00000  Uiso   1.00
C188   C     0.80178   0.98472   0.72019   0.00000  Uiso   1.00
C189   C     0.75550   0.04901   0.83460   0.00000  Uiso   1.00
C190   C     0.85261   0.89632   0.38322   0.00000  Uiso   1.00
C191   C     0.89851   0.90972   0.31371   0.00000  Uiso   1.00
C192   C     0.88593   0.92783   0.20454   0.00000  Uiso   1.00
C193   C     0.88834   0.95917   0.02050   0.00000  Uiso   1.00
C194   C     0.82466   0.81892   0.50960   0.00000  Uiso   1.00
C195   C     0.84708   0.76725   0.54631   0.00000  Uiso   1.00
C196   C     0.81097   0.72020   0.54352   0.00000  Uiso   1.00
C197   C     0.77001   0.63137   0.55569   0.00000  Uiso   1.00
C198   C     0.75262   0.88401   0.43519   0.00000  Uiso   1.00
C199   C     0.76477   0.92204   0.53726   0.00000  Uiso   1.00
C200   C     0.72574   0.95797   0.58978   0.00000  Uiso   1.00
C201   C     0.74521   0.98925   0.68195   0.00000  Uiso   1.00
C202   C     0.79614   0.90084   0.34504   0.00000  Uiso   1.00
C203   C     0.78349   0.91894   0.23594   0.00000  Uiso   1.00
C204   C     0.82936   0.93237   0.16629   0.00000  Uiso   1.00
C205   C     0.76820   0.82345   0.47142   0.00000  Uiso   1.00
C206   C     0.73205   0.77647   0.46855   0.00000  Uiso   1.00
C207   C     0.75440   0.72473   0.50527   0.00000  Uiso   1.00
H208   H     0.90055   0.87216   0.53520   0.00000  Uiso   1.00
H209   H     0.88447   0.94524   0.69706   0.00000  Uiso   1.00
H210   H     0.94220   0.90621   0.34328   0.00000  Uiso   1.00
H211   H     0.89078   0.76376   0.57585   0.00000  Uiso   1.00
H212   H     0.84175   0.02828   0.85966   0.00000  Uiso   1.00
H213   H     0.96348   0.94596   0.11368   0.00000  Uiso   1.00
H214   H     0.85504   0.64558   0.60410   0.00000  Uiso   1.00
H215   H     0.70866   0.88754   0.40546   0.00000  Uiso   1.00
H216   H     0.68205   0.96146   0.56021   0.00000  Uiso   1.00
H217   H     0.73978   0.92243   0.20643   0.00000  Uiso   1.00
H218   H     0.68836   0.77998   0.43900   0.00000  Uiso   1.00
H219   H     0.67746   0.04144   0.74858   0.00000  Uiso   1.00
H220   H     0.79919   0.95912   0.00260   0.00000  Uiso   1.00
H221   H     0.69075   0.65875   0.49302   0.00000  Uiso   1.00
O222   O     0.74557   0.08323   0.90824   0.00000  Uiso   1.00
O223   O     0.90528   0.97522   0.92954   0.00000  Uiso   1.00
O224   O     0.76301   0.58113   0.57296   0.00000  Uiso   1.00
N225   N     0.80673   0.02122   0.81229   0.00000  Uiso   1.00
N226   N     0.92054   0.94427   0.11485   0.00000  Uiso   1.00
N227   N     0.81917   0.66343   0.57332   0.00000  Uiso   1.00
N228   N     0.71833   0.02831   0.75253   0.00000  Uiso   1.00
N229   N     0.83214   0.95135   0.05508   0.00000  Uiso   1.00
N230   N     0.73076   0.67052   0.51356   0.00000  Uiso   1.00
C231   C     0.14342   0.12432   0.50548   0.00000  Uiso   1.00
C232   C     0.17876   0.08248   0.57544   0.00000  Uiso   1.00
C233   C     0.15923   0.05125   0.66755   0.00000  Uiso   1.00
C234   C     0.19822   0.01528   0.72019   0.00000  Uiso   1.00
C235   C     0.24450   0.95099   0.83460   0.00000  Uiso   1.00
C236   C     0.14739   0.10368   0.38322   0.00000  Uiso   1.00
C237   C     0.10149   0.09028   0.31371   0.00000  Uiso   1.00
C238   C     0.11407   0.07217   0.20454   0.00000  Uiso   1.00
C239   C     0.11166   0.04083   0.02050   0.00000  Uiso   1.00
C240   C     0.17534   0.18108   0.50960   0.00000  Uiso   1.00
C241   C     0.15292   0.23275   0.54631   0.00000  Uiso   1.00
C242   C     0.18903   0.27980   0.54352   0.00000  Uiso   1.00
C243   C     0.22999   0.36863   0.55569   0.00000  Uiso   1.00
C244   C     0.24738   0.11599   0.43519   0.00000  Uiso   1.00
C245   C     0.23523   0.07796   0.53726   0.00000  Uiso   1.00
C246   C     0.27426   0.04203   0.58978   0.00000  Uiso   1.00
C247   C     0.25479   0.01075   0.68195   0.00000  Uiso   1.00
C248   C     0.20386   0.09916   0.34504   0.00000  Uiso   1.00
C249   C     0.21651   0.08106   0.23594   0.00000  Uiso   1.00
C250   C     0.17064   0.06763   0.16629   0.00000  Uiso   1.00
C251   C     0.23180   0.17655   0.47142   0.00000  Uiso   1.00
C252   C     0.26795   0.22353   0.46855   0.00000  Uiso   1.00
C253   C     0.24560   0.27527   0.50527   0.00000  Uiso   1.00
H254   H     0.09945   0.12784   0.53520   0.00000  Uiso   1.00
H255   H     0.11553   0.05476   0.69706   0.00000  Uiso   1.00
H256   H     0.05780   0.09379   0.34328   0.00000  Uiso   1.00
H257   H     0.10922   0.23624   0.57585   0.00000  Uiso   1.00
H258   H     0.15825   0.97172   0.85966   0.00000  Uiso   1.00
H259   H     0.03652   0.05404   0.11368   0.00000  Uiso   1.00
H260   H     0.14496   0.35442   0.60410   0.00000  Uiso   1.00
H261   H     0.29134   0.11246   0.40546   0.00000  Uiso   1.00
H262   H     0.31795   0.03854   0.56021   0.00000  Uiso   1.00
H263   H     0.26022   0.07757   0.20643   0.00000  Uiso   1.00
H264   H     0.31164   0.22002   0.43900   0.00000  Uiso   1.00
H265   H     0.32254   0.95856   0.74858   0.00000  Uiso   1.00
H266   H     0.20081   0.04088   0.00260   0.00000  Uiso   1.00
H267   H     0.30925   0.34125   0.49302   0.00000  Uiso   1.00
O268   O     0.25443   0.91677   0.90824   0.00000  Uiso   1.00
O269   O     0.09472   0.02478   0.92954   0.00000  Uiso   1.00
O270   O     0.23699   0.41887   0.57296   0.00000  Uiso   1.00
N271   N     0.19327   0.97878   0.81229   0.00000  Uiso   1.00
N272   N     0.07946   0.05573   0.11485   0.00000  Uiso   1.00
N273   N     0.18083   0.33657   0.57332   0.00000  Uiso   1.00
N274   N     0.28167   0.97169   0.75253   0.00000  Uiso   1.00
N275   N     0.16786   0.04865   0.05508   0.00000  Uiso   1.00
N276   N     0.26924   0.32948   0.51356   0.00000  Uiso   1.00
C277   C     0.62432   0.35658   0.00548   0.00000  Uiso   1.00
C278   C     0.58248   0.32124   0.07544   0.00000  Uiso   1.00
C279   C     0.55125   0.34077   0.16755   0.00000  Uiso   1.00
C280   C     0.51528   0.30178   0.22019   0.00000  Uiso   1.00
C281   C     0.45099   0.25550   0.33460   0.00000  Uiso   1.00
C282   C     0.60368   0.35261   0.88322   0.00000  Uiso   1.00
C283   C     0.59028   0.39851   0.81371   0.00000  Uiso   1.00
C284   C     0.57217   0.38593   0.70454   0.00000  Uiso   1.00
C285   C     0.54083   0.38834   0.52050   0.00000  Uiso   1.00
C286   C     0.68108   0.32466   0.00960   0.00000  Uiso   1.00
C287   C     0.73275   0.34708   0.04631   0.00000  Uiso   1.00
C288   C     0.77980   0.31097   0.04352   0.00000  Uiso   1.00
C289   C     0.86863   0.27001   0.05569   0.00000  Uiso   1.00
C290   C     0.61599   0.25262   0.93519   0.00000  Uiso   1.00
C291   C     0.57796   0.26477   0.03726   0.00000  Uiso   1.00
C292   C     0.54203   0.22574   0.08978   0.00000  Uiso   1.00
C293   C     0.51075   0.24521   0.18195   0.00000  Uiso   1.00
C294   C     0.59916   0.29614   0.84504   0.00000  Uiso   1.00
C295   C     0.58106   0.28349   0.73594   0.00000  Uiso   1.00
C296   C     0.56763   0.32936   0.66629   0.00000  Uiso   1.00
C297   C     0.67655   0.26820   0.97142   0.00000  Uiso   1.00
C298   C     0.72353   0.23205   0.96855   0.00000  Uiso   1.00
C299   C     0.77527   0.25440   0.00527   0.00000  Uiso   1.00
H300   H     0.62784   0.40055   0.03520   0.00000  Uiso   1.00
H301   H     0.55476   0.38447   0.19706   0.00000  Uiso   1.00
H302   H     0.59379   0.44220   0.84328   0.00000  Uiso   1.00
H303   H     0.73624   0.39078   0.07585   0.00000  Uiso   1.00
H304   H     0.47172   0.34175   0.35966   0.00000  Uiso   1.00
H305   H     0.55404   0.46348   0.61368   0.00000  Uiso   1.00
H306   H     0.85442   0.35504   0.10410   0.00000  Uiso   1.00
H307   H     0.61246   0.20866   0.90546   0.00000  Uiso   1.00
H308   H     0.53854   0.18205   0.06021   0.00000  Uiso   1.00
H309   H     0.57757   0.23978   0.70643   0.00000  Uiso   1.00
H310   H     0.72002   0.18836   0.93900   0.00000  Uiso   1.00
H311   H     0.45856   0.17746   0.24858   0.00000  Uiso   1.00
H312   H     0.54088   0.29919   0.50260   0.00000  Uiso   1.00
H313   H     0.84125   0.19075   0.99302   0.00000  Uiso   1.00
O314   O     0.41677   0.24557   0.40824   0.00000  Uiso   1.00
O315   O     0.52478   0.40528   0.42954   0.00000  Uiso   1.00
O316   O     0.91887   0.26301   0.07296   0.00000  Uiso   1.00
N317   N     0.47878   0.30673   0.31229   0.00000  Uiso   1.00
N318   N     0.55573   0.42054   0.61485   0.00000  Uiso   1.00
N319   N     0.83657   0.31917   0.07332   0.00000  Uiso   1.00
N320   N     0.47169   0.21833   0.25253   0.00000  Uiso   1.00
N321   N     0.54865   0.33214   0.55508   0.00000  Uiso   1.00
N322   N     0.82948   0.23076   0.01356   0.00000  Uiso   1.00
C323   C     0.37568   0.64342   0.00548   0.00000  Uiso   1.00
C324   C     0.41752   0.67876   0.07544   0.00000  Uiso   1.00
C325   C     0.44875   0.65923   0.16755   0.00000  Uiso   1.00
C326   C     0.48472   0.69822   0.22019   0.00000  Uiso   1.00
C327   C     0.54901   0.74450   0.33460   0.00000  Uiso   1.00
C328   C     0.39632   0.64739   0.88322   0.00000  Uiso   1.00
C329   C     0.40972   0.60149   0.81371   0.00000  Uiso   1.00
C330   C     0.42783   0.61407   0.70454   0.00000  Uiso   1.00
C331   C     0.45917   0.61166   0.52050   0.00000  Uiso   1.00
C332   C     0.31892   0.67534   0.00960   0.00000  Uiso   1.00
C333   C     0.26725   0.65292   0.04631   0.00000  Uiso   1.00
C334   C     0.22020   0.68903   0.04352   0.00000  Uiso   1.00
C335   C     0.13137   0.72999   0.05569   0.00000  Uiso   1.00
C336   C     0.38401   0.74738   0.93519   0.00000  Uiso   1.00
C337   C     0.42204   0.73523   0.03726   0.00000  Uiso   1.00
C338   C     0.45797   0.77426   0.08978   0.00000  Uiso   1.00
C339   C     0.48925   0.75479   0.18195   0.00000  Uiso   1.00
C340   C     0.40084   0.70386   0.84504   0.00000  Uiso   1.00
C341   C     0.41894   0.71651   0.73594   0.00000  Uiso   1.00
C342   C     0.43237   0.67064   0.66629   0.00000  Uiso   1.00
C343   C     0.32345   0.73180   0.97142   0.00000  Uiso   1.00
C344   C     0.27647   0.76795   0.96855   0.00000  Uiso   1.00
C345   C     0.22473   0.74560   0.00527   0.00000  Uiso   1.00
H346   H     0.37216   0.59945   0.03520   0.00000  Uiso   1.00
H347   H     0.44524   0.61553   0.19706   0.00000  Uiso   1.00
H348   H     0.40621   0.55780   0.84328   0.00000  Uiso   1.00
H349   H     0.26376   0.60922   0.07585   0.00000  Uiso   1.00
H350   H     0.52828   0.65825   0.35966   0.00000  Uiso   1.00
H351   H     0.44596   0.53652   0.61368   0.00000  Uiso   1.00
H352   H     0.14558   0.64496   0.10410   0.00000  Uiso   1.00
H353   H     0.38754   0.79134   0.90546   0.00000  Uiso   1.00
H354   H     0.46146   0.81795   0.06021   0.00000  Uiso   1.00
H355   H     0.42243   0.76022   0.70643   0.00000  Uiso   1.00
H356   H     0.27998   0.81164   0.93900   0.00000  Uiso   1.00
H357   H     0.54144   0.82254   0.24858   0.00000  Uiso   1.00
H358   H     0.45912   0.70081   0.50260   0.00000  Uiso   1.00
H359   H     0.15875   0.80925   0.99302   0.00000  Uiso   1.00
O360   O     0.58323   0.75443   0.40824   0.00000  Uiso   1.00
O361   O     0.47522   0.59472   0.42954   0.00000  Uiso   1.00
O362   O     0.08113   0.73699   0.07296   0.00000  Uiso   1.00
N363   N     0.52122   0.69327   0.31229   0.00000  Uiso   1.00
N364   N     0.44427   0.57946   0.61485   0.00000  Uiso   1.00
N365   N     0.16343   0.68083   0.07332   0.00000  Uiso   1.00
N366   N     0.52831   0.78167   0.25253   0.00000  Uiso   1.00
N367   N     0.45135   0.66786   0.55508   0.00000  Uiso   1.00
N368   N     0.17052   0.76924   0.01356   0.00000  Uiso   1.00
