data_job_02186
_audit_creation_date              2018-12-19
_audit_creation_method            'Materials Studio'
_symmetry_space_group_name_H-M    'P1'
_symmetry_Int_Tables_number       1
_symmetry_cell_setting            triclinic
loop_
_symmetry_equiv_pos_as_xyz
  x,y,z
_cell_length_a                    24.1347
_cell_length_b                    15.2436
_cell_length_c                    19.0904
_cell_angle_alpha                 90.0000
_cell_angle_beta                  93.6754
_cell_angle_gamma                 90.0000
loop_
_atom_site_label
_atom_site_type_symbol
_atom_site_fract_x
_atom_site_fract_y
_atom_site_fract_z
_atom_site_U_iso_or_equiv
_atom_site_adp_type
_atom_site_occupancy
C1     C     0.22635   0.96958   0.31052   0.00000  Uiso   1.00
C2     C     0.23019   0.02605   0.24507   0.00000  Uiso   1.00
C3     C     0.21813   0.99872   0.17644   0.00000  Uiso   1.00
C4     C     0.22424   0.06027   0.12389   0.00000  Uiso   1.00
C5     C     0.22756   0.13488   0.01989   0.00000  Uiso   1.00
C6     C     0.28362   0.97293   0.34911   0.00000  Uiso   1.00
C7     C     0.31648   0.90093   0.36797   0.00000  Uiso   1.00
C8     C     0.36756   0.91777   0.40302   0.00000  Uiso   1.00
C9     C     0.45381   0.90991   0.46060   0.00000  Uiso   1.00
C10    C     0.18738   0.01799   0.35705   0.00000  Uiso   1.00
C11    C     0.13932   0.98388   0.38259   0.00000  Uiso   1.00
C12    C     0.10938   0.03865   0.42433   0.00000  Uiso   1.00
C13    C     0.04620   0.10076   0.49422   0.00000  Uiso   1.00
C14    C     0.25865   0.12749   0.33923   0.00000  Uiso   1.00
C15    C     0.24774   0.11182   0.26067   0.00000  Uiso   1.00
C16    C     0.25387   0.17343   0.20820   0.00000  Uiso   1.00
C17    C     0.24181   0.14620   0.13951   0.00000  Uiso   1.00
C18    C     0.30116   0.05869   0.36471   0.00000  Uiso   1.00
C19    C     0.35221   0.07564   0.39974   0.00000  Uiso   1.00
C20    C     0.38514   0.00370   0.41864   0.00000  Uiso   1.00
C21    C     0.20492   0.10376   0.37264   0.00000  Uiso   1.00
C22    C     0.17505   0.15859   0.41435   0.00000  Uiso   1.00
C23    C     0.12696   0.12458   0.43995   0.00000  Uiso   1.00
H24    H     0.21269   0.90280   0.29838   0.00000  Uiso   1.00
H25    H     0.20456   0.93233   0.16439   0.00000  Uiso   1.00
H26    H     0.30289   0.83457   0.35591   0.00000  Uiso   1.00
H27    H     0.12576   0.91750   0.37051   0.00000  Uiso   1.00
H28    H     0.20330   0.00288   0.02272   0.00000  Uiso   1.00
H29    H     0.41061   0.79674   0.42655   0.00000  Uiso   1.00
H30    H     0.03710   0.97162   0.45736   0.00000  Uiso   1.00
H31    H     0.27231   0.19427   0.35137   0.00000  Uiso   1.00
H32    H     0.26744   0.23980   0.22029   0.00000  Uiso   1.00
H33    H     0.36577   0.14203   0.41180   0.00000  Uiso   1.00
H34    H     0.18864   0.22497   0.42641   0.00000  Uiso   1.00
H35    H     0.25434   0.25243   0.06808   0.00000  Uiso   1.00
H36    H     0.46166   0.04628   0.47192   0.00000  Uiso   1.00
H37    H     0.08814   0.22117   0.50273   0.00000  Uiso   1.00
O38    O     0.22456   0.15234   0.95821   0.00000  Uiso   1.00
O39    O     0.49655   0.88188   0.48804   0.00000  Uiso   1.00
O40    O     0.00651   0.11133   0.52846   0.00000  Uiso   1.00
N41    N     0.21597   0.05537   0.05138   0.00000  Uiso   1.00
N42    N     0.40980   0.86264   0.42894   0.00000  Uiso   1.00
N43    N     0.06061   0.02613   0.45776   0.00000  Uiso   1.00
N44    N     0.24343   0.18965   0.07580   0.00000  Uiso   1.00
N45    N     0.43727   0.99692   0.45335   0.00000  Uiso   1.00
N46    N     0.08807   0.16042   0.48217   0.00000  Uiso   1.00
C47    C     0.72635   0.46958   0.31052   0.00000  Uiso   1.00
C48    C     0.73019   0.52605   0.24507   0.00000  Uiso   1.00
C49    C     0.71813   0.49872   0.17644   0.00000  Uiso   1.00
C50    C     0.72424   0.56027   0.12389   0.00000  Uiso   1.00
C51    C     0.72756   0.63488   0.01989   0.00000  Uiso   1.00
C52    C     0.78362   0.47293   0.34911   0.00000  Uiso   1.00
C53    C     0.81648   0.40093   0.36797   0.00000  Uiso   1.00
C54    C     0.86756   0.41777   0.40302   0.00000  Uiso   1.00
C55    C     0.95381   0.40991   0.46060   0.00000  Uiso   1.00
C56    C     0.68738   0.51799   0.35705   0.00000  Uiso   1.00
C57    C     0.63932   0.48388   0.38259   0.00000  Uiso   1.00
C58    C     0.60938   0.53865   0.42433   0.00000  Uiso   1.00
C59    C     0.54620   0.60076   0.49422   0.00000  Uiso   1.00
C60    C     0.75865   0.62749   0.33923   0.00000  Uiso   1.00
C61    C     0.74774   0.61182   0.26067   0.00000  Uiso   1.00
C62    C     0.75387   0.67343   0.20820   0.00000  Uiso   1.00
C63    C     0.74181   0.64620   0.13951   0.00000  Uiso   1.00
C64    C     0.80116   0.55869   0.36471   0.00000  Uiso   1.00
C65    C     0.85221   0.57564   0.39974   0.00000  Uiso   1.00
C66    C     0.88514   0.50370   0.41864   0.00000  Uiso   1.00
C67    C     0.70492   0.60376   0.37264   0.00000  Uiso   1.00
C68    C     0.67505   0.65859   0.41435   0.00000  Uiso   1.00
C69    C     0.62696   0.62458   0.43995   0.00000  Uiso   1.00
H70    H     0.71269   0.40280   0.29838   0.00000  Uiso   1.00
H71    H     0.70456   0.43233   0.16439   0.00000  Uiso   1.00
H72    H     0.80289   0.33457   0.35591   0.00000  Uiso   1.00
H73    H     0.62576   0.41750   0.37051   0.00000  Uiso   1.00
H74    H     0.70330   0.50288   0.02272   0.00000  Uiso   1.00
H75    H     0.91061   0.29674   0.42655   0.00000  Uiso   1.00
H76    H     0.53710   0.47162   0.45736   0.00000  Uiso   1.00
H77    H     0.77231   0.69427   0.35137   0.00000  Uiso   1.00
H78    H     0.76744   0.73980   0.22029   0.00000  Uiso   1.00
H79    H     0.86577   0.64203   0.41180   0.00000  Uiso   1.00
H80    H     0.68864   0.72497   0.42641   0.00000  Uiso   1.00
H81    H     0.75434   0.75243   0.06808   0.00000  Uiso   1.00
H82    H     0.96166   0.54628   0.47192   0.00000  Uiso   1.00
H83    H     0.58814   0.72117   0.50273   0.00000  Uiso   1.00
O84    O     0.72456   0.65234   0.95821   0.00000  Uiso   1.00
O85    O     0.99655   0.38188   0.48804   0.00000  Uiso   1.00
O86    O     0.50651   0.61133   0.52846   0.00000  Uiso   1.00
N87    N     0.71597   0.55537   0.05138   0.00000  Uiso   1.00
N88    N     0.90980   0.36264   0.42894   0.00000  Uiso   1.00
N89    N     0.56061   0.52613   0.45776   0.00000  Uiso   1.00
N90    N     0.74343   0.68965   0.07580   0.00000  Uiso   1.00
N91    N     0.93727   0.49692   0.45335   0.00000  Uiso   1.00
N92    N     0.58807   0.66042   0.48217   0.00000  Uiso   1.00
C93    C     0.77365   0.96958   0.18948   0.00000  Uiso   1.00
C94    C     0.76981   0.02605   0.25493   0.00000  Uiso   1.00
C95    C     0.78187   0.99872   0.32356   0.00000  Uiso   1.00
C96    C     0.77576   0.06027   0.37611   0.00000  Uiso   1.00
C97    C     0.77244   0.13488   0.48011   0.00000  Uiso   1.00
C98    C     0.71638   0.97293   0.15089   0.00000  Uiso   1.00
C99    C     0.68352   0.90093   0.13203   0.00000  Uiso   1.00
C100   C     0.63244   0.91777   0.09698   0.00000  Uiso   1.00
C101   C     0.54619   0.90991   0.03940   0.00000  Uiso   1.00
C102   C     0.81262   0.01799   0.14295   0.00000  Uiso   1.00
C103   C     0.86068   0.98388   0.11741   0.00000  Uiso   1.00
C104   C     0.89062   0.03865   0.07567   0.00000  Uiso   1.00
C105   C     0.95380   0.10076   0.00578   0.00000  Uiso   1.00
C106   C     0.74135   0.12749   0.16077   0.00000  Uiso   1.00
C107   C     0.75226   0.11182   0.23933   0.00000  Uiso   1.00
C108   C     0.74613   0.17343   0.29180   0.00000  Uiso   1.00
C109   C     0.75819   0.14620   0.36049   0.00000  Uiso   1.00
C110   C     0.69884   0.05869   0.13529   0.00000  Uiso   1.00
C111   C     0.64779   0.07564   0.10026   0.00000  Uiso   1.00
C112   C     0.61486   0.00370   0.08136   0.00000  Uiso   1.00
C113   C     0.79508   0.10376   0.12736   0.00000  Uiso   1.00
C114   C     0.82495   0.15859   0.08565   0.00000  Uiso   1.00
C115   C     0.87304   0.12458   0.06005   0.00000  Uiso   1.00
H116   H     0.78731   0.90280   0.20162   0.00000  Uiso   1.00
H117   H     0.79544   0.93233   0.33561   0.00000  Uiso   1.00
H118   H     0.69711   0.83457   0.14409   0.00000  Uiso   1.00
H119   H     0.87424   0.91750   0.12949   0.00000  Uiso   1.00
H120   H     0.79670   0.00288   0.47728   0.00000  Uiso   1.00
H121   H     0.58939   0.79674   0.07345   0.00000  Uiso   1.00
H122   H     0.96290   0.97162   0.04264   0.00000  Uiso   1.00
H123   H     0.72769   0.19427   0.14863   0.00000  Uiso   1.00
H124   H     0.73256   0.23980   0.27971   0.00000  Uiso   1.00
H125   H     0.63423   0.14203   0.08820   0.00000  Uiso   1.00
H126   H     0.81136   0.22497   0.07359   0.00000  Uiso   1.00
H127   H     0.74566   0.25243   0.43192   0.00000  Uiso   1.00
H128   H     0.53834   0.04628   0.02808   0.00000  Uiso   1.00
H129   H     0.91186   0.22117   0.99727   0.00000  Uiso   1.00
O130   O     0.77544   0.15234   0.54179   0.00000  Uiso   1.00
O131   O     0.50345   0.88188   0.01196   0.00000  Uiso   1.00
O132   O     0.99349   0.11133   0.97154   0.00000  Uiso   1.00
N133   N     0.78403   0.05537   0.44862   0.00000  Uiso   1.00
N134   N     0.59020   0.86264   0.07106   0.00000  Uiso   1.00
N135   N     0.93939   0.02613   0.04224   0.00000  Uiso   1.00
N136   N     0.75657   0.18965   0.42420   0.00000  Uiso   1.00
N137   N     0.56273   0.99692   0.04665   0.00000  Uiso   1.00
N138   N     0.91193   0.16042   0.01783   0.00000  Uiso   1.00
C139   C     0.27365   0.46958   0.18948   0.00000  Uiso   1.00
C140   C     0.26981   0.52605   0.25493   0.00000  Uiso   1.00
C141   C     0.28187   0.49872   0.32356   0.00000  Uiso   1.00
C142   C     0.27576   0.56027   0.37611   0.00000  Uiso   1.00
C143   C     0.27244   0.63488   0.48011   0.00000  Uiso   1.00
C144   C     0.21638   0.47293   0.15089   0.00000  Uiso   1.00
C145   C     0.18352   0.40093   0.13203   0.00000  Uiso   1.00
C146   C     0.13244   0.41777   0.09698   0.00000  Uiso   1.00
C147   C     0.04619   0.40991   0.03940   0.00000  Uiso   1.00
C148   C     0.31262   0.51799   0.14295   0.00000  Uiso   1.00
C149   C     0.36068   0.48388   0.11741   0.00000  Uiso   1.00
C150   C     0.39062   0.53865   0.07567   0.00000  Uiso   1.00
C151   C     0.45380   0.60076   0.00578   0.00000  Uiso   1.00
C152   C     0.24135   0.62749   0.16077   0.00000  Uiso   1.00
C153   C     0.25226   0.61182   0.23933   0.00000  Uiso   1.00
C154   C     0.24613   0.67343   0.29180   0.00000  Uiso   1.00
C155   C     0.25819   0.64620   0.36049   0.00000  Uiso   1.00
C156   C     0.19884   0.55869   0.13529   0.00000  Uiso   1.00
C157   C     0.14779   0.57564   0.10026   0.00000  Uiso   1.00
C158   C     0.11486   0.50370   0.08136   0.00000  Uiso   1.00
C159   C     0.29508   0.60376   0.12736   0.00000  Uiso   1.00
C160   C     0.32495   0.65859   0.08565   0.00000  Uiso   1.00
C161   C     0.37304   0.62458   0.06005   0.00000  Uiso   1.00
H162   H     0.28731   0.40280   0.20162   0.00000  Uiso   1.00
H163   H     0.29544   0.43233   0.33561   0.00000  Uiso   1.00
H164   H     0.19711   0.33457   0.14409   0.00000  Uiso   1.00
H165   H     0.37424   0.41750   0.12949   0.00000  Uiso   1.00
H166   H     0.29670   0.50288   0.47728   0.00000  Uiso   1.00
H167   H     0.08939   0.29674   0.07345   0.00000  Uiso   1.00
H168   H     0.46290   0.47162   0.04264   0.00000  Uiso   1.00
H169   H     0.22769   0.69427   0.14863   0.00000  Uiso   1.00
H170   H     0.23256   0.73980   0.27971   0.00000  Uiso   1.00
H171   H     0.13423   0.64203   0.08820   0.00000  Uiso   1.00
H172   H     0.31136   0.72497   0.07359   0.00000  Uiso   1.00
H173   H     0.24566   0.75243   0.43192   0.00000  Uiso   1.00
H174   H     0.03834   0.54628   0.02808   0.00000  Uiso   1.00
H175   H     0.41186   0.72117   0.99727   0.00000  Uiso   1.00
O176   O     0.27544   0.65234   0.54179   0.00000  Uiso   1.00
O177   O     0.00345   0.38188   0.01196   0.00000  Uiso   1.00
O178   O     0.49349   0.61133   0.97154   0.00000  Uiso   1.00
N179   N     0.28403   0.55537   0.44862   0.00000  Uiso   1.00
N180   N     0.09020   0.36264   0.07106   0.00000  Uiso   1.00
N181   N     0.43939   0.52613   0.04224   0.00000  Uiso   1.00
N182   N     0.25657   0.68965   0.42420   0.00000  Uiso   1.00
N183   N     0.06273   0.49692   0.04665   0.00000  Uiso   1.00
N184   N     0.41193   0.66042   0.01783   0.00000  Uiso   1.00
C185   C     0.77365   0.03042   0.68948   0.00000  Uiso   1.00
C186   C     0.76981   0.97395   0.75493   0.00000  Uiso   1.00
C187   C     0.78187   0.00128   0.82356   0.00000  Uiso   1.00
C188   C     0.77576   0.93973   0.87611   0.00000  Uiso   1.00
C189   C     0.77244   0.86512   0.98011   0.00000  Uiso   1.00
C190   C     0.71638   0.02707   0.65089   0.00000  Uiso   1.00
C191   C     0.68352   0.09907   0.63203   0.00000  Uiso   1.00
C192   C     0.63244   0.08223   0.59698   0.00000  Uiso   1.00
C193   C     0.54619   0.09009   0.53940   0.00000  Uiso   1.00
C194   C     0.81262   0.98201   0.64295   0.00000  Uiso   1.00
C195   C     0.86068   0.01612   0.61741   0.00000  Uiso   1.00
C196   C     0.89062   0.96135   0.57567   0.00000  Uiso   1.00
C197   C     0.95380   0.89924   0.50578   0.00000  Uiso   1.00
C198   C     0.74135   0.87251   0.66077   0.00000  Uiso   1.00
C199   C     0.75226   0.88818   0.73933   0.00000  Uiso   1.00
C200   C     0.74613   0.82657   0.79180   0.00000  Uiso   1.00
C201   C     0.75819   0.85380   0.86049   0.00000  Uiso   1.00
C202   C     0.69884   0.94131   0.63529   0.00000  Uiso   1.00
C203   C     0.64779   0.92436   0.60026   0.00000  Uiso   1.00
C204   C     0.61486   0.99630   0.58136   0.00000  Uiso   1.00
C205   C     0.79508   0.89624   0.62736   0.00000  Uiso   1.00
C206   C     0.82495   0.84141   0.58565   0.00000  Uiso   1.00
C207   C     0.87304   0.87542   0.56005   0.00000  Uiso   1.00
H208   H     0.78731   0.09720   0.70162   0.00000  Uiso   1.00
H209   H     0.79544   0.06767   0.83561   0.00000  Uiso   1.00
H210   H     0.69711   0.16543   0.64409   0.00000  Uiso   1.00
H211   H     0.87424   0.08250   0.62949   0.00000  Uiso   1.00
H212   H     0.79670   0.99712   0.97728   0.00000  Uiso   1.00
H213   H     0.58939   0.20326   0.57345   0.00000  Uiso   1.00
H214   H     0.96290   0.02838   0.54264   0.00000  Uiso   1.00
H215   H     0.72769   0.80573   0.64863   0.00000  Uiso   1.00
H216   H     0.73256   0.76020   0.77971   0.00000  Uiso   1.00
H217   H     0.63423   0.85797   0.58820   0.00000  Uiso   1.00
H218   H     0.81136   0.77503   0.57359   0.00000  Uiso   1.00
H219   H     0.74566   0.74757   0.93192   0.00000  Uiso   1.00
H220   H     0.53834   0.95372   0.52808   0.00000  Uiso   1.00
H221   H     0.91186   0.77883   0.49727   0.00000  Uiso   1.00
O222   O     0.77544   0.84766   0.04179   0.00000  Uiso   1.00
O223   O     0.50345   0.11812   0.51196   0.00000  Uiso   1.00
O224   O     0.99349   0.88867   0.47154   0.00000  Uiso   1.00
N225   N     0.78403   0.94463   0.94862   0.00000  Uiso   1.00
N226   N     0.59020   0.13736   0.57106   0.00000  Uiso   1.00
N227   N     0.93939   0.97387   0.54224   0.00000  Uiso   1.00
N228   N     0.75657   0.81035   0.92420   0.00000  Uiso   1.00
N229   N     0.56273   0.00308   0.54665   0.00000  Uiso   1.00
N230   N     0.91193   0.83958   0.51783   0.00000  Uiso   1.00
C231   C     0.27365   0.53042   0.68948   0.00000  Uiso   1.00
C232   C     0.26981   0.47395   0.75493   0.00000  Uiso   1.00
C233   C     0.28187   0.50128   0.82356   0.00000  Uiso   1.00
C234   C     0.27576   0.43973   0.87611   0.00000  Uiso   1.00
C235   C     0.27244   0.36512   0.98011   0.00000  Uiso   1.00
C236   C     0.21638   0.52707   0.65089   0.00000  Uiso   1.00
C237   C     0.18352   0.59907   0.63203   0.00000  Uiso   1.00
C238   C     0.13244   0.58223   0.59698   0.00000  Uiso   1.00
C239   C     0.04619   0.59009   0.53940   0.00000  Uiso   1.00
C240   C     0.31262   0.48201   0.64295   0.00000  Uiso   1.00
C241   C     0.36068   0.51612   0.61741   0.00000  Uiso   1.00
C242   C     0.39062   0.46135   0.57567   0.00000  Uiso   1.00
C243   C     0.45380   0.39924   0.50578   0.00000  Uiso   1.00
C244   C     0.24135   0.37251   0.66077   0.00000  Uiso   1.00
C245   C     0.25226   0.38818   0.73933   0.00000  Uiso   1.00
C246   C     0.24613   0.32657   0.79180   0.00000  Uiso   1.00
C247   C     0.25819   0.35380   0.86049   0.00000  Uiso   1.00
C248   C     0.19884   0.44131   0.63529   0.00000  Uiso   1.00
C249   C     0.14779   0.42436   0.60026   0.00000  Uiso   1.00
C250   C     0.11486   0.49630   0.58136   0.00000  Uiso   1.00
C251   C     0.29508   0.39624   0.62736   0.00000  Uiso   1.00
C252   C     0.32495   0.34141   0.58565   0.00000  Uiso   1.00
C253   C     0.37304   0.37542   0.56005   0.00000  Uiso   1.00
H254   H     0.28731   0.59720   0.70162   0.00000  Uiso   1.00
H255   H     0.29544   0.56767   0.83561   0.00000  Uiso   1.00
H256   H     0.19711   0.66543   0.64409   0.00000  Uiso   1.00
H257   H     0.37424   0.58250   0.62949   0.00000  Uiso   1.00
H258   H     0.29670   0.49712   0.97728   0.00000  Uiso   1.00
H259   H     0.08939   0.70326   0.57345   0.00000  Uiso   1.00
H260   H     0.46290   0.52838   0.54264   0.00000  Uiso   1.00
H261   H     0.22769   0.30573   0.64863   0.00000  Uiso   1.00
H262   H     0.23256   0.26020   0.77971   0.00000  Uiso   1.00
H263   H     0.13423   0.35797   0.58820   0.00000  Uiso   1.00
H264   H     0.31136   0.27503   0.57359   0.00000  Uiso   1.00
H265   H     0.24566   0.24757   0.93192   0.00000  Uiso   1.00
H266   H     0.03834   0.45372   0.52808   0.00000  Uiso   1.00
H267   H     0.41186   0.27883   0.49727   0.00000  Uiso   1.00
O268   O     0.27544   0.34766   0.04179   0.00000  Uiso   1.00
O269   O     0.00345   0.61812   0.51196   0.00000  Uiso   1.00
O270   O     0.49349   0.38867   0.47154   0.00000  Uiso   1.00
N271   N     0.28403   0.44463   0.94862   0.00000  Uiso   1.00
N272   N     0.09020   0.63736   0.57106   0.00000  Uiso   1.00
N273   N     0.43939   0.47387   0.54224   0.00000  Uiso   1.00
N274   N     0.25657   0.31035   0.92420   0.00000  Uiso   1.00
N275   N     0.06273   0.50308   0.54665   0.00000  Uiso   1.00
N276   N     0.41193   0.33958   0.51783   0.00000  Uiso   1.00
C277   C     0.22635   0.03042   0.81052   0.00000  Uiso   1.00
C278   C     0.23019   0.97395   0.74507   0.00000  Uiso   1.00
C279   C     0.21813   0.00128   0.67644   0.00000  Uiso   1.00
C280   C     0.22424   0.93973   0.62389   0.00000  Uiso   1.00
C281   C     0.22756   0.86512   0.51989   0.00000  Uiso   1.00
C282   C     0.28362   0.02707   0.84911   0.00000  Uiso   1.00
C283   C     0.31648   0.09907   0.86797   0.00000  Uiso   1.00
C284   C     0.36756   0.08223   0.90302   0.00000  Uiso   1.00
C285   C     0.45381   0.09009   0.96060   0.00000  Uiso   1.00
C286   C     0.18738   0.98201   0.85705   0.00000  Uiso   1.00
C287   C     0.13932   0.01612   0.88259   0.00000  Uiso   1.00
C288   C     0.10938   0.96135   0.92433   0.00000  Uiso   1.00
C289   C     0.04620   0.89924   0.99422   0.00000  Uiso   1.00
C290   C     0.25865   0.87251   0.83923   0.00000  Uiso   1.00
C291   C     0.24774   0.88818   0.76067   0.00000  Uiso   1.00
C292   C     0.25387   0.82657   0.70820   0.00000  Uiso   1.00
C293   C     0.24181   0.85380   0.63951   0.00000  Uiso   1.00
C294   C     0.30116   0.94131   0.86471   0.00000  Uiso   1.00
C295   C     0.35221   0.92436   0.89974   0.00000  Uiso   1.00
C296   C     0.38514   0.99630   0.91864   0.00000  Uiso   1.00
C297   C     0.20492   0.89624   0.87264   0.00000  Uiso   1.00
C298   C     0.17505   0.84141   0.91435   0.00000  Uiso   1.00
C299   C     0.12696   0.87542   0.93995   0.00000  Uiso   1.00
H300   H     0.21269   0.09720   0.79838   0.00000  Uiso   1.00
H301   H     0.20456   0.06767   0.66439   0.00000  Uiso   1.00
H302   H     0.30289   0.16543   0.85591   0.00000  Uiso   1.00
H303   H     0.12576   0.08250   0.87051   0.00000  Uiso   1.00
H304   H     0.20330   0.99712   0.52272   0.00000  Uiso   1.00
H305   H     0.41061   0.20326   0.92655   0.00000  Uiso   1.00
H306   H     0.03710   0.02838   0.95736   0.00000  Uiso   1.00
H307   H     0.27231   0.80573   0.85137   0.00000  Uiso   1.00
H308   H     0.26744   0.76020   0.72029   0.00000  Uiso   1.00
H309   H     0.36577   0.85797   0.91180   0.00000  Uiso   1.00
H310   H     0.18864   0.77503   0.92641   0.00000  Uiso   1.00
H311   H     0.25434   0.74757   0.56808   0.00000  Uiso   1.00
H312   H     0.46166   0.95372   0.97192   0.00000  Uiso   1.00
H313   H     0.08814   0.77883   0.00273   0.00000  Uiso   1.00
O314   O     0.22456   0.84766   0.45821   0.00000  Uiso   1.00
O315   O     0.49655   0.11812   0.98804   0.00000  Uiso   1.00
O316   O     0.00651   0.88867   0.02846   0.00000  Uiso   1.00
N317   N     0.21597   0.94463   0.55138   0.00000  Uiso   1.00
N318   N     0.40980   0.13736   0.92894   0.00000  Uiso   1.00
N319   N     0.06061   0.97387   0.95776   0.00000  Uiso   1.00
N320   N     0.24343   0.81035   0.57580   0.00000  Uiso   1.00
N321   N     0.43727   0.00308   0.95335   0.00000  Uiso   1.00
N322   N     0.08807   0.83958   0.98217   0.00000  Uiso   1.00
C323   C     0.72635   0.53042   0.81052   0.00000  Uiso   1.00
C324   C     0.73019   0.47395   0.74507   0.00000  Uiso   1.00
C325   C     0.71813   0.50128   0.67644   0.00000  Uiso   1.00
C326   C     0.72424   0.43973   0.62389   0.00000  Uiso   1.00
C327   C     0.72756   0.36512   0.51989   0.00000  Uiso   1.00
C328   C     0.78362   0.52707   0.84911   0.00000  Uiso   1.00
C329   C     0.81648   0.59907   0.86797   0.00000  Uiso   1.00
C330   C     0.86756   0.58223   0.90302   0.00000  Uiso   1.00
C331   C     0.95381   0.59009   0.96060   0.00000  Uiso   1.00
C332   C     0.68738   0.48201   0.85705   0.00000  Uiso   1.00
C333   C     0.63932   0.51612   0.88259   0.00000  Uiso   1.00
C334   C     0.60938   0.46135   0.92433   0.00000  Uiso   1.00
C335   C     0.54620   0.39924   0.99422   0.00000  Uiso   1.00
C336   C     0.75865   0.37251   0.83923   0.00000  Uiso   1.00
C337   C     0.74774   0.38818   0.76067   0.00000  Uiso   1.00
C338   C     0.75387   0.32657   0.70820   0.00000  Uiso   1.00
C339   C     0.74181   0.35380   0.63951   0.00000  Uiso   1.00
C340   C     0.80116   0.44131   0.86471   0.00000  Uiso   1.00
C341   C     0.85221   0.42436   0.89974   0.00000  Uiso   1.00
C342   C     0.88514   0.49630   0.91864   0.00000  Uiso   1.00
C343   C     0.70492   0.39624   0.87264   0.00000  Uiso   1.00
C344   C     0.67505   0.34141   0.91435   0.00000  Uiso   1.00
C345   C     0.62696   0.37542   0.93995   0.00000  Uiso   1.00
H346   H     0.71269   0.59720   0.79838   0.00000  Uiso   1.00
H347   H     0.70456   0.56767   0.66439   0.00000  Uiso   1.00
H348   H     0.80289   0.66543   0.85591   0.00000  Uiso   1.00
H349   H     0.62576   0.58250   0.87051   0.00000  Uiso   1.00
H350   H     0.70330   0.49712   0.52272   0.00000  Uiso   1.00
H351   H     0.91061   0.70326   0.92655   0.00000  Uiso   1.00
H352   H     0.53710   0.52838   0.95736   0.00000  Uiso   1.00
H353   H     0.77231   0.30573   0.85137   0.00000  Uiso   1.00
H354   H     0.76744   0.26020   0.72029   0.00000  Uiso   1.00
H355   H     0.86577   0.35797   0.91180   0.00000  Uiso   1.00
H356   H     0.68864   0.27503   0.92641   0.00000  Uiso   1.00
H357   H     0.75434   0.24757   0.56808   0.00000  Uiso   1.00
H358   H     0.96166   0.45372   0.97192   0.00000  Uiso   1.00
H359   H     0.58814   0.27883   0.00273   0.00000  Uiso   1.00
O360   O     0.72456   0.34766   0.45821   0.00000  Uiso   1.00
O361   O     0.99655   0.61812   0.98804   0.00000  Uiso   1.00
O362   O     0.50651   0.38867   0.02846   0.00000  Uiso   1.00
N363   N     0.71597   0.44463   0.55138   0.00000  Uiso   1.00
N364   N     0.90980   0.63736   0.92894   0.00000  Uiso   1.00
N365   N     0.56061   0.47387   0.95776   0.00000  Uiso   1.00
N366   N     0.74343   0.31035   0.57580   0.00000  Uiso   1.00
N367   N     0.93727   0.50308   0.95335   0.00000  Uiso   1.00
N368   N     0.58807   0.33958   0.98217   0.00000  Uiso   1.00
