data_job_01410
_audit_creation_date              2018-12-19
_audit_creation_method            'Materials Studio'
_symmetry_space_group_name_H-M    'P1'
_symmetry_Int_Tables_number       1
_symmetry_cell_setting            triclinic
loop_
_symmetry_equiv_pos_as_xyz
  x,y,z
_cell_length_a                    12.5062
_cell_length_b                    7.5285
_cell_length_c                    32.9688
_cell_angle_alpha                 90.0000
_cell_angle_beta                  121.2026
_cell_angle_gamma                 90.0000
loop_
_atom_site_label
_atom_site_type_symbol
_atom_site_fract_x
_atom_site_fract_y
_atom_site_fract_z
_atom_site_U_iso_or_equiv
_atom_site_adp_type
_atom_site_occupancy
C1     C     0.96042   0.01411   0.10608   0.00000  Uiso   1.00
C2     C     0.92817   0.08859   0.14146   0.00000  Uiso   1.00
C3     C     0.85492   0.00518   0.15612   0.00000  Uiso   1.00
C4     C     0.83640   0.09527   0.18873   0.00000  Uiso   1.00
C5     C     0.77822   0.18548   0.24102   0.00000  Uiso   1.00
C6     C     0.91702   0.15288   0.06693   0.00000  Uiso   1.00
C7     C     0.83442   0.12350   0.01894   0.00000  Uiso   1.00
C8     C     0.80652   0.26771   0.98882   0.00000  Uiso   1.00
C9     C     0.73111   0.45769   0.92540   0.00000  Uiso   1.00
C10    C     0.10277   0.01217   0.13165   0.00000  Uiso   1.00
C11    C     0.17635   0.86450   0.13805   0.00000  Uiso   1.00
C12    C     0.30485   0.89025   0.16240   0.00000  Uiso   1.00
C13    C     0.51785   0.86176   0.19947   0.00000  Uiso   1.00
C14    C     0.05776   0.32243   0.13791   0.00000  Uiso   1.00
C15    C     0.98104   0.25606   0.15875   0.00000  Uiso   1.00
C16    C     0.96263   0.34630   0.19135   0.00000  Uiso   1.00
C17    C     0.88937   0.26303   0.20606   0.00000  Uiso   1.00
C18    C     0.96989   0.32034   0.08423   0.00000  Uiso   1.00
C19    C     0.94212   0.46462   0.05416   0.00000  Uiso   1.00
C20    C     0.85949   0.43548   0.00614   0.00000  Uiso   1.00
C21    C     0.15565   0.17963   0.14894   0.00000  Uiso   1.00
C22    C     0.28405   0.20562   0.17328   0.00000  Uiso   1.00
C23    C     0.35782   0.05802   0.17972   0.00000  Uiso   1.00
H24    H     0.91925   0.88374   0.09261   0.00000  Uiso   1.00
H25    H     0.81401   0.87559   0.14273   0.00000  Uiso   1.00
H26    H     0.79352   0.99389   0.00557   0.00000  Uiso   1.00
H27    H     0.13540   0.73493   0.12467   0.00000  Uiso   1.00
H28    H     0.72062   0.94043   0.20591   0.00000  Uiso   1.00
H29    H     0.67745   0.18986   0.91670   0.00000  Uiso   1.00
H30    H     0.39837   0.64379   0.16783   0.00000  Uiso   1.00
H31    H     0.09893   0.45281   0.15138   0.00000  Uiso   1.00
H32    H     0.00355   0.47589   0.20472   0.00000  Uiso   1.00
H33    H     0.98306   0.59419   0.06756   0.00000  Uiso   1.00
H34    H     0.32494   0.33523   0.18666   0.00000  Uiso   1.00
H35    H     0.87445   0.42766   0.25622   0.00000  Uiso   1.00
H36    H     0.83128   0.67709   0.96701   0.00000  Uiso   1.00
H37    H     0.55220   0.13102   0.21815   0.00000  Uiso   1.00
O38    O     0.73151   0.18899   0.26509   0.00000  Uiso   1.00
O39    O     0.67490   0.51621   0.88565   0.00000  Uiso   1.00
O40    O     0.62073   0.79978   0.21514   0.00000  Uiso   1.00
N41    N     0.76993   0.05192   0.21044   0.00000  Uiso   1.00
N42    N     0.72955   0.28513   0.94004   0.00000  Uiso   1.00
N43    N     0.40355   0.77461   0.17482   0.00000  Uiso   1.00
N44    N     0.85271   0.31409   0.23751   0.00000  Uiso   1.00
N45    N     0.81233   0.54730   0.96711   0.00000  Uiso   1.00
N46    N     0.48633   0.03678   0.20190   0.00000  Uiso   1.00
C47    C     0.03958   0.51411   0.39392   0.00000  Uiso   1.00
C48    C     0.07183   0.58859   0.35854   0.00000  Uiso   1.00
C49    C     0.14508   0.50518   0.34388   0.00000  Uiso   1.00
C50    C     0.16360   0.59527   0.31127   0.00000  Uiso   1.00
C51    C     0.22178   0.68548   0.25898   0.00000  Uiso   1.00
C52    C     0.08298   0.65288   0.43307   0.00000  Uiso   1.00
C53    C     0.16558   0.62350   0.48106   0.00000  Uiso   1.00
C54    C     0.19348   0.76771   0.51118   0.00000  Uiso   1.00
C55    C     0.26889   0.95769   0.57460   0.00000  Uiso   1.00
C56    C     0.89723   0.51217   0.36835   0.00000  Uiso   1.00
C57    C     0.82365   0.36450   0.36195   0.00000  Uiso   1.00
C58    C     0.69515   0.39025   0.33760   0.00000  Uiso   1.00
C59    C     0.48215   0.36176   0.30053   0.00000  Uiso   1.00
C60    C     0.94224   0.82243   0.36209   0.00000  Uiso   1.00
C61    C     0.01896   0.75606   0.34125   0.00000  Uiso   1.00
C62    C     0.03737   0.84630   0.30865   0.00000  Uiso   1.00
C63    C     0.11063   0.76303   0.29394   0.00000  Uiso   1.00
C64    C     0.03011   0.82034   0.41577   0.00000  Uiso   1.00
C65    C     0.05788   0.96462   0.44584   0.00000  Uiso   1.00
C66    C     0.14051   0.93548   0.49386   0.00000  Uiso   1.00
C67    C     0.84435   0.67963   0.35106   0.00000  Uiso   1.00
C68    C     0.71595   0.70562   0.32672   0.00000  Uiso   1.00
C69    C     0.64218   0.55802   0.32028   0.00000  Uiso   1.00
H70    H     0.08075   0.38374   0.40739   0.00000  Uiso   1.00
H71    H     0.18599   0.37559   0.35727   0.00000  Uiso   1.00
H72    H     0.20648   0.49389   0.49443   0.00000  Uiso   1.00
H73    H     0.86460   0.23493   0.37533   0.00000  Uiso   1.00
H74    H     0.27938   0.44043   0.29409   0.00000  Uiso   1.00
H75    H     0.32255   0.68986   0.58330   0.00000  Uiso   1.00
H76    H     0.60163   0.14379   0.33217   0.00000  Uiso   1.00
H77    H     0.90107   0.95281   0.34862   0.00000  Uiso   1.00
H78    H     0.99645   0.97589   0.29528   0.00000  Uiso   1.00
H79    H     0.01694   0.09419   0.43244   0.00000  Uiso   1.00
H80    H     0.67506   0.83523   0.31334   0.00000  Uiso   1.00
H81    H     0.12555   0.92766   0.24378   0.00000  Uiso   1.00
H82    H     0.16872   0.17709   0.53299   0.00000  Uiso   1.00
H83    H     0.44780   0.63102   0.28185   0.00000  Uiso   1.00
O84    O     0.26849   0.68899   0.23491   0.00000  Uiso   1.00
O85    O     0.32510   0.01621   0.61435   0.00000  Uiso   1.00
O86    O     0.37927   0.29978   0.28486   0.00000  Uiso   1.00
N87    N     0.23007   0.55192   0.28956   0.00000  Uiso   1.00
N88    N     0.27045   0.78513   0.55996   0.00000  Uiso   1.00
N89    N     0.59645   0.27461   0.32518   0.00000  Uiso   1.00
N90    N     0.14729   0.81409   0.26249   0.00000  Uiso   1.00
N91    N     0.18767   0.04730   0.53289   0.00000  Uiso   1.00
N92    N     0.51367   0.53678   0.29810   0.00000  Uiso   1.00
C93    C     0.03958   0.98589   0.89392   0.00000  Uiso   1.00
C94    C     0.07183   0.91141   0.85854   0.00000  Uiso   1.00
C95    C     0.14508   0.99482   0.84388   0.00000  Uiso   1.00
C96    C     0.16360   0.90473   0.81127   0.00000  Uiso   1.00
C97    C     0.22178   0.81452   0.75898   0.00000  Uiso   1.00
C98    C     0.08298   0.84712   0.93307   0.00000  Uiso   1.00
C99    C     0.16558   0.87650   0.98106   0.00000  Uiso   1.00
C100   C     0.19348   0.73229   0.01118   0.00000  Uiso   1.00
C101   C     0.26889   0.54231   0.07460   0.00000  Uiso   1.00
C102   C     0.89723   0.98783   0.86835   0.00000  Uiso   1.00
C103   C     0.82365   0.13550   0.86195   0.00000  Uiso   1.00
C104   C     0.69515   0.10975   0.83760   0.00000  Uiso   1.00
C105   C     0.48215   0.13824   0.80053   0.00000  Uiso   1.00
C106   C     0.94224   0.67757   0.86209   0.00000  Uiso   1.00
C107   C     0.01896   0.74394   0.84125   0.00000  Uiso   1.00
C108   C     0.03737   0.65370   0.80865   0.00000  Uiso   1.00
C109   C     0.11063   0.73697   0.79394   0.00000  Uiso   1.00
C110   C     0.03011   0.67966   0.91577   0.00000  Uiso   1.00
C111   C     0.05788   0.53538   0.94584   0.00000  Uiso   1.00
C112   C     0.14051   0.56452   0.99386   0.00000  Uiso   1.00
C113   C     0.84435   0.82037   0.85106   0.00000  Uiso   1.00
C114   C     0.71595   0.79438   0.82672   0.00000  Uiso   1.00
C115   C     0.64218   0.94198   0.82028   0.00000  Uiso   1.00
H116   H     0.08075   0.11626   0.90739   0.00000  Uiso   1.00
H117   H     0.18599   0.12441   0.85727   0.00000  Uiso   1.00
H118   H     0.20648   0.00611   0.99443   0.00000  Uiso   1.00
H119   H     0.86460   0.26507   0.87533   0.00000  Uiso   1.00
H120   H     0.27938   0.05957   0.79409   0.00000  Uiso   1.00
H121   H     0.32255   0.81014   0.08330   0.00000  Uiso   1.00
H122   H     0.60163   0.35621   0.83217   0.00000  Uiso   1.00
H123   H     0.90107   0.54719   0.84862   0.00000  Uiso   1.00
H124   H     0.99645   0.52411   0.79528   0.00000  Uiso   1.00
H125   H     0.01694   0.40581   0.93244   0.00000  Uiso   1.00
H126   H     0.67506   0.66477   0.81334   0.00000  Uiso   1.00
H127   H     0.12555   0.57234   0.74378   0.00000  Uiso   1.00
H128   H     0.16872   0.32291   0.03299   0.00000  Uiso   1.00
H129   H     0.44780   0.86898   0.78185   0.00000  Uiso   1.00
O130   O     0.26849   0.81101   0.73491   0.00000  Uiso   1.00
O131   O     0.32510   0.48379   0.11435   0.00000  Uiso   1.00
O132   O     0.37927   0.20022   0.78486   0.00000  Uiso   1.00
N133   N     0.23007   0.94808   0.78956   0.00000  Uiso   1.00
N134   N     0.27045   0.71487   0.05996   0.00000  Uiso   1.00
N135   N     0.59645   0.22539   0.82518   0.00000  Uiso   1.00
N136   N     0.14729   0.68591   0.76249   0.00000  Uiso   1.00
N137   N     0.18767   0.45270   0.03289   0.00000  Uiso   1.00
N138   N     0.51367   0.96322   0.79810   0.00000  Uiso   1.00
C139   C     0.96042   0.48589   0.60608   0.00000  Uiso   1.00
C140   C     0.92817   0.41141   0.64146   0.00000  Uiso   1.00
C141   C     0.85492   0.49482   0.65612   0.00000  Uiso   1.00
C142   C     0.83640   0.40473   0.68873   0.00000  Uiso   1.00
C143   C     0.77822   0.31452   0.74102   0.00000  Uiso   1.00
C144   C     0.91702   0.34712   0.56693   0.00000  Uiso   1.00
C145   C     0.83442   0.37650   0.51894   0.00000  Uiso   1.00
C146   C     0.80652   0.23229   0.48882   0.00000  Uiso   1.00
C147   C     0.73111   0.04231   0.42540   0.00000  Uiso   1.00
C148   C     0.10277   0.48783   0.63165   0.00000  Uiso   1.00
C149   C     0.17635   0.63550   0.63805   0.00000  Uiso   1.00
C150   C     0.30485   0.60975   0.66240   0.00000  Uiso   1.00
C151   C     0.51785   0.63824   0.69947   0.00000  Uiso   1.00
C152   C     0.05776   0.17757   0.63791   0.00000  Uiso   1.00
C153   C     0.98104   0.24394   0.65875   0.00000  Uiso   1.00
C154   C     0.96263   0.15370   0.69135   0.00000  Uiso   1.00
C155   C     0.88937   0.23697   0.70606   0.00000  Uiso   1.00
C156   C     0.96989   0.17966   0.58423   0.00000  Uiso   1.00
C157   C     0.94212   0.03538   0.55416   0.00000  Uiso   1.00
C158   C     0.85949   0.06452   0.50614   0.00000  Uiso   1.00
C159   C     0.15565   0.32037   0.64894   0.00000  Uiso   1.00
C160   C     0.28405   0.29438   0.67328   0.00000  Uiso   1.00
C161   C     0.35782   0.44198   0.67972   0.00000  Uiso   1.00
H162   H     0.91925   0.61626   0.59261   0.00000  Uiso   1.00
H163   H     0.81401   0.62441   0.64273   0.00000  Uiso   1.00
H164   H     0.79352   0.50611   0.50557   0.00000  Uiso   1.00
H165   H     0.13540   0.76507   0.62467   0.00000  Uiso   1.00
H166   H     0.72062   0.55957   0.70591   0.00000  Uiso   1.00
H167   H     0.67745   0.31014   0.41670   0.00000  Uiso   1.00
H168   H     0.39837   0.85621   0.66783   0.00000  Uiso   1.00
H169   H     0.09893   0.04719   0.65138   0.00000  Uiso   1.00
H170   H     0.00355   0.02411   0.70472   0.00000  Uiso   1.00
H171   H     0.98306   0.90581   0.56756   0.00000  Uiso   1.00
H172   H     0.32494   0.16477   0.68666   0.00000  Uiso   1.00
H173   H     0.87445   0.07234   0.75622   0.00000  Uiso   1.00
H174   H     0.83128   0.82291   0.46701   0.00000  Uiso   1.00
H175   H     0.55220   0.36898   0.71815   0.00000  Uiso   1.00
O176   O     0.73151   0.31101   0.76509   0.00000  Uiso   1.00
O177   O     0.67490   0.98379   0.38565   0.00000  Uiso   1.00
O178   O     0.62073   0.70022   0.71514   0.00000  Uiso   1.00
N179   N     0.76993   0.44808   0.71044   0.00000  Uiso   1.00
N180   N     0.72955   0.21487   0.44004   0.00000  Uiso   1.00
N181   N     0.40355   0.72539   0.67482   0.00000  Uiso   1.00
N182   N     0.85271   0.18591   0.73751   0.00000  Uiso   1.00
N183   N     0.81233   0.95270   0.46711   0.00000  Uiso   1.00
N184   N     0.48633   0.46322   0.70190   0.00000  Uiso   1.00
