data_job_04102
_audit_creation_date              2018-12-19
_audit_creation_method            'Materials Studio'
_symmetry_space_group_name_H-M    'P1'
_symmetry_Int_Tables_number       1
_symmetry_cell_setting            triclinic
loop_
_symmetry_equiv_pos_as_xyz
  x,y,z
_cell_length_a                    32.7150
_cell_length_b                    7.0624
_cell_length_c                    42.4007
_cell_angle_alpha                 90.0000
_cell_angle_beta                  90.0000
_cell_angle_gamma                 90.0000
loop_
_atom_site_label
_atom_site_type_symbol
_atom_site_fract_x
_atom_site_fract_y
_atom_site_fract_z
_atom_site_U_iso_or_equiv
_atom_site_adp_type
_atom_site_occupancy
C1     C     0.04938   0.37312   0.59901   0.00000  Uiso   1.00
C2     C     0.01884   0.31929   0.57336   0.00000  Uiso   1.00
C3     C     0.99292   0.44326   0.55771   0.00000  Uiso   1.00
C4     C     0.96725   0.36622   0.53502   0.00000  Uiso   1.00
C5     C     0.91978   0.31214   0.49623   0.00000  Uiso   1.00
C6     C     0.03871   0.25161   0.62758   0.00000  Uiso   1.00
C7     C     0.02950   0.31868   0.65751   0.00000  Uiso   1.00
C8     C     0.02057   0.18465   0.68046   0.00000  Uiso   1.00
C9     C     0.00397   0.02549   0.72585   0.00000  Uiso   1.00
C10    C     0.09093   0.30361   0.58754   0.00000  Uiso   1.00
C11    C     0.12564   0.41439   0.58382   0.00000  Uiso   1.00
C12    C     0.16067   0.32413   0.57306   0.00000  Uiso   1.00
C13    C     0.22515   0.24571   0.55630   0.00000  Uiso   1.00
C14    C     0.04989   0.01583   0.58653   0.00000  Uiso   1.00
C15    C     0.01912   0.12522   0.56659   0.00000  Uiso   1.00
C16    C     0.99348   0.04796   0.54390   0.00000  Uiso   1.00
C17    C     0.96753   0.17180   0.52822   0.00000  Uiso   1.00
C18    C     0.03898   0.05755   0.62080   0.00000  Uiso   1.00
C19    C     0.03006   0.92338   0.64370   0.00000  Uiso   1.00
C20    C     0.02084   0.99023   0.67366   0.00000  Uiso   1.00
C21    C     0.09121   0.10954   0.58076   0.00000  Uiso   1.00
C22    C     0.12619   0.01909   0.57001   0.00000  Uiso   1.00
C23    C     0.16094   0.12971   0.56627   0.00000  Uiso   1.00
H24    H     0.04917   0.52420   0.60429   0.00000  Uiso   1.00
H25    H     0.99272   0.59344   0.56297   0.00000  Uiso   1.00
H26    H     0.02930   0.46887   0.66276   0.00000  Uiso   1.00
H27    H     0.12541   0.56456   0.58907   0.00000  Uiso   1.00
H28    H     0.93024   0.58460   0.51417   0.00000  Uiso   1.00
H29    H     0.00739   0.32194   0.72458   0.00000  Uiso   1.00
H30    H     0.21007   0.52374   0.56921   0.00000  Uiso   1.00
H31    H     0.05010   0.86473   0.58125   0.00000  Uiso   1.00
H32    H     0.99370   0.89778   0.53866   0.00000  Uiso   1.00
H33    H     0.03028   0.77321   0.63845   0.00000  Uiso   1.00
H34    H     0.12639   0.86891   0.56477   0.00000  Uiso   1.00
H35    H     0.93104   0.01998   0.49445   0.00000  Uiso   1.00
H36    H     0.00818   0.75732   0.70485   0.00000  Uiso   1.00
H37    H     0.21086   0.95911   0.54948   0.00000  Uiso   1.00
O38    O     0.89351   0.33592   0.47672   0.00000  Uiso   1.00
O39    O     0.99473   0.99132   0.75276   0.00000  Uiso   1.00
O40    O     0.26064   0.25607   0.54892   0.00000  Uiso   1.00
N41    N     0.93818   0.44719   0.51537   0.00000  Uiso   1.00
N42    N     0.01030   0.20162   0.71209   0.00000  Uiso   1.00
N43    N     0.19979   0.39027   0.56683   0.00000  Uiso   1.00
N44    N     0.93860   0.14337   0.50475   0.00000  Uiso   1.00
N45    N     0.01072   0.89780   0.70147   0.00000  Uiso   1.00
N46    N     0.20021   0.08645   0.55622   0.00000  Uiso   1.00
C47    C     0.45062   0.62688   0.59901   0.00000  Uiso   1.00
C48    C     0.48116   0.68071   0.57336   0.00000  Uiso   1.00
C49    C     0.50708   0.55674   0.55771   0.00000  Uiso   1.00
C50    C     0.53275   0.63378   0.53502   0.00000  Uiso   1.00
C51    C     0.58022   0.68786   0.49623   0.00000  Uiso   1.00
C52    C     0.46129   0.74839   0.62758   0.00000  Uiso   1.00
C53    C     0.47050   0.68132   0.65751   0.00000  Uiso   1.00
C54    C     0.47943   0.81535   0.68046   0.00000  Uiso   1.00
C55    C     0.49603   0.97451   0.72585   0.00000  Uiso   1.00
C56    C     0.40907   0.69639   0.58754   0.00000  Uiso   1.00
C57    C     0.37436   0.58561   0.58382   0.00000  Uiso   1.00
C58    C     0.33933   0.67587   0.57306   0.00000  Uiso   1.00
C59    C     0.27485   0.75429   0.55630   0.00000  Uiso   1.00
C60    C     0.45011   0.98417   0.58653   0.00000  Uiso   1.00
C61    C     0.48088   0.87478   0.56659   0.00000  Uiso   1.00
C62    C     0.50652   0.95204   0.54390   0.00000  Uiso   1.00
C63    C     0.53247   0.82820   0.52822   0.00000  Uiso   1.00
C64    C     0.46102   0.94245   0.62080   0.00000  Uiso   1.00
C65    C     0.46994   0.07662   0.64370   0.00000  Uiso   1.00
C66    C     0.47916   0.00977   0.67366   0.00000  Uiso   1.00
C67    C     0.40879   0.89046   0.58076   0.00000  Uiso   1.00
C68    C     0.37381   0.98091   0.57001   0.00000  Uiso   1.00
C69    C     0.33906   0.87029   0.56627   0.00000  Uiso   1.00
H70    H     0.45083   0.47580   0.60429   0.00000  Uiso   1.00
H71    H     0.50728   0.40656   0.56297   0.00000  Uiso   1.00
H72    H     0.47070   0.53113   0.66276   0.00000  Uiso   1.00
H73    H     0.37459   0.43544   0.58907   0.00000  Uiso   1.00
H74    H     0.56976   0.41540   0.51417   0.00000  Uiso   1.00
H75    H     0.49261   0.67806   0.72458   0.00000  Uiso   1.00
H76    H     0.28993   0.47626   0.56921   0.00000  Uiso   1.00
H77    H     0.44990   0.13527   0.58125   0.00000  Uiso   1.00
H78    H     0.50630   0.10222   0.53866   0.00000  Uiso   1.00
H79    H     0.46972   0.22679   0.63845   0.00000  Uiso   1.00
H80    H     0.37361   0.13109   0.56477   0.00000  Uiso   1.00
H81    H     0.56896   0.98002   0.49445   0.00000  Uiso   1.00
H82    H     0.49182   0.24268   0.70485   0.00000  Uiso   1.00
H83    H     0.28914   0.04089   0.54948   0.00000  Uiso   1.00
O84    O     0.60649   0.66408   0.47672   0.00000  Uiso   1.00
O85    O     0.50527   0.00868   0.75276   0.00000  Uiso   1.00
O86    O     0.23936   0.74393   0.54892   0.00000  Uiso   1.00
N87    N     0.56182   0.55281   0.51537   0.00000  Uiso   1.00
N88    N     0.48970   0.79838   0.71209   0.00000  Uiso   1.00
N89    N     0.30021   0.60973   0.56683   0.00000  Uiso   1.00
N90    N     0.56140   0.85663   0.50475   0.00000  Uiso   1.00
N91    N     0.48928   0.10220   0.70147   0.00000  Uiso   1.00
N92    N     0.29979   0.91355   0.55622   0.00000  Uiso   1.00
C93    C     0.45062   0.87312   0.90099   0.00000  Uiso   1.00
C94    C     0.48116   0.81929   0.92664   0.00000  Uiso   1.00
C95    C     0.50708   0.94326   0.94229   0.00000  Uiso   1.00
C96    C     0.53275   0.86622   0.96498   0.00000  Uiso   1.00
C97    C     0.58022   0.81214   0.00377   0.00000  Uiso   1.00
C98    C     0.46129   0.75161   0.87242   0.00000  Uiso   1.00
C99    C     0.47050   0.81868   0.84249   0.00000  Uiso   1.00
C100   C     0.47943   0.68465   0.81954   0.00000  Uiso   1.00
C101   C     0.49603   0.52549   0.77415   0.00000  Uiso   1.00
C102   C     0.40907   0.80361   0.91246   0.00000  Uiso   1.00
C103   C     0.37436   0.91439   0.91618   0.00000  Uiso   1.00
C104   C     0.33933   0.82413   0.92694   0.00000  Uiso   1.00
C105   C     0.27485   0.74571   0.94370   0.00000  Uiso   1.00
C106   C     0.45011   0.51583   0.91347   0.00000  Uiso   1.00
C107   C     0.48088   0.62522   0.93341   0.00000  Uiso   1.00
C108   C     0.50652   0.54796   0.95610   0.00000  Uiso   1.00
C109   C     0.53247   0.67180   0.97178   0.00000  Uiso   1.00
C110   C     0.46102   0.55755   0.87920   0.00000  Uiso   1.00
C111   C     0.46994   0.42338   0.85630   0.00000  Uiso   1.00
C112   C     0.47916   0.49023   0.82634   0.00000  Uiso   1.00
C113   C     0.40879   0.60954   0.91924   0.00000  Uiso   1.00
C114   C     0.37381   0.51909   0.92999   0.00000  Uiso   1.00
C115   C     0.33906   0.62971   0.93373   0.00000  Uiso   1.00
H116   H     0.45083   0.02420   0.89571   0.00000  Uiso   1.00
H117   H     0.50728   0.09344   0.93703   0.00000  Uiso   1.00
H118   H     0.47070   0.96887   0.83724   0.00000  Uiso   1.00
H119   H     0.37459   0.06456   0.91093   0.00000  Uiso   1.00
H120   H     0.56976   0.08460   0.98583   0.00000  Uiso   1.00
H121   H     0.49261   0.82194   0.77542   0.00000  Uiso   1.00
H122   H     0.28993   0.02374   0.93079   0.00000  Uiso   1.00
H123   H     0.44990   0.36473   0.91875   0.00000  Uiso   1.00
H124   H     0.50630   0.39778   0.96134   0.00000  Uiso   1.00
H125   H     0.46972   0.27321   0.86155   0.00000  Uiso   1.00
H126   H     0.37361   0.36891   0.93523   0.00000  Uiso   1.00
H127   H     0.56896   0.51998   0.00555   0.00000  Uiso   1.00
H128   H     0.49182   0.25732   0.79515   0.00000  Uiso   1.00
H129   H     0.28914   0.45911   0.95052   0.00000  Uiso   1.00
O130   O     0.60649   0.83592   0.02328   0.00000  Uiso   1.00
O131   O     0.50527   0.49132   0.74724   0.00000  Uiso   1.00
O132   O     0.23936   0.75607   0.95108   0.00000  Uiso   1.00
N133   N     0.56182   0.94719   0.98463   0.00000  Uiso   1.00
N134   N     0.48970   0.70162   0.78791   0.00000  Uiso   1.00
N135   N     0.30021   0.89027   0.93317   0.00000  Uiso   1.00
N136   N     0.56140   0.64337   0.99525   0.00000  Uiso   1.00
N137   N     0.48928   0.39780   0.79853   0.00000  Uiso   1.00
N138   N     0.29979   0.58645   0.94378   0.00000  Uiso   1.00
C139   C     0.04938   0.12688   0.90099   0.00000  Uiso   1.00
C140   C     0.01884   0.18071   0.92664   0.00000  Uiso   1.00
C141   C     0.99292   0.05674   0.94229   0.00000  Uiso   1.00
C142   C     0.96725   0.13378   0.96498   0.00000  Uiso   1.00
C143   C     0.91978   0.18786   0.00377   0.00000  Uiso   1.00
C144   C     0.03871   0.24839   0.87242   0.00000  Uiso   1.00
C145   C     0.02950   0.18132   0.84249   0.00000  Uiso   1.00
C146   C     0.02057   0.31535   0.81954   0.00000  Uiso   1.00
C147   C     0.00397   0.47451   0.77415   0.00000  Uiso   1.00
C148   C     0.09093   0.19639   0.91246   0.00000  Uiso   1.00
C149   C     0.12564   0.08561   0.91618   0.00000  Uiso   1.00
C150   C     0.16067   0.17587   0.92694   0.00000  Uiso   1.00
C151   C     0.22515   0.25429   0.94370   0.00000  Uiso   1.00
C152   C     0.04989   0.48417   0.91347   0.00000  Uiso   1.00
C153   C     0.01912   0.37478   0.93341   0.00000  Uiso   1.00
C154   C     0.99348   0.45204   0.95610   0.00000  Uiso   1.00
C155   C     0.96753   0.32820   0.97178   0.00000  Uiso   1.00
C156   C     0.03898   0.44245   0.87920   0.00000  Uiso   1.00
C157   C     0.03006   0.57662   0.85630   0.00000  Uiso   1.00
C158   C     0.02084   0.50977   0.82634   0.00000  Uiso   1.00
C159   C     0.09121   0.39046   0.91924   0.00000  Uiso   1.00
C160   C     0.12619   0.48091   0.92999   0.00000  Uiso   1.00
C161   C     0.16094   0.37029   0.93373   0.00000  Uiso   1.00
H162   H     0.04917   0.97580   0.89571   0.00000  Uiso   1.00
H163   H     0.99272   0.90656   0.93703   0.00000  Uiso   1.00
H164   H     0.02930   0.03113   0.83724   0.00000  Uiso   1.00
H165   H     0.12541   0.93544   0.91093   0.00000  Uiso   1.00
H166   H     0.93024   0.91540   0.98583   0.00000  Uiso   1.00
H167   H     0.00739   0.17806   0.77542   0.00000  Uiso   1.00
H168   H     0.21007   0.97626   0.93079   0.00000  Uiso   1.00
H169   H     0.05010   0.63527   0.91875   0.00000  Uiso   1.00
H170   H     0.99370   0.60222   0.96134   0.00000  Uiso   1.00
H171   H     0.03028   0.72679   0.86155   0.00000  Uiso   1.00
H172   H     0.12639   0.63109   0.93523   0.00000  Uiso   1.00
H173   H     0.93104   0.48002   0.00555   0.00000  Uiso   1.00
H174   H     0.00818   0.74268   0.79515   0.00000  Uiso   1.00
H175   H     0.21086   0.54089   0.95052   0.00000  Uiso   1.00
O176   O     0.89351   0.16408   0.02328   0.00000  Uiso   1.00
O177   O     0.99473   0.50868   0.74724   0.00000  Uiso   1.00
O178   O     0.26064   0.24393   0.95108   0.00000  Uiso   1.00
N179   N     0.93818   0.05281   0.98463   0.00000  Uiso   1.00
N180   N     0.01030   0.29838   0.78791   0.00000  Uiso   1.00
N181   N     0.19979   0.10973   0.93317   0.00000  Uiso   1.00
N182   N     0.93860   0.35663   0.99525   0.00000  Uiso   1.00
N183   N     0.01072   0.60220   0.79853   0.00000  Uiso   1.00
N184   N     0.20021   0.41355   0.94378   0.00000  Uiso   1.00
C185   C     0.95062   0.62688   0.40099   0.00000  Uiso   1.00
C186   C     0.98116   0.68071   0.42664   0.00000  Uiso   1.00
C187   C     0.00708   0.55674   0.44229   0.00000  Uiso   1.00
C188   C     0.03275   0.63378   0.46498   0.00000  Uiso   1.00
C189   C     0.08022   0.68786   0.50377   0.00000  Uiso   1.00
C190   C     0.96129   0.74839   0.37242   0.00000  Uiso   1.00
C191   C     0.97050   0.68132   0.34249   0.00000  Uiso   1.00
C192   C     0.97943   0.81535   0.31954   0.00000  Uiso   1.00
C193   C     0.99603   0.97451   0.27415   0.00000  Uiso   1.00
C194   C     0.90907   0.69639   0.41246   0.00000  Uiso   1.00
C195   C     0.87436   0.58561   0.41618   0.00000  Uiso   1.00
C196   C     0.83933   0.67587   0.42694   0.00000  Uiso   1.00
C197   C     0.77485   0.75429   0.44370   0.00000  Uiso   1.00
C198   C     0.95011   0.98417   0.41347   0.00000  Uiso   1.00
C199   C     0.98088   0.87478   0.43341   0.00000  Uiso   1.00
C200   C     0.00652   0.95204   0.45610   0.00000  Uiso   1.00
C201   C     0.03247   0.82820   0.47178   0.00000  Uiso   1.00
C202   C     0.96102   0.94245   0.37920   0.00000  Uiso   1.00
C203   C     0.96994   0.07662   0.35630   0.00000  Uiso   1.00
C204   C     0.97916   0.00977   0.32634   0.00000  Uiso   1.00
C205   C     0.90879   0.89046   0.41924   0.00000  Uiso   1.00
C206   C     0.87381   0.98091   0.42999   0.00000  Uiso   1.00
C207   C     0.83906   0.87029   0.43373   0.00000  Uiso   1.00
H208   H     0.95083   0.47580   0.39571   0.00000  Uiso   1.00
H209   H     0.00728   0.40656   0.43703   0.00000  Uiso   1.00
H210   H     0.97070   0.53113   0.33724   0.00000  Uiso   1.00
H211   H     0.87459   0.43544   0.41093   0.00000  Uiso   1.00
H212   H     0.06976   0.41540   0.48583   0.00000  Uiso   1.00
H213   H     0.99261   0.67806   0.27542   0.00000  Uiso   1.00
H214   H     0.78993   0.47626   0.43079   0.00000  Uiso   1.00
H215   H     0.94990   0.13527   0.41875   0.00000  Uiso   1.00
H216   H     0.00630   0.10222   0.46134   0.00000  Uiso   1.00
H217   H     0.96972   0.22679   0.36155   0.00000  Uiso   1.00
H218   H     0.87361   0.13109   0.43523   0.00000  Uiso   1.00
H219   H     0.06896   0.98002   0.50555   0.00000  Uiso   1.00
H220   H     0.99182   0.24268   0.29515   0.00000  Uiso   1.00
H221   H     0.78914   0.04089   0.45052   0.00000  Uiso   1.00
O222   O     0.10649   0.66408   0.52328   0.00000  Uiso   1.00
O223   O     0.00527   0.00868   0.24724   0.00000  Uiso   1.00
O224   O     0.73936   0.74393   0.45108   0.00000  Uiso   1.00
N225   N     0.06182   0.55281   0.48463   0.00000  Uiso   1.00
N226   N     0.98970   0.79838   0.28791   0.00000  Uiso   1.00
N227   N     0.80021   0.60973   0.43317   0.00000  Uiso   1.00
N228   N     0.06140   0.85663   0.49525   0.00000  Uiso   1.00
N229   N     0.98928   0.10220   0.29853   0.00000  Uiso   1.00
N230   N     0.79979   0.91355   0.44378   0.00000  Uiso   1.00
C231   C     0.54938   0.37312   0.40099   0.00000  Uiso   1.00
C232   C     0.51884   0.31929   0.42664   0.00000  Uiso   1.00
C233   C     0.49292   0.44326   0.44229   0.00000  Uiso   1.00
C234   C     0.46725   0.36622   0.46498   0.00000  Uiso   1.00
C235   C     0.41978   0.31214   0.50377   0.00000  Uiso   1.00
C236   C     0.53871   0.25161   0.37242   0.00000  Uiso   1.00
C237   C     0.52950   0.31868   0.34249   0.00000  Uiso   1.00
C238   C     0.52057   0.18465   0.31954   0.00000  Uiso   1.00
C239   C     0.50397   0.02549   0.27415   0.00000  Uiso   1.00
C240   C     0.59093   0.30361   0.41246   0.00000  Uiso   1.00
C241   C     0.62564   0.41439   0.41618   0.00000  Uiso   1.00
C242   C     0.66067   0.32413   0.42694   0.00000  Uiso   1.00
C243   C     0.72515   0.24571   0.44370   0.00000  Uiso   1.00
C244   C     0.54989   0.01583   0.41347   0.00000  Uiso   1.00
C245   C     0.51912   0.12522   0.43341   0.00000  Uiso   1.00
C246   C     0.49348   0.04796   0.45610   0.00000  Uiso   1.00
C247   C     0.46753   0.17180   0.47178   0.00000  Uiso   1.00
C248   C     0.53898   0.05755   0.37920   0.00000  Uiso   1.00
C249   C     0.53006   0.92338   0.35630   0.00000  Uiso   1.00
C250   C     0.52084   0.99023   0.32634   0.00000  Uiso   1.00
C251   C     0.59121   0.10954   0.41924   0.00000  Uiso   1.00
C252   C     0.62619   0.01909   0.42999   0.00000  Uiso   1.00
C253   C     0.66094   0.12971   0.43373   0.00000  Uiso   1.00
H254   H     0.54917   0.52420   0.39571   0.00000  Uiso   1.00
H255   H     0.49272   0.59344   0.43703   0.00000  Uiso   1.00
H256   H     0.52930   0.46887   0.33724   0.00000  Uiso   1.00
H257   H     0.62541   0.56456   0.41093   0.00000  Uiso   1.00
H258   H     0.43024   0.58460   0.48583   0.00000  Uiso   1.00
H259   H     0.50739   0.32194   0.27542   0.00000  Uiso   1.00
H260   H     0.71007   0.52374   0.43079   0.00000  Uiso   1.00
H261   H     0.55010   0.86473   0.41875   0.00000  Uiso   1.00
H262   H     0.49370   0.89778   0.46134   0.00000  Uiso   1.00
H263   H     0.53028   0.77321   0.36155   0.00000  Uiso   1.00
H264   H     0.62639   0.86891   0.43523   0.00000  Uiso   1.00
H265   H     0.43104   0.01998   0.50555   0.00000  Uiso   1.00
H266   H     0.50818   0.75732   0.29515   0.00000  Uiso   1.00
H267   H     0.71086   0.95911   0.45052   0.00000  Uiso   1.00
O268   O     0.39351   0.33592   0.52328   0.00000  Uiso   1.00
O269   O     0.49473   0.99132   0.24724   0.00000  Uiso   1.00
O270   O     0.76064   0.25607   0.45108   0.00000  Uiso   1.00
N271   N     0.43818   0.44719   0.48463   0.00000  Uiso   1.00
N272   N     0.51030   0.20162   0.28791   0.00000  Uiso   1.00
N273   N     0.69979   0.39027   0.43317   0.00000  Uiso   1.00
N274   N     0.43860   0.14337   0.49525   0.00000  Uiso   1.00
N275   N     0.51072   0.89780   0.29853   0.00000  Uiso   1.00
N276   N     0.70021   0.08645   0.44378   0.00000  Uiso   1.00
C277   C     0.54938   0.12688   0.09901   0.00000  Uiso   1.00
C278   C     0.51884   0.18071   0.07336   0.00000  Uiso   1.00
C279   C     0.49292   0.05674   0.05771   0.00000  Uiso   1.00
C280   C     0.46725   0.13378   0.03502   0.00000  Uiso   1.00
C281   C     0.41978   0.18786   0.99623   0.00000  Uiso   1.00
C282   C     0.53871   0.24839   0.12758   0.00000  Uiso   1.00
C283   C     0.52950   0.18132   0.15751   0.00000  Uiso   1.00
C284   C     0.52057   0.31535   0.18046   0.00000  Uiso   1.00
C285   C     0.50397   0.47451   0.22585   0.00000  Uiso   1.00
C286   C     0.59093   0.19639   0.08754   0.00000  Uiso   1.00
C287   C     0.62564   0.08561   0.08382   0.00000  Uiso   1.00
C288   C     0.66067   0.17587   0.07306   0.00000  Uiso   1.00
C289   C     0.72515   0.25429   0.05630   0.00000  Uiso   1.00
C290   C     0.54989   0.48417   0.08653   0.00000  Uiso   1.00
C291   C     0.51912   0.37478   0.06659   0.00000  Uiso   1.00
C292   C     0.49348   0.45204   0.04390   0.00000  Uiso   1.00
C293   C     0.46753   0.32820   0.02822   0.00000  Uiso   1.00
C294   C     0.53898   0.44245   0.12080   0.00000  Uiso   1.00
C295   C     0.53006   0.57662   0.14370   0.00000  Uiso   1.00
C296   C     0.52084   0.50977   0.17366   0.00000  Uiso   1.00
C297   C     0.59121   0.39046   0.08076   0.00000  Uiso   1.00
C298   C     0.62619   0.48091   0.07001   0.00000  Uiso   1.00
C299   C     0.66094   0.37029   0.06627   0.00000  Uiso   1.00
H300   H     0.54917   0.97580   0.10429   0.00000  Uiso   1.00
H301   H     0.49272   0.90656   0.06297   0.00000  Uiso   1.00
H302   H     0.52930   0.03113   0.16276   0.00000  Uiso   1.00
H303   H     0.62541   0.93544   0.08907   0.00000  Uiso   1.00
H304   H     0.43024   0.91540   0.01417   0.00000  Uiso   1.00
H305   H     0.50739   0.17806   0.22458   0.00000  Uiso   1.00
H306   H     0.71007   0.97626   0.06921   0.00000  Uiso   1.00
H307   H     0.55010   0.63527   0.08125   0.00000  Uiso   1.00
H308   H     0.49370   0.60222   0.03866   0.00000  Uiso   1.00
H309   H     0.53028   0.72679   0.13845   0.00000  Uiso   1.00
H310   H     0.62639   0.63109   0.06477   0.00000  Uiso   1.00
H311   H     0.43104   0.48002   0.99445   0.00000  Uiso   1.00
H312   H     0.50818   0.74268   0.20485   0.00000  Uiso   1.00
H313   H     0.71086   0.54089   0.04948   0.00000  Uiso   1.00
O314   O     0.39351   0.16408   0.97672   0.00000  Uiso   1.00
O315   O     0.49473   0.50868   0.25276   0.00000  Uiso   1.00
O316   O     0.76064   0.24393   0.04892   0.00000  Uiso   1.00
N317   N     0.43818   0.05281   0.01537   0.00000  Uiso   1.00
N318   N     0.51030   0.29838   0.21209   0.00000  Uiso   1.00
N319   N     0.69979   0.10973   0.06683   0.00000  Uiso   1.00
N320   N     0.43860   0.35663   0.00475   0.00000  Uiso   1.00
N321   N     0.51072   0.60220   0.20147   0.00000  Uiso   1.00
N322   N     0.70021   0.41355   0.05622   0.00000  Uiso   1.00
C323   C     0.95062   0.87312   0.09901   0.00000  Uiso   1.00
C324   C     0.98116   0.81929   0.07336   0.00000  Uiso   1.00
C325   C     0.00708   0.94326   0.05771   0.00000  Uiso   1.00
C326   C     0.03275   0.86622   0.03502   0.00000  Uiso   1.00
C327   C     0.08022   0.81214   0.99623   0.00000  Uiso   1.00
C328   C     0.96129   0.75161   0.12758   0.00000  Uiso   1.00
C329   C     0.97050   0.81868   0.15751   0.00000  Uiso   1.00
C330   C     0.97943   0.68465   0.18046   0.00000  Uiso   1.00
C331   C     0.99603   0.52549   0.22585   0.00000  Uiso   1.00
C332   C     0.90907   0.80361   0.08754   0.00000  Uiso   1.00
C333   C     0.87436   0.91439   0.08382   0.00000  Uiso   1.00
C334   C     0.83933   0.82413   0.07306   0.00000  Uiso   1.00
C335   C     0.77485   0.74571   0.05630   0.00000  Uiso   1.00
C336   C     0.95011   0.51583   0.08653   0.00000  Uiso   1.00
C337   C     0.98088   0.62522   0.06659   0.00000  Uiso   1.00
C338   C     0.00652   0.54796   0.04390   0.00000  Uiso   1.00
C339   C     0.03247   0.67180   0.02822   0.00000  Uiso   1.00
C340   C     0.96102   0.55755   0.12080   0.00000  Uiso   1.00
C341   C     0.96994   0.42338   0.14370   0.00000  Uiso   1.00
C342   C     0.97916   0.49023   0.17366   0.00000  Uiso   1.00
C343   C     0.90879   0.60954   0.08076   0.00000  Uiso   1.00
C344   C     0.87381   0.51909   0.07001   0.00000  Uiso   1.00
C345   C     0.83906   0.62971   0.06627   0.00000  Uiso   1.00
H346   H     0.95083   0.02420   0.10429   0.00000  Uiso   1.00
H347   H     0.00728   0.09344   0.06297   0.00000  Uiso   1.00
H348   H     0.97070   0.96887   0.16276   0.00000  Uiso   1.00
H349   H     0.87459   0.06456   0.08907   0.00000  Uiso   1.00
H350   H     0.06976   0.08460   0.01417   0.00000  Uiso   1.00
H351   H     0.99261   0.82194   0.22458   0.00000  Uiso   1.00
H352   H     0.78993   0.02374   0.06921   0.00000  Uiso   1.00
H353   H     0.94990   0.36473   0.08125   0.00000  Uiso   1.00
H354   H     0.00630   0.39778   0.03866   0.00000  Uiso   1.00
H355   H     0.96972   0.27321   0.13845   0.00000  Uiso   1.00
H356   H     0.87361   0.36891   0.06477   0.00000  Uiso   1.00
H357   H     0.06896   0.51998   0.99445   0.00000  Uiso   1.00
H358   H     0.99182   0.25732   0.20485   0.00000  Uiso   1.00
H359   H     0.78914   0.45911   0.04948   0.00000  Uiso   1.00
O360   O     0.10649   0.83592   0.97672   0.00000  Uiso   1.00
O361   O     0.00527   0.49132   0.25276   0.00000  Uiso   1.00
O362   O     0.73936   0.75607   0.04892   0.00000  Uiso   1.00
N363   N     0.06182   0.94719   0.01537   0.00000  Uiso   1.00
N364   N     0.98970   0.70162   0.21209   0.00000  Uiso   1.00
N365   N     0.80021   0.89027   0.06683   0.00000  Uiso   1.00
N366   N     0.06140   0.64337   0.00475   0.00000  Uiso   1.00
N367   N     0.98928   0.39780   0.20147   0.00000  Uiso   1.00
N368   N     0.79979   0.58645   0.05622   0.00000  Uiso   1.00
