data_job_00722
_audit_creation_date              2018-12-19
_audit_creation_method            'Materials Studio'
_symmetry_space_group_name_H-M    'P1'
_symmetry_Int_Tables_number       1
_symmetry_cell_setting            triclinic
loop_
_symmetry_equiv_pos_as_xyz
  x,y,z
_cell_length_a                    11.8158
_cell_length_b                    12.4407
_cell_length_c                    16.6844
_cell_angle_alpha                 90.0000
_cell_angle_beta                  90.0000
_cell_angle_gamma                 90.0000
loop_
_atom_site_label
_atom_site_type_symbol
_atom_site_fract_x
_atom_site_fract_y
_atom_site_fract_z
_atom_site_U_iso_or_equiv
_atom_site_adp_type
_atom_site_occupancy
C1     C     0.83732   0.86976   0.42196   0.00000  Uiso   1.00
C2     C     0.79990   0.89851   0.33716   0.00000  Uiso   1.00
C3     C     0.80078   0.00074   0.30388   0.00000  Uiso   1.00
C4     C     0.76319   0.01032   0.22536   0.00000  Uiso   1.00
C5     C     0.71068   0.06860   0.10033   0.00000  Uiso   1.00
C6     C     0.73655   0.81376   0.46091   0.00000  Uiso   1.00
C7     C     0.68417   0.84472   0.53169   0.00000  Uiso   1.00
C8     C     0.59326   0.78294   0.55735   0.00000  Uiso   1.00
C9     C     0.44245   0.70959   0.62448   0.00000  Uiso   1.00
C10    C     0.92869   0.78408   0.41281   0.00000  Uiso   1.00
C11    C     0.03787   0.79007   0.44316   0.00000  Uiso   1.00
C12    C     0.10873   0.70329   0.42834   0.00000  Uiso   1.00
C13    C     0.25625   0.58385   0.42078   0.00000  Uiso   1.00
C14    C     0.76903   0.70497   0.34169   0.00000  Uiso   1.00
C15    C     0.76281   0.80900   0.29356   0.00000  Uiso   1.00
C16    C     0.72522   0.81843   0.21506   0.00000  Uiso   1.00
C17    C     0.72604   0.92066   0.18168   0.00000  Uiso   1.00
C18    C     0.69945   0.72426   0.41731   0.00000  Uiso   1.00
C19    C     0.60861   0.66241   0.44288   0.00000  Uiso   1.00
C20    C     0.55610   0.69328   0.51368   0.00000  Uiso   1.00
C21    C     0.89160   0.69457   0.36920   0.00000  Uiso   1.00
C22    C     0.96231   0.60776   0.35434   0.00000  Uiso   1.00
C23    C     0.07157   0.61362   0.38466   0.00000  Uiso   1.00
H24    H     0.86619   0.93944   0.45591   0.00000  Uiso   1.00
H25    H     0.82948   0.06999   0.33765   0.00000  Uiso   1.00
H26    H     0.71290   0.91399   0.56543   0.00000  Uiso   1.00
H27    H     0.06654   0.85934   0.47690   0.00000  Uiso   1.00
H28    H     0.77238   0.17527   0.18731   0.00000  Uiso   1.00
H29    H     0.52658   0.84630   0.66761   0.00000  Uiso   1.00
H30    H     0.27231   0.73108   0.48094   0.00000  Uiso   1.00
H31    H     0.74015   0.63528   0.30774   0.00000  Uiso   1.00
H32    H     0.69652   0.74915   0.18134   0.00000  Uiso   1.00
H33    H     0.57993   0.59315   0.40912   0.00000  Uiso   1.00
H34    H     0.93358   0.53851   0.32060   0.00000  Uiso   1.00
H35    H     0.66445   0.91487   0.06045   0.00000  Uiso   1.00
H36    H     0.41866   0.58590   0.54075   0.00000  Uiso   1.00
H37    H     0.16439   0.47067   0.35408   0.00000  Uiso   1.00
O38    O     0.69195   0.12547   0.04341   0.00000  Uiso   1.00
O39    O     0.36950   0.69386   0.67355   0.00000  Uiso   1.00
O40    O     0.34788   0.54270   0.42864   0.00000  Uiso   1.00
N41    N     0.75299   0.09835   0.17479   0.00000  Uiso   1.00
N42    N     0.52317   0.79080   0.62384   0.00000  Uiso   1.00
N43    N     0.22036   0.68306   0.44934   0.00000  Uiso   1.00
N44    N     0.69491   0.95823   0.10653   0.00000  Uiso   1.00
N45    N     0.46510   0.65068   0.55557   0.00000  Uiso   1.00
N46    N     0.16229   0.54294   0.38107   0.00000  Uiso   1.00
C47    C     0.16268   0.13024   0.92196   0.00000  Uiso   1.00
C48    C     0.20010   0.10149   0.83716   0.00000  Uiso   1.00
C49    C     0.19922   0.99926   0.80388   0.00000  Uiso   1.00
C50    C     0.23681   0.98968   0.72536   0.00000  Uiso   1.00
C51    C     0.28932   0.93140   0.60033   0.00000  Uiso   1.00
C52    C     0.26345   0.18624   0.96091   0.00000  Uiso   1.00
C53    C     0.31583   0.15528   0.03169   0.00000  Uiso   1.00
C54    C     0.40674   0.21706   0.05735   0.00000  Uiso   1.00
C55    C     0.55755   0.29041   0.12448   0.00000  Uiso   1.00
C56    C     0.07131   0.21592   0.91281   0.00000  Uiso   1.00
C57    C     0.96213   0.20993   0.94316   0.00000  Uiso   1.00
C58    C     0.89127   0.29671   0.92834   0.00000  Uiso   1.00
C59    C     0.74375   0.41615   0.92078   0.00000  Uiso   1.00
C60    C     0.23097   0.29503   0.84169   0.00000  Uiso   1.00
C61    C     0.23719   0.19100   0.79356   0.00000  Uiso   1.00
C62    C     0.27478   0.18157   0.71506   0.00000  Uiso   1.00
C63    C     0.27396   0.07934   0.68168   0.00000  Uiso   1.00
C64    C     0.30055   0.27574   0.91731   0.00000  Uiso   1.00
C65    C     0.39139   0.33759   0.94288   0.00000  Uiso   1.00
C66    C     0.44390   0.30672   0.01368   0.00000  Uiso   1.00
C67    C     0.10840   0.30543   0.86920   0.00000  Uiso   1.00
C68    C     0.03769   0.39224   0.85434   0.00000  Uiso   1.00
C69    C     0.92843   0.38638   0.88466   0.00000  Uiso   1.00
H70    H     0.13381   0.06056   0.95591   0.00000  Uiso   1.00
H71    H     0.17052   0.93001   0.83765   0.00000  Uiso   1.00
H72    H     0.28710   0.08601   0.06543   0.00000  Uiso   1.00
H73    H     0.93346   0.14066   0.97690   0.00000  Uiso   1.00
H74    H     0.22762   0.82473   0.68731   0.00000  Uiso   1.00
H75    H     0.47342   0.15370   0.16761   0.00000  Uiso   1.00
H76    H     0.72769   0.26892   0.98094   0.00000  Uiso   1.00
H77    H     0.25985   0.36472   0.80774   0.00000  Uiso   1.00
H78    H     0.30348   0.25085   0.68134   0.00000  Uiso   1.00
H79    H     0.42007   0.40685   0.90912   0.00000  Uiso   1.00
H80    H     0.06642   0.46149   0.82060   0.00000  Uiso   1.00
H81    H     0.33555   0.08513   0.56045   0.00000  Uiso   1.00
H82    H     0.58134   0.41410   0.04075   0.00000  Uiso   1.00
H83    H     0.83561   0.52933   0.85408   0.00000  Uiso   1.00
O84    O     0.30805   0.87453   0.54341   0.00000  Uiso   1.00
O85    O     0.63050   0.30614   0.17355   0.00000  Uiso   1.00
O86    O     0.65212   0.45730   0.92864   0.00000  Uiso   1.00
N87    N     0.24701   0.90165   0.67479   0.00000  Uiso   1.00
N88    N     0.47683   0.20920   0.12384   0.00000  Uiso   1.00
N89    N     0.77964   0.31694   0.94934   0.00000  Uiso   1.00
N90    N     0.30509   0.04177   0.60653   0.00000  Uiso   1.00
N91    N     0.53490   0.34932   0.05557   0.00000  Uiso   1.00
N92    N     0.83771   0.45706   0.88107   0.00000  Uiso   1.00
C93    C     0.16268   0.86976   0.07804   0.00000  Uiso   1.00
C94    C     0.20010   0.89851   0.16284   0.00000  Uiso   1.00
C95    C     0.19922   0.00074   0.19612   0.00000  Uiso   1.00
C96    C     0.23681   0.01032   0.27464   0.00000  Uiso   1.00
C97    C     0.28932   0.06860   0.39967   0.00000  Uiso   1.00
C98    C     0.26345   0.81376   0.03909   0.00000  Uiso   1.00
C99    C     0.31583   0.84472   0.96831   0.00000  Uiso   1.00
C100   C     0.40674   0.78294   0.94265   0.00000  Uiso   1.00
C101   C     0.55755   0.70959   0.87552   0.00000  Uiso   1.00
C102   C     0.07131   0.78408   0.08719   0.00000  Uiso   1.00
C103   C     0.96213   0.79007   0.05684   0.00000  Uiso   1.00
C104   C     0.89127   0.70329   0.07166   0.00000  Uiso   1.00
C105   C     0.74375   0.58385   0.07922   0.00000  Uiso   1.00
C106   C     0.23097   0.70497   0.15831   0.00000  Uiso   1.00
C107   C     0.23719   0.80900   0.20644   0.00000  Uiso   1.00
C108   C     0.27478   0.81843   0.28494   0.00000  Uiso   1.00
C109   C     0.27396   0.92066   0.31832   0.00000  Uiso   1.00
C110   C     0.30055   0.72426   0.08269   0.00000  Uiso   1.00
C111   C     0.39139   0.66241   0.05712   0.00000  Uiso   1.00
C112   C     0.44390   0.69328   0.98632   0.00000  Uiso   1.00
C113   C     0.10840   0.69457   0.13080   0.00000  Uiso   1.00
C114   C     0.03769   0.60776   0.14566   0.00000  Uiso   1.00
C115   C     0.92843   0.61362   0.11534   0.00000  Uiso   1.00
H116   H     0.13381   0.93944   0.04409   0.00000  Uiso   1.00
H117   H     0.17052   0.06999   0.16235   0.00000  Uiso   1.00
H118   H     0.28710   0.91399   0.93457   0.00000  Uiso   1.00
H119   H     0.93346   0.85934   0.02310   0.00000  Uiso   1.00
H120   H     0.22762   0.17527   0.31269   0.00000  Uiso   1.00
H121   H     0.47342   0.84630   0.83239   0.00000  Uiso   1.00
H122   H     0.72769   0.73108   0.01906   0.00000  Uiso   1.00
H123   H     0.25985   0.63528   0.19226   0.00000  Uiso   1.00
H124   H     0.30348   0.74915   0.31866   0.00000  Uiso   1.00
H125   H     0.42007   0.59315   0.09088   0.00000  Uiso   1.00
H126   H     0.06642   0.53851   0.17940   0.00000  Uiso   1.00
H127   H     0.33555   0.91487   0.43955   0.00000  Uiso   1.00
H128   H     0.58134   0.58590   0.95925   0.00000  Uiso   1.00
H129   H     0.83561   0.47067   0.14592   0.00000  Uiso   1.00
O130   O     0.30805   0.12547   0.45659   0.00000  Uiso   1.00
O131   O     0.63050   0.69386   0.82645   0.00000  Uiso   1.00
O132   O     0.65212   0.54270   0.07136   0.00000  Uiso   1.00
N133   N     0.24701   0.09835   0.32521   0.00000  Uiso   1.00
N134   N     0.47683   0.79080   0.87616   0.00000  Uiso   1.00
N135   N     0.77964   0.68306   0.05066   0.00000  Uiso   1.00
N136   N     0.30509   0.95823   0.39347   0.00000  Uiso   1.00
N137   N     0.53490   0.65068   0.94443   0.00000  Uiso   1.00
N138   N     0.83771   0.54294   0.11893   0.00000  Uiso   1.00
C139   C     0.83732   0.13024   0.57804   0.00000  Uiso   1.00
C140   C     0.79990   0.10149   0.66284   0.00000  Uiso   1.00
C141   C     0.80078   0.99926   0.69612   0.00000  Uiso   1.00
C142   C     0.76319   0.98968   0.77464   0.00000  Uiso   1.00
C143   C     0.71068   0.93140   0.89967   0.00000  Uiso   1.00
C144   C     0.73655   0.18624   0.53909   0.00000  Uiso   1.00
C145   C     0.68417   0.15528   0.46831   0.00000  Uiso   1.00
C146   C     0.59326   0.21706   0.44265   0.00000  Uiso   1.00
C147   C     0.44245   0.29041   0.37552   0.00000  Uiso   1.00
C148   C     0.92869   0.21592   0.58719   0.00000  Uiso   1.00
C149   C     0.03787   0.20993   0.55684   0.00000  Uiso   1.00
C150   C     0.10873   0.29671   0.57166   0.00000  Uiso   1.00
C151   C     0.25625   0.41615   0.57922   0.00000  Uiso   1.00
C152   C     0.76903   0.29503   0.65831   0.00000  Uiso   1.00
C153   C     0.76281   0.19100   0.70644   0.00000  Uiso   1.00
C154   C     0.72522   0.18157   0.78494   0.00000  Uiso   1.00
C155   C     0.72604   0.07934   0.81832   0.00000  Uiso   1.00
C156   C     0.69945   0.27574   0.58269   0.00000  Uiso   1.00
C157   C     0.60861   0.33759   0.55712   0.00000  Uiso   1.00
C158   C     0.55610   0.30672   0.48632   0.00000  Uiso   1.00
C159   C     0.89160   0.30543   0.63080   0.00000  Uiso   1.00
C160   C     0.96231   0.39224   0.64566   0.00000  Uiso   1.00
C161   C     0.07157   0.38638   0.61534   0.00000  Uiso   1.00
H162   H     0.86619   0.06056   0.54409   0.00000  Uiso   1.00
H163   H     0.82948   0.93001   0.66235   0.00000  Uiso   1.00
H164   H     0.71290   0.08601   0.43457   0.00000  Uiso   1.00
H165   H     0.06654   0.14066   0.52310   0.00000  Uiso   1.00
H166   H     0.77238   0.82473   0.81269   0.00000  Uiso   1.00
H167   H     0.52658   0.15370   0.33239   0.00000  Uiso   1.00
H168   H     0.27231   0.26892   0.51906   0.00000  Uiso   1.00
H169   H     0.74015   0.36472   0.69226   0.00000  Uiso   1.00
H170   H     0.69652   0.25085   0.81866   0.00000  Uiso   1.00
H171   H     0.57993   0.40685   0.59088   0.00000  Uiso   1.00
H172   H     0.93358   0.46149   0.67940   0.00000  Uiso   1.00
H173   H     0.66445   0.08513   0.93955   0.00000  Uiso   1.00
H174   H     0.41866   0.41410   0.45925   0.00000  Uiso   1.00
H175   H     0.16439   0.52933   0.64592   0.00000  Uiso   1.00
O176   O     0.69195   0.87453   0.95659   0.00000  Uiso   1.00
O177   O     0.36950   0.30614   0.32645   0.00000  Uiso   1.00
O178   O     0.34788   0.45730   0.57136   0.00000  Uiso   1.00
N179   N     0.75299   0.90165   0.82521   0.00000  Uiso   1.00
N180   N     0.52317   0.20920   0.37616   0.00000  Uiso   1.00
N181   N     0.22036   0.31694   0.55066   0.00000  Uiso   1.00
N182   N     0.69491   0.04177   0.89347   0.00000  Uiso   1.00
N183   N     0.46510   0.34932   0.44443   0.00000  Uiso   1.00
N184   N     0.16229   0.45706   0.61893   0.00000  Uiso   1.00
