data_job_02838
_audit_creation_date              2018-12-19
_audit_creation_method            'Materials Studio'
_symmetry_space_group_name_H-M    'P1'
_symmetry_Int_Tables_number       1
_symmetry_cell_setting            triclinic
loop_
_symmetry_equiv_pos_as_xyz
  x,y,z
_cell_length_a                    23.1619
_cell_length_b                    18.4628
_cell_length_c                    13.6835
_cell_angle_alpha                 90.0000
_cell_angle_beta                  90.0000
_cell_angle_gamma                 90.0000
loop_
_atom_site_label
_atom_site_type_symbol
_atom_site_fract_x
_atom_site_fract_y
_atom_site_fract_z
_atom_site_U_iso_or_equiv
_atom_site_adp_type
_atom_site_occupancy
C1     C     0.69977   0.71801   0.80742   0.00000  Uiso   1.00
C2     C     0.71646   0.67001   0.89360   0.00000  Uiso   1.00
C3     C     0.77237   0.65393   0.92287   0.00000  Uiso   1.00
C4     C     0.77857   0.60896   0.00350   0.00000  Uiso   1.00
C5     C     0.81179   0.53863   0.12975   0.00000  Uiso   1.00
C6     C     0.66129   0.67172   0.74203   0.00000  Uiso   1.00
C7     C     0.67082   0.65710   0.64385   0.00000  Uiso   1.00
C8     C     0.63057   0.61357   0.59690   0.00000  Uiso   1.00
C9     C     0.57811   0.54595   0.48781   0.00000  Uiso   1.00
C10    C     0.66096   0.77714   0.84910   0.00000  Uiso   1.00
C11    C     0.67020   0.85117   0.84093   0.00000  Uiso   1.00
C12    C     0.62967   0.89640   0.88410   0.00000  Uiso   1.00
C13    C     0.57671   0.99246   0.94126   0.00000  Uiso   1.00
C14    C     0.61134   0.66672   0.89858   0.00000  Uiso   1.00
C15    C     0.66843   0.64215   0.94311   0.00000  Uiso   1.00
C16    C     0.67454   0.59719   0.02373   0.00000  Uiso   1.00
C17    C     0.73046   0.58105   0.05311   0.00000  Uiso   1.00
C18    C     0.61326   0.64386   0.79154   0.00000  Uiso   1.00
C19    C     0.57298   0.60035   0.74471   0.00000  Uiso   1.00
C20    C     0.58245   0.58566   0.64650   0.00000  Uiso   1.00
C21    C     0.61293   0.74929   0.89861   0.00000  Uiso   1.00
C22    C     0.57237   0.79441   0.94179   0.00000  Uiso   1.00
C23    C     0.58155   0.86849   0.93370   0.00000  Uiso   1.00
H24    H     0.73716   0.73970   0.76887   0.00000  Uiso   1.00
H25    H     0.80953   0.67550   0.88452   0.00000  Uiso   1.00
H26    H     0.70799   0.67867   0.60556   0.00000  Uiso   1.00
H27    H     0.70738   0.87270   0.80261   0.00000  Uiso   1.00
H28    H     0.86859   0.59202   0.03457   0.00000  Uiso   1.00
H29    H     0.65447   0.59872   0.44634   0.00000  Uiso   1.00
H30    H     0.65318   0.00789   0.86186   0.00000  Uiso   1.00
H31    H     0.57394   0.64503   0.93713   0.00000  Uiso   1.00
H32    H     0.63736   0.57563   0.06203   0.00000  Uiso   1.00
H33    H     0.53582   0.57880   0.78305   0.00000  Uiso   1.00
H34    H     0.53521   0.77284   0.98010   0.00000  Uiso   1.00
H35    H     0.72885   0.51096   0.17863   0.00000  Uiso   1.00
H36    H     0.51472   0.51767   0.59040   0.00000  Uiso   1.00
H37    H     0.51344   0.92683   0.00592   0.00000  Uiso   1.00
O38    O     0.84339   0.50753   0.18570   0.00000  Uiso   1.00
O39    O     0.56246   0.51634   0.41397   0.00000  Uiso   1.00
O40    O     0.56077   0.05315   0.95912   0.00000  Uiso   1.00
N41    N     0.82700   0.58247   0.05134   0.00000  Uiso   1.00
N42    N     0.62681   0.58873   0.50139   0.00000  Uiso   1.00
N43    N     0.62560   0.97127   0.88984   0.00000  Uiso   1.00
N44    N     0.75181   0.53886   0.12886   0.00000  Uiso   1.00
N45    N     0.55162   0.54512   0.57891   0.00000  Uiso   1.00
N46    N     0.55040   0.92765   0.96736   0.00000  Uiso   1.00
C47    C     0.80023   0.78199   0.30742   0.00000  Uiso   1.00
C48    C     0.78354   0.82999   0.39360   0.00000  Uiso   1.00
C49    C     0.72763   0.84607   0.42287   0.00000  Uiso   1.00
C50    C     0.72143   0.89104   0.50350   0.00000  Uiso   1.00
C51    C     0.68821   0.96137   0.62975   0.00000  Uiso   1.00
C52    C     0.83871   0.82828   0.24203   0.00000  Uiso   1.00
C53    C     0.82918   0.84290   0.14385   0.00000  Uiso   1.00
C54    C     0.86943   0.88643   0.09690   0.00000  Uiso   1.00
C55    C     0.92189   0.95405   0.98781   0.00000  Uiso   1.00
C56    C     0.83904   0.72286   0.34910   0.00000  Uiso   1.00
C57    C     0.82980   0.64883   0.34093   0.00000  Uiso   1.00
C58    C     0.87033   0.60360   0.38410   0.00000  Uiso   1.00
C59    C     0.92329   0.50754   0.44126   0.00000  Uiso   1.00
C60    C     0.88866   0.83328   0.39858   0.00000  Uiso   1.00
C61    C     0.83157   0.85785   0.44311   0.00000  Uiso   1.00
C62    C     0.82546   0.90281   0.52373   0.00000  Uiso   1.00
C63    C     0.76954   0.91895   0.55311   0.00000  Uiso   1.00
C64    C     0.88674   0.85614   0.29154   0.00000  Uiso   1.00
C65    C     0.92702   0.89965   0.24471   0.00000  Uiso   1.00
C66    C     0.91755   0.91434   0.14650   0.00000  Uiso   1.00
C67    C     0.88707   0.75071   0.39861   0.00000  Uiso   1.00
C68    C     0.92763   0.70559   0.44179   0.00000  Uiso   1.00
C69    C     0.91845   0.63151   0.43370   0.00000  Uiso   1.00
H70    H     0.76284   0.76030   0.26887   0.00000  Uiso   1.00
H71    H     0.69047   0.82450   0.38452   0.00000  Uiso   1.00
H72    H     0.79201   0.82133   0.10556   0.00000  Uiso   1.00
H73    H     0.79262   0.62730   0.30261   0.00000  Uiso   1.00
H74    H     0.63141   0.90798   0.53457   0.00000  Uiso   1.00
H75    H     0.84553   0.90128   0.94634   0.00000  Uiso   1.00
H76    H     0.84682   0.49211   0.36186   0.00000  Uiso   1.00
H77    H     0.92606   0.85497   0.43713   0.00000  Uiso   1.00
H78    H     0.86264   0.92437   0.56203   0.00000  Uiso   1.00
H79    H     0.96418   0.92120   0.28305   0.00000  Uiso   1.00
H80    H     0.96479   0.72716   0.48010   0.00000  Uiso   1.00
H81    H     0.77115   0.98904   0.67863   0.00000  Uiso   1.00
H82    H     0.98528   0.98233   0.09040   0.00000  Uiso   1.00
H83    H     0.98656   0.57317   0.50592   0.00000  Uiso   1.00
O84    O     0.65661   0.99247   0.68570   0.00000  Uiso   1.00
O85    O     0.93754   0.98366   0.91397   0.00000  Uiso   1.00
O86    O     0.93923   0.44685   0.45912   0.00000  Uiso   1.00
N87    N     0.67300   0.91753   0.55134   0.00000  Uiso   1.00
N88    N     0.87319   0.91127   0.00139   0.00000  Uiso   1.00
N89    N     0.87440   0.52873   0.38984   0.00000  Uiso   1.00
N90    N     0.74819   0.96114   0.62886   0.00000  Uiso   1.00
N91    N     0.94838   0.95488   0.07891   0.00000  Uiso   1.00
N92    N     0.94960   0.57235   0.46736   0.00000  Uiso   1.00
C93    C     0.30023   0.71801   0.69258   0.00000  Uiso   1.00
C94    C     0.28354   0.67001   0.60640   0.00000  Uiso   1.00
C95    C     0.22763   0.65393   0.57713   0.00000  Uiso   1.00
C96    C     0.22143   0.60896   0.49650   0.00000  Uiso   1.00
C97    C     0.18821   0.53863   0.37025   0.00000  Uiso   1.00
C98    C     0.33871   0.67172   0.75797   0.00000  Uiso   1.00
C99    C     0.32918   0.65710   0.85615   0.00000  Uiso   1.00
C100   C     0.36943   0.61357   0.90310   0.00000  Uiso   1.00
C101   C     0.42189   0.54595   0.01219   0.00000  Uiso   1.00
C102   C     0.33904   0.77714   0.65090   0.00000  Uiso   1.00
C103   C     0.32980   0.85117   0.65907   0.00000  Uiso   1.00
C104   C     0.37033   0.89640   0.61590   0.00000  Uiso   1.00
C105   C     0.42329   0.99246   0.55874   0.00000  Uiso   1.00
C106   C     0.38866   0.66672   0.60142   0.00000  Uiso   1.00
C107   C     0.33157   0.64215   0.55689   0.00000  Uiso   1.00
C108   C     0.32546   0.59719   0.47627   0.00000  Uiso   1.00
C109   C     0.26954   0.58105   0.44689   0.00000  Uiso   1.00
C110   C     0.38674   0.64386   0.70846   0.00000  Uiso   1.00
C111   C     0.42702   0.60035   0.75529   0.00000  Uiso   1.00
C112   C     0.41755   0.58566   0.85350   0.00000  Uiso   1.00
C113   C     0.38707   0.74929   0.60139   0.00000  Uiso   1.00
C114   C     0.42763   0.79441   0.55821   0.00000  Uiso   1.00
C115   C     0.41845   0.86849   0.56630   0.00000  Uiso   1.00
H116   H     0.26284   0.73970   0.73113   0.00000  Uiso   1.00
H117   H     0.19047   0.67550   0.61548   0.00000  Uiso   1.00
H118   H     0.29201   0.67867   0.89444   0.00000  Uiso   1.00
H119   H     0.29262   0.87270   0.69739   0.00000  Uiso   1.00
H120   H     0.13141   0.59202   0.46543   0.00000  Uiso   1.00
H121   H     0.34553   0.59872   0.05366   0.00000  Uiso   1.00
H122   H     0.34682   0.00789   0.63814   0.00000  Uiso   1.00
H123   H     0.42606   0.64503   0.56287   0.00000  Uiso   1.00
H124   H     0.36264   0.57563   0.43797   0.00000  Uiso   1.00
H125   H     0.46418   0.57880   0.71695   0.00000  Uiso   1.00
H126   H     0.46479   0.77284   0.51990   0.00000  Uiso   1.00
H127   H     0.27115   0.51096   0.32137   0.00000  Uiso   1.00
H128   H     0.48528   0.51767   0.90960   0.00000  Uiso   1.00
H129   H     0.48656   0.92683   0.49408   0.00000  Uiso   1.00
O130   O     0.15661   0.50753   0.31430   0.00000  Uiso   1.00
O131   O     0.43754   0.51634   0.08603   0.00000  Uiso   1.00
O132   O     0.43923   0.05315   0.54088   0.00000  Uiso   1.00
N133   N     0.17300   0.58247   0.44866   0.00000  Uiso   1.00
N134   N     0.37319   0.58873   0.99861   0.00000  Uiso   1.00
N135   N     0.37440   0.97127   0.61016   0.00000  Uiso   1.00
N136   N     0.24819   0.53886   0.37114   0.00000  Uiso   1.00
N137   N     0.44838   0.54512   0.92109   0.00000  Uiso   1.00
N138   N     0.44960   0.92765   0.53264   0.00000  Uiso   1.00
C139   C     0.19977   0.78199   0.19258   0.00000  Uiso   1.00
C140   C     0.21646   0.82999   0.10640   0.00000  Uiso   1.00
C141   C     0.27237   0.84607   0.07713   0.00000  Uiso   1.00
C142   C     0.27857   0.89104   0.99650   0.00000  Uiso   1.00
C143   C     0.31179   0.96137   0.87025   0.00000  Uiso   1.00
C144   C     0.16129   0.82828   0.25797   0.00000  Uiso   1.00
C145   C     0.17082   0.84290   0.35615   0.00000  Uiso   1.00
C146   C     0.13057   0.88643   0.40310   0.00000  Uiso   1.00
C147   C     0.07811   0.95405   0.51219   0.00000  Uiso   1.00
C148   C     0.16096   0.72286   0.15090   0.00000  Uiso   1.00
C149   C     0.17020   0.64883   0.15907   0.00000  Uiso   1.00
C150   C     0.12967   0.60360   0.11590   0.00000  Uiso   1.00
C151   C     0.07671   0.50754   0.05874   0.00000  Uiso   1.00
C152   C     0.11134   0.83328   0.10142   0.00000  Uiso   1.00
C153   C     0.16843   0.85785   0.05689   0.00000  Uiso   1.00
C154   C     0.17454   0.90281   0.97627   0.00000  Uiso   1.00
C155   C     0.23046   0.91895   0.94689   0.00000  Uiso   1.00
C156   C     0.11326   0.85614   0.20846   0.00000  Uiso   1.00
C157   C     0.07298   0.89965   0.25529   0.00000  Uiso   1.00
C158   C     0.08245   0.91434   0.35350   0.00000  Uiso   1.00
C159   C     0.11293   0.75071   0.10139   0.00000  Uiso   1.00
C160   C     0.07237   0.70559   0.05821   0.00000  Uiso   1.00
C161   C     0.08155   0.63151   0.06630   0.00000  Uiso   1.00
H162   H     0.23716   0.76030   0.23113   0.00000  Uiso   1.00
H163   H     0.30953   0.82450   0.11548   0.00000  Uiso   1.00
H164   H     0.20799   0.82133   0.39444   0.00000  Uiso   1.00
H165   H     0.20738   0.62730   0.19739   0.00000  Uiso   1.00
H166   H     0.36859   0.90798   0.96543   0.00000  Uiso   1.00
H167   H     0.15447   0.90128   0.55366   0.00000  Uiso   1.00
H168   H     0.15318   0.49211   0.13814   0.00000  Uiso   1.00
H169   H     0.07394   0.85497   0.06287   0.00000  Uiso   1.00
H170   H     0.13736   0.92437   0.93797   0.00000  Uiso   1.00
H171   H     0.03582   0.92120   0.21695   0.00000  Uiso   1.00
H172   H     0.03521   0.72716   0.01990   0.00000  Uiso   1.00
H173   H     0.22885   0.98904   0.82137   0.00000  Uiso   1.00
H174   H     0.01472   0.98233   0.40960   0.00000  Uiso   1.00
H175   H     0.01344   0.57317   0.99408   0.00000  Uiso   1.00
O176   O     0.34339   0.99247   0.81430   0.00000  Uiso   1.00
O177   O     0.06246   0.98366   0.58603   0.00000  Uiso   1.00
O178   O     0.06077   0.44685   0.04088   0.00000  Uiso   1.00
N179   N     0.32700   0.91753   0.94866   0.00000  Uiso   1.00
N180   N     0.12681   0.91127   0.49861   0.00000  Uiso   1.00
N181   N     0.12560   0.52873   0.11016   0.00000  Uiso   1.00
N182   N     0.25181   0.96114   0.87114   0.00000  Uiso   1.00
N183   N     0.05162   0.95488   0.42109   0.00000  Uiso   1.00
N184   N     0.05040   0.57235   0.03264   0.00000  Uiso   1.00
C185   C     0.30023   0.28199   0.19258   0.00000  Uiso   1.00
C186   C     0.28354   0.32999   0.10640   0.00000  Uiso   1.00
C187   C     0.22763   0.34607   0.07713   0.00000  Uiso   1.00
C188   C     0.22143   0.39104   0.99650   0.00000  Uiso   1.00
C189   C     0.18821   0.46137   0.87025   0.00000  Uiso   1.00
C190   C     0.33871   0.32828   0.25797   0.00000  Uiso   1.00
C191   C     0.32918   0.34290   0.35615   0.00000  Uiso   1.00
C192   C     0.36943   0.38643   0.40310   0.00000  Uiso   1.00
C193   C     0.42189   0.45405   0.51219   0.00000  Uiso   1.00
C194   C     0.33904   0.22286   0.15090   0.00000  Uiso   1.00
C195   C     0.32980   0.14883   0.15907   0.00000  Uiso   1.00
C196   C     0.37033   0.10360   0.11590   0.00000  Uiso   1.00
C197   C     0.42329   0.00754   0.05874   0.00000  Uiso   1.00
C198   C     0.38866   0.33328   0.10142   0.00000  Uiso   1.00
C199   C     0.33157   0.35785   0.05689   0.00000  Uiso   1.00
C200   C     0.32546   0.40281   0.97627   0.00000  Uiso   1.00
C201   C     0.26954   0.41895   0.94689   0.00000  Uiso   1.00
C202   C     0.38674   0.35614   0.20846   0.00000  Uiso   1.00
C203   C     0.42702   0.39965   0.25529   0.00000  Uiso   1.00
C204   C     0.41755   0.41434   0.35350   0.00000  Uiso   1.00
C205   C     0.38707   0.25071   0.10139   0.00000  Uiso   1.00
C206   C     0.42763   0.20559   0.05821   0.00000  Uiso   1.00
C207   C     0.41845   0.13151   0.06630   0.00000  Uiso   1.00
H208   H     0.26284   0.26030   0.23113   0.00000  Uiso   1.00
H209   H     0.19047   0.32450   0.11548   0.00000  Uiso   1.00
H210   H     0.29201   0.32133   0.39444   0.00000  Uiso   1.00
H211   H     0.29262   0.12730   0.19739   0.00000  Uiso   1.00
H212   H     0.13141   0.40798   0.96543   0.00000  Uiso   1.00
H213   H     0.34553   0.40128   0.55366   0.00000  Uiso   1.00
H214   H     0.34682   0.99211   0.13814   0.00000  Uiso   1.00
H215   H     0.42606   0.35497   0.06287   0.00000  Uiso   1.00
H216   H     0.36264   0.42437   0.93797   0.00000  Uiso   1.00
H217   H     0.46418   0.42120   0.21695   0.00000  Uiso   1.00
H218   H     0.46479   0.22716   0.01990   0.00000  Uiso   1.00
H219   H     0.27115   0.48904   0.82137   0.00000  Uiso   1.00
H220   H     0.48528   0.48233   0.40960   0.00000  Uiso   1.00
H221   H     0.48656   0.07317   0.99408   0.00000  Uiso   1.00
O222   O     0.15661   0.49247   0.81430   0.00000  Uiso   1.00
O223   O     0.43754   0.48366   0.58603   0.00000  Uiso   1.00
O224   O     0.43923   0.94685   0.04088   0.00000  Uiso   1.00
N225   N     0.17300   0.41753   0.94866   0.00000  Uiso   1.00
N226   N     0.37319   0.41127   0.49861   0.00000  Uiso   1.00
N227   N     0.37440   0.02873   0.11016   0.00000  Uiso   1.00
N228   N     0.24819   0.46114   0.87114   0.00000  Uiso   1.00
N229   N     0.44838   0.45488   0.42109   0.00000  Uiso   1.00
N230   N     0.44960   0.07235   0.03264   0.00000  Uiso   1.00
C231   C     0.19977   0.21801   0.69258   0.00000  Uiso   1.00
C232   C     0.21646   0.17001   0.60640   0.00000  Uiso   1.00
C233   C     0.27237   0.15393   0.57713   0.00000  Uiso   1.00
C234   C     0.27857   0.10896   0.49650   0.00000  Uiso   1.00
C235   C     0.31179   0.03863   0.37025   0.00000  Uiso   1.00
C236   C     0.16129   0.17172   0.75797   0.00000  Uiso   1.00
C237   C     0.17082   0.15710   0.85615   0.00000  Uiso   1.00
C238   C     0.13057   0.11357   0.90310   0.00000  Uiso   1.00
C239   C     0.07811   0.04595   0.01219   0.00000  Uiso   1.00
C240   C     0.16096   0.27714   0.65090   0.00000  Uiso   1.00
C241   C     0.17020   0.35117   0.65907   0.00000  Uiso   1.00
C242   C     0.12967   0.39640   0.61590   0.00000  Uiso   1.00
C243   C     0.07671   0.49246   0.55874   0.00000  Uiso   1.00
C244   C     0.11134   0.16672   0.60142   0.00000  Uiso   1.00
C245   C     0.16843   0.14215   0.55689   0.00000  Uiso   1.00
C246   C     0.17454   0.09719   0.47627   0.00000  Uiso   1.00
C247   C     0.23046   0.08105   0.44689   0.00000  Uiso   1.00
C248   C     0.11326   0.14386   0.70846   0.00000  Uiso   1.00
C249   C     0.07298   0.10035   0.75529   0.00000  Uiso   1.00
C250   C     0.08245   0.08566   0.85350   0.00000  Uiso   1.00
C251   C     0.11293   0.24929   0.60139   0.00000  Uiso   1.00
C252   C     0.07237   0.29441   0.55821   0.00000  Uiso   1.00
C253   C     0.08155   0.36849   0.56630   0.00000  Uiso   1.00
H254   H     0.23716   0.23970   0.73113   0.00000  Uiso   1.00
H255   H     0.30953   0.17550   0.61548   0.00000  Uiso   1.00
H256   H     0.20799   0.17867   0.89444   0.00000  Uiso   1.00
H257   H     0.20738   0.37270   0.69739   0.00000  Uiso   1.00
H258   H     0.36859   0.09202   0.46543   0.00000  Uiso   1.00
H259   H     0.15447   0.09872   0.05366   0.00000  Uiso   1.00
H260   H     0.15318   0.50789   0.63814   0.00000  Uiso   1.00
H261   H     0.07394   0.14503   0.56287   0.00000  Uiso   1.00
H262   H     0.13736   0.07563   0.43797   0.00000  Uiso   1.00
H263   H     0.03582   0.07880   0.71695   0.00000  Uiso   1.00
H264   H     0.03521   0.27284   0.51990   0.00000  Uiso   1.00
H265   H     0.22885   0.01096   0.32137   0.00000  Uiso   1.00
H266   H     0.01472   0.01767   0.90960   0.00000  Uiso   1.00
H267   H     0.01344   0.42683   0.49408   0.00000  Uiso   1.00
O268   O     0.34339   0.00753   0.31430   0.00000  Uiso   1.00
O269   O     0.06246   0.01634   0.08603   0.00000  Uiso   1.00
O270   O     0.06077   0.55315   0.54088   0.00000  Uiso   1.00
N271   N     0.32700   0.08247   0.44866   0.00000  Uiso   1.00
N272   N     0.12681   0.08873   0.99861   0.00000  Uiso   1.00
N273   N     0.12560   0.47127   0.61016   0.00000  Uiso   1.00
N274   N     0.25181   0.03886   0.37114   0.00000  Uiso   1.00
N275   N     0.05162   0.04512   0.92109   0.00000  Uiso   1.00
N276   N     0.05040   0.42765   0.53264   0.00000  Uiso   1.00
C277   C     0.69977   0.28199   0.30742   0.00000  Uiso   1.00
C278   C     0.71646   0.32999   0.39360   0.00000  Uiso   1.00
C279   C     0.77237   0.34607   0.42287   0.00000  Uiso   1.00
C280   C     0.77857   0.39104   0.50350   0.00000  Uiso   1.00
C281   C     0.81179   0.46137   0.62975   0.00000  Uiso   1.00
C282   C     0.66129   0.32828   0.24203   0.00000  Uiso   1.00
C283   C     0.67082   0.34290   0.14385   0.00000  Uiso   1.00
C284   C     0.63057   0.38643   0.09690   0.00000  Uiso   1.00
C285   C     0.57811   0.45405   0.98781   0.00000  Uiso   1.00
C286   C     0.66096   0.22286   0.34910   0.00000  Uiso   1.00
C287   C     0.67020   0.14883   0.34093   0.00000  Uiso   1.00
C288   C     0.62967   0.10360   0.38410   0.00000  Uiso   1.00
C289   C     0.57671   0.00754   0.44126   0.00000  Uiso   1.00
C290   C     0.61134   0.33328   0.39858   0.00000  Uiso   1.00
C291   C     0.66843   0.35785   0.44311   0.00000  Uiso   1.00
C292   C     0.67454   0.40281   0.52373   0.00000  Uiso   1.00
C293   C     0.73046   0.41895   0.55311   0.00000  Uiso   1.00
C294   C     0.61326   0.35614   0.29154   0.00000  Uiso   1.00
C295   C     0.57298   0.39965   0.24471   0.00000  Uiso   1.00
C296   C     0.58245   0.41434   0.14650   0.00000  Uiso   1.00
C297   C     0.61293   0.25071   0.39861   0.00000  Uiso   1.00
C298   C     0.57237   0.20559   0.44179   0.00000  Uiso   1.00
C299   C     0.58155   0.13151   0.43370   0.00000  Uiso   1.00
H300   H     0.73716   0.26030   0.26887   0.00000  Uiso   1.00
H301   H     0.80953   0.32450   0.38452   0.00000  Uiso   1.00
H302   H     0.70799   0.32133   0.10556   0.00000  Uiso   1.00
H303   H     0.70738   0.12730   0.30261   0.00000  Uiso   1.00
H304   H     0.86859   0.40798   0.53457   0.00000  Uiso   1.00
H305   H     0.65447   0.40128   0.94634   0.00000  Uiso   1.00
H306   H     0.65318   0.99211   0.36186   0.00000  Uiso   1.00
H307   H     0.57394   0.35497   0.43713   0.00000  Uiso   1.00
H308   H     0.63736   0.42437   0.56203   0.00000  Uiso   1.00
H309   H     0.53582   0.42120   0.28305   0.00000  Uiso   1.00
H310   H     0.53521   0.22716   0.48010   0.00000  Uiso   1.00
H311   H     0.72885   0.48904   0.67863   0.00000  Uiso   1.00
H312   H     0.51472   0.48233   0.09040   0.00000  Uiso   1.00
H313   H     0.51344   0.07317   0.50592   0.00000  Uiso   1.00
O314   O     0.84339   0.49247   0.68570   0.00000  Uiso   1.00
O315   O     0.56246   0.48366   0.91397   0.00000  Uiso   1.00
O316   O     0.56077   0.94685   0.45912   0.00000  Uiso   1.00
N317   N     0.82700   0.41753   0.55134   0.00000  Uiso   1.00
N318   N     0.62681   0.41127   0.00139   0.00000  Uiso   1.00
N319   N     0.62560   0.02873   0.38984   0.00000  Uiso   1.00
N320   N     0.75181   0.46114   0.62886   0.00000  Uiso   1.00
N321   N     0.55162   0.45488   0.07891   0.00000  Uiso   1.00
N322   N     0.55040   0.07235   0.46736   0.00000  Uiso   1.00
C323   C     0.80023   0.21801   0.80742   0.00000  Uiso   1.00
C324   C     0.78354   0.17001   0.89360   0.00000  Uiso   1.00
C325   C     0.72763   0.15393   0.92287   0.00000  Uiso   1.00
C326   C     0.72143   0.10896   0.00350   0.00000  Uiso   1.00
C327   C     0.68821   0.03863   0.12975   0.00000  Uiso   1.00
C328   C     0.83871   0.17172   0.74203   0.00000  Uiso   1.00
C329   C     0.82918   0.15710   0.64385   0.00000  Uiso   1.00
C330   C     0.86943   0.11357   0.59690   0.00000  Uiso   1.00
C331   C     0.92189   0.04595   0.48781   0.00000  Uiso   1.00
C332   C     0.83904   0.27714   0.84910   0.00000  Uiso   1.00
C333   C     0.82980   0.35117   0.84093   0.00000  Uiso   1.00
C334   C     0.87033   0.39640   0.88410   0.00000  Uiso   1.00
C335   C     0.92329   0.49246   0.94126   0.00000  Uiso   1.00
C336   C     0.88866   0.16672   0.89858   0.00000  Uiso   1.00
C337   C     0.83157   0.14215   0.94311   0.00000  Uiso   1.00
C338   C     0.82546   0.09719   0.02373   0.00000  Uiso   1.00
C339   C     0.76954   0.08105   0.05311   0.00000  Uiso   1.00
C340   C     0.88674   0.14386   0.79154   0.00000  Uiso   1.00
C341   C     0.92702   0.10035   0.74471   0.00000  Uiso   1.00
C342   C     0.91755   0.08566   0.64650   0.00000  Uiso   1.00
C343   C     0.88707   0.24929   0.89861   0.00000  Uiso   1.00
C344   C     0.92763   0.29441   0.94179   0.00000  Uiso   1.00
C345   C     0.91845   0.36849   0.93370   0.00000  Uiso   1.00
H346   H     0.76284   0.23970   0.76887   0.00000  Uiso   1.00
H347   H     0.69047   0.17550   0.88452   0.00000  Uiso   1.00
H348   H     0.79201   0.17867   0.60556   0.00000  Uiso   1.00
H349   H     0.79262   0.37270   0.80261   0.00000  Uiso   1.00
H350   H     0.63141   0.09202   0.03457   0.00000  Uiso   1.00
H351   H     0.84553   0.09872   0.44634   0.00000  Uiso   1.00
H352   H     0.84682   0.50789   0.86186   0.00000  Uiso   1.00
H353   H     0.92606   0.14503   0.93713   0.00000  Uiso   1.00
H354   H     0.86264   0.07563   0.06203   0.00000  Uiso   1.00
H355   H     0.96418   0.07880   0.78305   0.00000  Uiso   1.00
H356   H     0.96479   0.27284   0.98010   0.00000  Uiso   1.00
H357   H     0.77115   0.01096   0.17863   0.00000  Uiso   1.00
H358   H     0.98528   0.01767   0.59040   0.00000  Uiso   1.00
H359   H     0.98656   0.42683   0.00592   0.00000  Uiso   1.00
O360   O     0.65661   0.00753   0.18570   0.00000  Uiso   1.00
O361   O     0.93754   0.01634   0.41397   0.00000  Uiso   1.00
O362   O     0.93923   0.55315   0.95912   0.00000  Uiso   1.00
N363   N     0.67300   0.08247   0.05134   0.00000  Uiso   1.00
N364   N     0.87319   0.08873   0.50139   0.00000  Uiso   1.00
N365   N     0.87440   0.47127   0.88984   0.00000  Uiso   1.00
N366   N     0.74819   0.03886   0.12886   0.00000  Uiso   1.00
N367   N     0.94838   0.04512   0.57891   0.00000  Uiso   1.00
N368   N     0.94960   0.42765   0.96736   0.00000  Uiso   1.00
