data_job_04799
_audit_creation_date              2018-12-19
_audit_creation_method            'Materials Studio'
_symmetry_space_group_name_H-M    'P1'
_symmetry_Int_Tables_number       1
_symmetry_cell_setting            triclinic
loop_
_symmetry_equiv_pos_as_xyz
  x,y,z
_cell_length_a                    16.5620
_cell_length_b                    16.5620
_cell_length_c                    17.5175
_cell_angle_alpha                 90.0000
_cell_angle_beta                  90.0000
_cell_angle_gamma                 90.0000
loop_
_atom_site_label
_atom_site_type_symbol
_atom_site_fract_x
_atom_site_fract_y
_atom_site_fract_z
_atom_site_U_iso_or_equiv
_atom_site_adp_type
_atom_site_occupancy
C1     C     0.24710   0.88787   0.81418   0.00000  Uiso   1.00
C2     C     0.19947   0.81145   0.83233   0.00000  Uiso   1.00
C3     C     0.13984   0.80434   0.88758   0.00000  Uiso   1.00
C4     C     0.10342   0.72929   0.89537   0.00000  Uiso   1.00
C5     C     0.02607   0.62058   0.93056   0.00000  Uiso   1.00
C6     C     0.33593   0.86549   0.82302   0.00000  Uiso   1.00
C7     C     0.39104   0.90383   0.87044   0.00000  Uiso   1.00
C8     C     0.46949   0.87427   0.87039   0.00000  Uiso   1.00
C9     C     0.60400   0.84951   0.89108   0.00000  Uiso   1.00
C10    C     0.23425   0.90400   0.72934   0.00000  Uiso   1.00
C11    C     0.20390   0.97471   0.69799   0.00000  Uiso   1.00
C12    C     0.19676   0.97758   0.61906   0.00000  Uiso   1.00
C13    C     0.17341   0.01260   0.49430   0.00000  Uiso   1.00
C14    C     0.28844   0.76724   0.72976   0.00000  Uiso   1.00
C15    C     0.22193   0.74593   0.78647   0.00000  Uiso   1.00
C16    C     0.18558   0.67087   0.79418   0.00000  Uiso   1.00
C17    C     0.12591   0.66364   0.84944   0.00000  Uiso   1.00
C18    C     0.35838   0.79997   0.77717   0.00000  Uiso   1.00
C19    C     0.43677   0.77036   0.77704   0.00000  Uiso   1.00
C20    C     0.49198   0.80863   0.82445   0.00000  Uiso   1.00
C21    C     0.25671   0.83847   0.68348   0.00000  Uiso   1.00
C22    C     0.24963   0.84124   0.60459   0.00000  Uiso   1.00
C23    C     0.21926   0.91194   0.57312   0.00000  Uiso   1.00
H24    H     0.22963   0.93889   0.84988   0.00000  Uiso   1.00
H25    H     0.12249   0.85506   0.92306   0.00000  Uiso   1.00
H26    H     0.37364   0.95454   0.90591   0.00000  Uiso   1.00
H27    H     0.18653   0.02540   0.73349   0.00000  Uiso   1.00
H28    H     0.01363   0.73322   0.98400   0.00000  Uiso   1.00
H29    H     0.54320   0.94299   0.94782   0.00000  Uiso   1.00
H30    H     0.14864   0.09243   0.58423   0.00000  Uiso   1.00
H31    H     0.30593   0.71622   0.69406   0.00000  Uiso   1.00
H32    H     0.20297   0.62017   0.75869   0.00000  Uiso   1.00
H33    H     0.45412   0.71965   0.74154   0.00000  Uiso   1.00
H34    H     0.26701   0.79052   0.56912   0.00000  Uiso   1.00
H35    H     0.07895   0.54257   0.85059   0.00000  Uiso   1.00
H36    H     0.60853   0.75235   0.81441   0.00000  Uiso   1.00
H37    H     0.21396   0.90179   0.45082   0.00000  Uiso   1.00
O38    O     0.97721   0.57872   0.96264   0.00000  Uiso   1.00
O39    O     0.67199   0.85395   0.91517   0.00000  Uiso   1.00
O40    O     0.15432   0.05001   0.43815   0.00000  Uiso   1.00
N41    N     0.04312   0.70154   0.94372   0.00000  Uiso   1.00
N42    N     0.53824   0.89765   0.90991   0.00000  Uiso   1.00
N43    N     0.16937   0.03738   0.56998   0.00000  Uiso   1.00
N44    N     0.07827   0.59895   0.87193   0.00000  Uiso   1.00
N45    N     0.57339   0.79507   0.83812   0.00000  Uiso   1.00
N46    N     0.20452   0.93479   0.49819   0.00000  Uiso   1.00
C47    C     0.75290   0.11213   0.81418   0.00000  Uiso   1.00
C48    C     0.80053   0.18855   0.83233   0.00000  Uiso   1.00
C49    C     0.86016   0.19566   0.88758   0.00000  Uiso   1.00
C50    C     0.89658   0.27071   0.89537   0.00000  Uiso   1.00
C51    C     0.97393   0.37942   0.93056   0.00000  Uiso   1.00
C52    C     0.66407   0.13451   0.82302   0.00000  Uiso   1.00
C53    C     0.60896   0.09617   0.87044   0.00000  Uiso   1.00
C54    C     0.53051   0.12573   0.87039   0.00000  Uiso   1.00
C55    C     0.39600   0.15049   0.89108   0.00000  Uiso   1.00
C56    C     0.76575   0.09600   0.72934   0.00000  Uiso   1.00
C57    C     0.79610   0.02529   0.69799   0.00000  Uiso   1.00
C58    C     0.80324   0.02242   0.61906   0.00000  Uiso   1.00
C59    C     0.82659   0.98740   0.49430   0.00000  Uiso   1.00
C60    C     0.71156   0.23276   0.72976   0.00000  Uiso   1.00
C61    C     0.77807   0.25407   0.78647   0.00000  Uiso   1.00
C62    C     0.81442   0.32913   0.79418   0.00000  Uiso   1.00
C63    C     0.87409   0.33636   0.84944   0.00000  Uiso   1.00
C64    C     0.64162   0.20003   0.77717   0.00000  Uiso   1.00
C65    C     0.56323   0.22964   0.77704   0.00000  Uiso   1.00
C66    C     0.50802   0.19137   0.82445   0.00000  Uiso   1.00
C67    C     0.74329   0.16153   0.68348   0.00000  Uiso   1.00
C68    C     0.75037   0.15876   0.60459   0.00000  Uiso   1.00
C69    C     0.78074   0.08806   0.57312   0.00000  Uiso   1.00
H70    H     0.77037   0.06111   0.84988   0.00000  Uiso   1.00
H71    H     0.87751   0.14494   0.92306   0.00000  Uiso   1.00
H72    H     0.62636   0.04546   0.90591   0.00000  Uiso   1.00
H73    H     0.81347   0.97460   0.73349   0.00000  Uiso   1.00
H74    H     0.98637   0.26678   0.98400   0.00000  Uiso   1.00
H75    H     0.45680   0.05701   0.94782   0.00000  Uiso   1.00
H76    H     0.85136   0.90757   0.58423   0.00000  Uiso   1.00
H77    H     0.69407   0.28378   0.69406   0.00000  Uiso   1.00
H78    H     0.79703   0.37983   0.75869   0.00000  Uiso   1.00
H79    H     0.54588   0.28035   0.74154   0.00000  Uiso   1.00
H80    H     0.73299   0.20948   0.56912   0.00000  Uiso   1.00
H81    H     0.92105   0.45743   0.85059   0.00000  Uiso   1.00
H82    H     0.39147   0.24765   0.81441   0.00000  Uiso   1.00
H83    H     0.78604   0.09821   0.45082   0.00000  Uiso   1.00
O84    O     0.02279   0.42128   0.96264   0.00000  Uiso   1.00
O85    O     0.32801   0.14605   0.91517   0.00000  Uiso   1.00
O86    O     0.84568   0.94999   0.43815   0.00000  Uiso   1.00
N87    N     0.95688   0.29846   0.94372   0.00000  Uiso   1.00
N88    N     0.46176   0.10235   0.90991   0.00000  Uiso   1.00
N89    N     0.83063   0.96262   0.56998   0.00000  Uiso   1.00
N90    N     0.92173   0.40105   0.87193   0.00000  Uiso   1.00
N91    N     0.42661   0.20493   0.83812   0.00000  Uiso   1.00
N92    N     0.79548   0.06521   0.49819   0.00000  Uiso   1.00
C93    C     0.61213   0.74710   0.31418   0.00000  Uiso   1.00
C94    C     0.68855   0.69947   0.33233   0.00000  Uiso   1.00
C95    C     0.69566   0.63984   0.38758   0.00000  Uiso   1.00
C96    C     0.77071   0.60342   0.39537   0.00000  Uiso   1.00
C97    C     0.87942   0.52607   0.43056   0.00000  Uiso   1.00
C98    C     0.63451   0.83593   0.32302   0.00000  Uiso   1.00
C99    C     0.59617   0.89104   0.37044   0.00000  Uiso   1.00
C100   C     0.62573   0.96949   0.37039   0.00000  Uiso   1.00
C101   C     0.65049   0.10400   0.39108   0.00000  Uiso   1.00
C102   C     0.59600   0.73425   0.22934   0.00000  Uiso   1.00
C103   C     0.52529   0.70390   0.19799   0.00000  Uiso   1.00
C104   C     0.52242   0.69676   0.11906   0.00000  Uiso   1.00
C105   C     0.48740   0.67341   0.99430   0.00000  Uiso   1.00
C106   C     0.73276   0.78844   0.22976   0.00000  Uiso   1.00
C107   C     0.75407   0.72193   0.28647   0.00000  Uiso   1.00
C108   C     0.82913   0.68558   0.29418   0.00000  Uiso   1.00
C109   C     0.83636   0.62591   0.34944   0.00000  Uiso   1.00
C110   C     0.70003   0.85838   0.27717   0.00000  Uiso   1.00
C111   C     0.72964   0.93677   0.27704   0.00000  Uiso   1.00
C112   C     0.69137   0.99198   0.32445   0.00000  Uiso   1.00
C113   C     0.66153   0.75671   0.18348   0.00000  Uiso   1.00
C114   C     0.65876   0.74963   0.10459   0.00000  Uiso   1.00
C115   C     0.58806   0.71926   0.07312   0.00000  Uiso   1.00
H116   H     0.56111   0.72963   0.34988   0.00000  Uiso   1.00
H117   H     0.64494   0.62249   0.42306   0.00000  Uiso   1.00
H118   H     0.54546   0.87364   0.40591   0.00000  Uiso   1.00
H119   H     0.47460   0.68653   0.23349   0.00000  Uiso   1.00
H120   H     0.76678   0.51363   0.48400   0.00000  Uiso   1.00
H121   H     0.55701   0.04320   0.44782   0.00000  Uiso   1.00
H122   H     0.40757   0.64864   0.08423   0.00000  Uiso   1.00
H123   H     0.78378   0.80593   0.19406   0.00000  Uiso   1.00
H124   H     0.87983   0.70297   0.25869   0.00000  Uiso   1.00
H125   H     0.78035   0.95412   0.24154   0.00000  Uiso   1.00
H126   H     0.70948   0.76701   0.06912   0.00000  Uiso   1.00
H127   H     0.95743   0.57895   0.35059   0.00000  Uiso   1.00
H128   H     0.74765   0.10853   0.31441   0.00000  Uiso   1.00
H129   H     0.59821   0.71396   0.95082   0.00000  Uiso   1.00
O130   O     0.92128   0.47721   0.46264   0.00000  Uiso   1.00
O131   O     0.64605   0.17199   0.41517   0.00000  Uiso   1.00
O132   O     0.44999   0.65432   0.93815   0.00000  Uiso   1.00
N133   N     0.79846   0.54312   0.44372   0.00000  Uiso   1.00
N134   N     0.60235   0.03824   0.40991   0.00000  Uiso   1.00
N135   N     0.46262   0.66937   0.06998   0.00000  Uiso   1.00
N136   N     0.90105   0.57827   0.37193   0.00000  Uiso   1.00
N137   N     0.70493   0.07339   0.33812   0.00000  Uiso   1.00
N138   N     0.56521   0.70452   0.99819   0.00000  Uiso   1.00
C139   C     0.38787   0.25290   0.31418   0.00000  Uiso   1.00
C140   C     0.31145   0.30053   0.33233   0.00000  Uiso   1.00
C141   C     0.30434   0.36015   0.38758   0.00000  Uiso   1.00
C142   C     0.22929   0.39658   0.39537   0.00000  Uiso   1.00
C143   C     0.12058   0.47393   0.43056   0.00000  Uiso   1.00
C144   C     0.36549   0.16407   0.32302   0.00000  Uiso   1.00
C145   C     0.40383   0.10896   0.37044   0.00000  Uiso   1.00
C146   C     0.37427   0.03051   0.37039   0.00000  Uiso   1.00
C147   C     0.34951   0.89600   0.39108   0.00000  Uiso   1.00
C148   C     0.40400   0.26575   0.22934   0.00000  Uiso   1.00
C149   C     0.47471   0.29610   0.19799   0.00000  Uiso   1.00
C150   C     0.47758   0.30324   0.11906   0.00000  Uiso   1.00
C151   C     0.51260   0.32659   0.99430   0.00000  Uiso   1.00
C152   C     0.26724   0.21156   0.22976   0.00000  Uiso   1.00
C153   C     0.24593   0.27807   0.28647   0.00000  Uiso   1.00
C154   C     0.17087   0.31442   0.29418   0.00000  Uiso   1.00
C155   C     0.16364   0.37409   0.34944   0.00000  Uiso   1.00
C156   C     0.29997   0.14162   0.27717   0.00000  Uiso   1.00
C157   C     0.27036   0.06323   0.27704   0.00000  Uiso   1.00
C158   C     0.30863   0.00802   0.32445   0.00000  Uiso   1.00
C159   C     0.33847   0.24329   0.18348   0.00000  Uiso   1.00
C160   C     0.34124   0.25037   0.10459   0.00000  Uiso   1.00
C161   C     0.41194   0.28074   0.07312   0.00000  Uiso   1.00
H162   H     0.43889   0.27037   0.34988   0.00000  Uiso   1.00
H163   H     0.35506   0.37751   0.42306   0.00000  Uiso   1.00
H164   H     0.45454   0.12636   0.40591   0.00000  Uiso   1.00
H165   H     0.52540   0.31347   0.23349   0.00000  Uiso   1.00
H166   H     0.23322   0.48637   0.48400   0.00000  Uiso   1.00
H167   H     0.44299   0.95680   0.44782   0.00000  Uiso   1.00
H168   H     0.59243   0.35136   0.08423   0.00000  Uiso   1.00
H169   H     0.21622   0.19407   0.19406   0.00000  Uiso   1.00
H170   H     0.12017   0.29703   0.25869   0.00000  Uiso   1.00
H171   H     0.21965   0.04588   0.24154   0.00000  Uiso   1.00
H172   H     0.29052   0.23299   0.06912   0.00000  Uiso   1.00
H173   H     0.04257   0.42105   0.35059   0.00000  Uiso   1.00
H174   H     0.25235   0.89147   0.31441   0.00000  Uiso   1.00
H175   H     0.40179   0.28604   0.95082   0.00000  Uiso   1.00
O176   O     0.07872   0.52279   0.46264   0.00000  Uiso   1.00
O177   O     0.35395   0.82801   0.41517   0.00000  Uiso   1.00
O178   O     0.55001   0.34568   0.93815   0.00000  Uiso   1.00
N179   N     0.20154   0.45688   0.44372   0.00000  Uiso   1.00
N180   N     0.39765   0.96176   0.40991   0.00000  Uiso   1.00
N181   N     0.53738   0.33063   0.06998   0.00000  Uiso   1.00
N182   N     0.09895   0.42173   0.37193   0.00000  Uiso   1.00
N183   N     0.29507   0.92661   0.33812   0.00000  Uiso   1.00
N184   N     0.43479   0.29548   0.99819   0.00000  Uiso   1.00
C185   C     0.25290   0.38787   0.68582   0.00000  Uiso   1.00
C186   C     0.30053   0.31145   0.66767   0.00000  Uiso   1.00
C187   C     0.36015   0.30434   0.61242   0.00000  Uiso   1.00
C188   C     0.39658   0.22929   0.60463   0.00000  Uiso   1.00
C189   C     0.47393   0.12058   0.56944   0.00000  Uiso   1.00
C190   C     0.16407   0.36549   0.67698   0.00000  Uiso   1.00
C191   C     0.10896   0.40383   0.62956   0.00000  Uiso   1.00
C192   C     0.03051   0.37427   0.62961   0.00000  Uiso   1.00
C193   C     0.89600   0.34951   0.60892   0.00000  Uiso   1.00
C194   C     0.26575   0.40400   0.77066   0.00000  Uiso   1.00
C195   C     0.29610   0.47471   0.80201   0.00000  Uiso   1.00
C196   C     0.30324   0.47758   0.88094   0.00000  Uiso   1.00
C197   C     0.32659   0.51260   0.00570   0.00000  Uiso   1.00
C198   C     0.21156   0.26724   0.77024   0.00000  Uiso   1.00
C199   C     0.27807   0.24593   0.71353   0.00000  Uiso   1.00
C200   C     0.31442   0.17087   0.70582   0.00000  Uiso   1.00
C201   C     0.37409   0.16364   0.65056   0.00000  Uiso   1.00
C202   C     0.14162   0.29997   0.72283   0.00000  Uiso   1.00
C203   C     0.06323   0.27036   0.72296   0.00000  Uiso   1.00
C204   C     0.00802   0.30863   0.67555   0.00000  Uiso   1.00
C205   C     0.24329   0.33847   0.81652   0.00000  Uiso   1.00
C206   C     0.25037   0.34124   0.89541   0.00000  Uiso   1.00
C207   C     0.28074   0.41194   0.92688   0.00000  Uiso   1.00
H208   H     0.27037   0.43889   0.65012   0.00000  Uiso   1.00
H209   H     0.37751   0.35506   0.57694   0.00000  Uiso   1.00
H210   H     0.12636   0.45454   0.59409   0.00000  Uiso   1.00
H211   H     0.31347   0.52540   0.76651   0.00000  Uiso   1.00
H212   H     0.48637   0.23322   0.51600   0.00000  Uiso   1.00
H213   H     0.95680   0.44299   0.55218   0.00000  Uiso   1.00
H214   H     0.35136   0.59243   0.91577   0.00000  Uiso   1.00
H215   H     0.19407   0.21622   0.80594   0.00000  Uiso   1.00
H216   H     0.29703   0.12017   0.74131   0.00000  Uiso   1.00
H217   H     0.04588   0.21965   0.75846   0.00000  Uiso   1.00
H218   H     0.23299   0.29052   0.93088   0.00000  Uiso   1.00
H219   H     0.42105   0.04257   0.64941   0.00000  Uiso   1.00
H220   H     0.89147   0.25235   0.68559   0.00000  Uiso   1.00
H221   H     0.28604   0.40179   0.04918   0.00000  Uiso   1.00
O222   O     0.52279   0.07872   0.53736   0.00000  Uiso   1.00
O223   O     0.82801   0.35395   0.58483   0.00000  Uiso   1.00
O224   O     0.34568   0.55001   0.06185   0.00000  Uiso   1.00
N225   N     0.45688   0.20154   0.55628   0.00000  Uiso   1.00
N226   N     0.96176   0.39765   0.59009   0.00000  Uiso   1.00
N227   N     0.33063   0.53738   0.93002   0.00000  Uiso   1.00
N228   N     0.42173   0.09895   0.62807   0.00000  Uiso   1.00
N229   N     0.92661   0.29507   0.66188   0.00000  Uiso   1.00
N230   N     0.29548   0.43479   0.00181   0.00000  Uiso   1.00
C231   C     0.74710   0.61213   0.68582   0.00000  Uiso   1.00
C232   C     0.69947   0.68855   0.66767   0.00000  Uiso   1.00
C233   C     0.63985   0.69566   0.61242   0.00000  Uiso   1.00
C234   C     0.60342   0.77071   0.60463   0.00000  Uiso   1.00
C235   C     0.52607   0.87942   0.56944   0.00000  Uiso   1.00
C236   C     0.83593   0.63451   0.67698   0.00000  Uiso   1.00
C237   C     0.89104   0.59617   0.62956   0.00000  Uiso   1.00
C238   C     0.96949   0.62573   0.62961   0.00000  Uiso   1.00
C239   C     0.10400   0.65049   0.60892   0.00000  Uiso   1.00
C240   C     0.73425   0.59600   0.77066   0.00000  Uiso   1.00
C241   C     0.70390   0.52529   0.80201   0.00000  Uiso   1.00
C242   C     0.69676   0.52242   0.88094   0.00000  Uiso   1.00
C243   C     0.67341   0.48740   0.00570   0.00000  Uiso   1.00
C244   C     0.78844   0.73276   0.77024   0.00000  Uiso   1.00
C245   C     0.72193   0.75407   0.71353   0.00000  Uiso   1.00
C246   C     0.68558   0.82913   0.70582   0.00000  Uiso   1.00
C247   C     0.62591   0.83636   0.65056   0.00000  Uiso   1.00
C248   C     0.85838   0.70003   0.72283   0.00000  Uiso   1.00
C249   C     0.93677   0.72964   0.72296   0.00000  Uiso   1.00
C250   C     0.99198   0.69137   0.67555   0.00000  Uiso   1.00
C251   C     0.75671   0.66153   0.81652   0.00000  Uiso   1.00
C252   C     0.74963   0.65876   0.89541   0.00000  Uiso   1.00
C253   C     0.71926   0.58806   0.92688   0.00000  Uiso   1.00
H254   H     0.72963   0.56111   0.65012   0.00000  Uiso   1.00
H255   H     0.62249   0.64494   0.57694   0.00000  Uiso   1.00
H256   H     0.87364   0.54546   0.59409   0.00000  Uiso   1.00
H257   H     0.68653   0.47460   0.76651   0.00000  Uiso   1.00
H258   H     0.51363   0.76678   0.51600   0.00000  Uiso   1.00
H259   H     0.04320   0.55701   0.55218   0.00000  Uiso   1.00
H260   H     0.64864   0.40757   0.91577   0.00000  Uiso   1.00
H261   H     0.80593   0.78378   0.80594   0.00000  Uiso   1.00
H262   H     0.70297   0.87983   0.74131   0.00000  Uiso   1.00
H263   H     0.95412   0.78035   0.75846   0.00000  Uiso   1.00
H264   H     0.76701   0.70948   0.93088   0.00000  Uiso   1.00
H265   H     0.57895   0.95743   0.64941   0.00000  Uiso   1.00
H266   H     0.10853   0.74765   0.68559   0.00000  Uiso   1.00
H267   H     0.71396   0.59821   0.04918   0.00000  Uiso   1.00
O268   O     0.47721   0.92128   0.53736   0.00000  Uiso   1.00
O269   O     0.17199   0.64605   0.58483   0.00000  Uiso   1.00
O270   O     0.65432   0.44999   0.06185   0.00000  Uiso   1.00
N271   N     0.54312   0.79846   0.55628   0.00000  Uiso   1.00
N272   N     0.03824   0.60235   0.59009   0.00000  Uiso   1.00
N273   N     0.66937   0.46262   0.93002   0.00000  Uiso   1.00
N274   N     0.57827   0.90105   0.62807   0.00000  Uiso   1.00
N275   N     0.07339   0.70493   0.66188   0.00000  Uiso   1.00
N276   N     0.70452   0.56521   0.00181   0.00000  Uiso   1.00
C277   C     0.88787   0.24710   0.18582   0.00000  Uiso   1.00
C278   C     0.81145   0.19947   0.16767   0.00000  Uiso   1.00
C279   C     0.80434   0.13984   0.11242   0.00000  Uiso   1.00
C280   C     0.72929   0.10342   0.10463   0.00000  Uiso   1.00
C281   C     0.62058   0.02607   0.06944   0.00000  Uiso   1.00
C282   C     0.86549   0.33593   0.17698   0.00000  Uiso   1.00
C283   C     0.90383   0.39104   0.12956   0.00000  Uiso   1.00
C284   C     0.87427   0.46949   0.12961   0.00000  Uiso   1.00
C285   C     0.84951   0.60400   0.10892   0.00000  Uiso   1.00
C286   C     0.90400   0.23425   0.27066   0.00000  Uiso   1.00
C287   C     0.97471   0.20390   0.30201   0.00000  Uiso   1.00
C288   C     0.97758   0.19676   0.38094   0.00000  Uiso   1.00
C289   C     0.01260   0.17341   0.50570   0.00000  Uiso   1.00
C290   C     0.76724   0.28844   0.27024   0.00000  Uiso   1.00
C291   C     0.74593   0.22193   0.21353   0.00000  Uiso   1.00
C292   C     0.67087   0.18558   0.20582   0.00000  Uiso   1.00
C293   C     0.66364   0.12591   0.15056   0.00000  Uiso   1.00
C294   C     0.79997   0.35838   0.22283   0.00000  Uiso   1.00
C295   C     0.77036   0.43677   0.22296   0.00000  Uiso   1.00
C296   C     0.80863   0.49198   0.17555   0.00000  Uiso   1.00
C297   C     0.83847   0.25671   0.31652   0.00000  Uiso   1.00
C298   C     0.84124   0.24963   0.39541   0.00000  Uiso   1.00
C299   C     0.91194   0.21926   0.42688   0.00000  Uiso   1.00
H300   H     0.93889   0.22963   0.15012   0.00000  Uiso   1.00
H301   H     0.85506   0.12249   0.07694   0.00000  Uiso   1.00
H302   H     0.95454   0.37364   0.09409   0.00000  Uiso   1.00
H303   H     0.02540   0.18653   0.26651   0.00000  Uiso   1.00
H304   H     0.73322   0.01363   0.01600   0.00000  Uiso   1.00
H305   H     0.94299   0.54320   0.05218   0.00000  Uiso   1.00
H306   H     0.09243   0.14864   0.41577   0.00000  Uiso   1.00
H307   H     0.71622   0.30593   0.30594   0.00000  Uiso   1.00
H308   H     0.62017   0.20297   0.24131   0.00000  Uiso   1.00
H309   H     0.71965   0.45412   0.25846   0.00000  Uiso   1.00
H310   H     0.79052   0.26701   0.43088   0.00000  Uiso   1.00
H311   H     0.54257   0.07895   0.14941   0.00000  Uiso   1.00
H312   H     0.75235   0.60853   0.18559   0.00000  Uiso   1.00
H313   H     0.90179   0.21396   0.54918   0.00000  Uiso   1.00
O314   O     0.57872   0.97721   0.03736   0.00000  Uiso   1.00
O315   O     0.85395   0.67199   0.08483   0.00000  Uiso   1.00
O316   O     0.05001   0.15432   0.56185   0.00000  Uiso   1.00
N317   N     0.70154   0.04312   0.05628   0.00000  Uiso   1.00
N318   N     0.89765   0.53824   0.09009   0.00000  Uiso   1.00
N319   N     0.03738   0.16937   0.43002   0.00000  Uiso   1.00
N320   N     0.59895   0.07827   0.12807   0.00000  Uiso   1.00
N321   N     0.79507   0.57339   0.16188   0.00000  Uiso   1.00
N322   N     0.93479   0.20452   0.50181   0.00000  Uiso   1.00
C323   C     0.11213   0.75290   0.18582   0.00000  Uiso   1.00
C324   C     0.18855   0.80053   0.16767   0.00000  Uiso   1.00
C325   C     0.19566   0.86015   0.11242   0.00000  Uiso   1.00
C326   C     0.27071   0.89658   0.10463   0.00000  Uiso   1.00
C327   C     0.37942   0.97393   0.06944   0.00000  Uiso   1.00
C328   C     0.13451   0.66407   0.17698   0.00000  Uiso   1.00
C329   C     0.09617   0.60896   0.12956   0.00000  Uiso   1.00
C330   C     0.12573   0.53051   0.12961   0.00000  Uiso   1.00
C331   C     0.15049   0.39600   0.10892   0.00000  Uiso   1.00
C332   C     0.09600   0.76575   0.27066   0.00000  Uiso   1.00
C333   C     0.02529   0.79610   0.30201   0.00000  Uiso   1.00
C334   C     0.02242   0.80324   0.38094   0.00000  Uiso   1.00
C335   C     0.98740   0.82659   0.50570   0.00000  Uiso   1.00
C336   C     0.23276   0.71156   0.27024   0.00000  Uiso   1.00
C337   C     0.25407   0.77807   0.21353   0.00000  Uiso   1.00
C338   C     0.32913   0.81442   0.20582   0.00000  Uiso   1.00
C339   C     0.33636   0.87409   0.15056   0.00000  Uiso   1.00
C340   C     0.20003   0.64162   0.22283   0.00000  Uiso   1.00
C341   C     0.22964   0.56323   0.22296   0.00000  Uiso   1.00
C342   C     0.19137   0.50802   0.17555   0.00000  Uiso   1.00
C343   C     0.16153   0.74329   0.31652   0.00000  Uiso   1.00
C344   C     0.15876   0.75037   0.39541   0.00000  Uiso   1.00
C345   C     0.08806   0.78074   0.42688   0.00000  Uiso   1.00
H346   H     0.06111   0.77037   0.15012   0.00000  Uiso   1.00
H347   H     0.14494   0.87751   0.07694   0.00000  Uiso   1.00
H348   H     0.04546   0.62636   0.09409   0.00000  Uiso   1.00
H349   H     0.97460   0.81347   0.26651   0.00000  Uiso   1.00
H350   H     0.26678   0.98637   0.01600   0.00000  Uiso   1.00
H351   H     0.05701   0.45680   0.05218   0.00000  Uiso   1.00
H352   H     0.90757   0.85136   0.41577   0.00000  Uiso   1.00
H353   H     0.28378   0.69407   0.30594   0.00000  Uiso   1.00
H354   H     0.37983   0.79703   0.24131   0.00000  Uiso   1.00
H355   H     0.28035   0.54588   0.25846   0.00000  Uiso   1.00
H356   H     0.20948   0.73299   0.43088   0.00000  Uiso   1.00
H357   H     0.45743   0.92105   0.14941   0.00000  Uiso   1.00
H358   H     0.24765   0.39147   0.18559   0.00000  Uiso   1.00
H359   H     0.09821   0.78604   0.54918   0.00000  Uiso   1.00
O360   O     0.42128   0.02279   0.03736   0.00000  Uiso   1.00
O361   O     0.14605   0.32801   0.08483   0.00000  Uiso   1.00
O362   O     0.94999   0.84568   0.56185   0.00000  Uiso   1.00
N363   N     0.29846   0.95688   0.05628   0.00000  Uiso   1.00
N364   N     0.10235   0.46176   0.09009   0.00000  Uiso   1.00
N365   N     0.96262   0.83063   0.43002   0.00000  Uiso   1.00
N366   N     0.40105   0.92173   0.12807   0.00000  Uiso   1.00
N367   N     0.20493   0.42661   0.16188   0.00000  Uiso   1.00
N368   N     0.06521   0.79548   0.50181   0.00000  Uiso   1.00
