data_job_02588
_audit_creation_date              2018-12-19
_audit_creation_method            'Materials Studio'
_symmetry_space_group_name_H-M    'P1'
_symmetry_Int_Tables_number       1
_symmetry_cell_setting            triclinic
loop_
_symmetry_equiv_pos_as_xyz
  x,y,z
_cell_length_a                    30.5535
_cell_length_b                    7.5700
_cell_length_c                    25.1425
_cell_angle_alpha                 90.0000
_cell_angle_beta                  90.0000
_cell_angle_gamma                 90.0000
loop_
_atom_site_label
_atom_site_type_symbol
_atom_site_fract_x
_atom_site_fract_y
_atom_site_fract_z
_atom_site_U_iso_or_equiv
_atom_site_adp_type
_atom_site_occupancy
C1     C     0.92684   0.40962   0.37905   0.00000  Uiso   1.00
C2     C     0.97328   0.35653   0.39451   0.00000  Uiso   1.00
C3     C     0.00542   0.46950   0.41359   0.00000  Uiso   1.00
C4     C     0.04581   0.39527   0.42544   0.00000  Uiso   1.00
C5     C     0.11672   0.34034   0.45048   0.00000  Uiso   1.00
C6     C     0.92081   0.35018   0.32157   0.00000  Uiso   1.00
C7     C     0.90883   0.45783   0.27932   0.00000  Uiso   1.00
C8     C     0.90504   0.37824   0.22978   0.00000  Uiso   1.00
C9     C     0.89446   0.31345   0.14159   0.00000  Uiso   1.00
C10    C     0.89643   0.29412   0.41227   0.00000  Uiso   1.00
C11    C     0.86394   0.35461   0.44627   0.00000  Uiso   1.00
C12    C     0.83962   0.22781   0.47308   0.00000  Uiso   1.00
C13    C     0.79118   0.07596   0.52571   0.00000  Uiso   1.00
C14    C     0.94142   0.07687   0.36619   0.00000  Uiso   1.00
C15    C     0.98119   0.17579   0.38752   0.00000  Uiso   1.00
C16    C     0.02155   0.10136   0.39935   0.00000  Uiso   1.00
C17    C     0.05374   0.21421   0.41845   0.00000  Uiso   1.00
C18    C     0.92873   0.16946   0.31458   0.00000  Uiso   1.00
C19    C     0.92495   0.08969   0.26509   0.00000  Uiso   1.00
C20    C     0.91297   0.19718   0.22278   0.00000  Uiso   1.00
C21    C     0.90435   0.11338   0.40528   0.00000  Uiso   1.00
C22    C     0.88007   0.98647   0.43204   0.00000  Uiso   1.00
C23    C     0.84755   0.04675   0.46608   0.00000  Uiso   1.00
H24    H     0.92068   0.55032   0.38449   0.00000  Uiso   1.00
H25    H     0.99928   0.60937   0.41898   0.00000  Uiso   1.00
H26    H     0.90270   0.59768   0.28474   0.00000  Uiso   1.00
H27    H     0.85782   0.49448   0.45167   0.00000  Uiso   1.00
H28    H     0.08993   0.59513   0.45412   0.00000  Uiso   1.00
H29    H     0.88626   0.57049   0.17108   0.00000  Uiso   1.00
H30    H     0.79163   0.35287   0.52307   0.00000  Uiso   1.00
H31    H     0.94758   0.93616   0.36075   0.00000  Uiso   1.00
H32    H     0.02766   0.96149   0.39394   0.00000  Uiso   1.00
H33    H     0.93108   0.94982   0.25970   0.00000  Uiso   1.00
H34    H     0.88620   0.84662   0.42663   0.00000  Uiso   1.00
H35    H     0.11296   0.06930   0.43380   0.00000  Uiso   1.00
H36    H     0.90930   0.04466   0.15075   0.00000  Uiso   1.00
H37    H     0.81466   0.82703   0.50274   0.00000  Uiso   1.00
O38    O     0.15364   0.35997   0.46621   0.00000  Uiso   1.00
O39    O     0.88644   0.32765   0.09487   0.00000  Uiso   1.00
O40    O     0.76228   0.04213   0.55667   0.00000  Uiso   1.00
N41    N     0.08435   0.46789   0.44480   0.00000  Uiso   1.00
N42    N     0.89395   0.44486   0.18016   0.00000  Uiso   1.00
N43    N     0.80547   0.24140   0.50923   0.00000  Uiso   1.00
N44    N     0.09675   0.18494   0.43386   0.00000  Uiso   1.00
N45    N     0.90634   0.16192   0.16923   0.00000  Uiso   1.00
N46    N     0.81786   0.95846   0.49830   0.00000  Uiso   1.00
C47    C     0.57316   0.09038   0.37905   0.00000  Uiso   1.00
C48    C     0.52672   0.14347   0.39451   0.00000  Uiso   1.00
C49    C     0.49458   0.03050   0.41359   0.00000  Uiso   1.00
C50    C     0.45419   0.10473   0.42544   0.00000  Uiso   1.00
C51    C     0.38328   0.15966   0.45048   0.00000  Uiso   1.00
C52    C     0.57919   0.14982   0.32157   0.00000  Uiso   1.00
C53    C     0.59117   0.04217   0.27932   0.00000  Uiso   1.00
C54    C     0.59496   0.12176   0.22978   0.00000  Uiso   1.00
C55    C     0.60554   0.18655   0.14159   0.00000  Uiso   1.00
C56    C     0.60357   0.20588   0.41227   0.00000  Uiso   1.00
C57    C     0.63606   0.14539   0.44627   0.00000  Uiso   1.00
C58    C     0.66038   0.27219   0.47308   0.00000  Uiso   1.00
C59    C     0.70882   0.42404   0.52571   0.00000  Uiso   1.00
C60    C     0.55858   0.42313   0.36619   0.00000  Uiso   1.00
C61    C     0.51881   0.32421   0.38752   0.00000  Uiso   1.00
C62    C     0.47845   0.39864   0.39935   0.00000  Uiso   1.00
C63    C     0.44626   0.28579   0.41845   0.00000  Uiso   1.00
C64    C     0.57127   0.33054   0.31458   0.00000  Uiso   1.00
C65    C     0.57505   0.41031   0.26509   0.00000  Uiso   1.00
C66    C     0.58703   0.30282   0.22278   0.00000  Uiso   1.00
C67    C     0.59565   0.38662   0.40528   0.00000  Uiso   1.00
C68    C     0.61993   0.51353   0.43204   0.00000  Uiso   1.00
C69    C     0.65245   0.45325   0.46608   0.00000  Uiso   1.00
H70    H     0.57932   0.94968   0.38449   0.00000  Uiso   1.00
H71    H     0.50072   0.89063   0.41898   0.00000  Uiso   1.00
H72    H     0.59730   0.90232   0.28474   0.00000  Uiso   1.00
H73    H     0.64218   0.00552   0.45167   0.00000  Uiso   1.00
H74    H     0.41007   0.90487   0.45412   0.00000  Uiso   1.00
H75    H     0.61374   0.92951   0.17108   0.00000  Uiso   1.00
H76    H     0.70837   0.14713   0.52307   0.00000  Uiso   1.00
H77    H     0.55242   0.56384   0.36075   0.00000  Uiso   1.00
H78    H     0.47234   0.53851   0.39394   0.00000  Uiso   1.00
H79    H     0.56892   0.55018   0.25970   0.00000  Uiso   1.00
H80    H     0.61380   0.65338   0.42663   0.00000  Uiso   1.00
H81    H     0.38704   0.43070   0.43380   0.00000  Uiso   1.00
H82    H     0.59070   0.45534   0.15075   0.00000  Uiso   1.00
H83    H     0.68534   0.67297   0.50274   0.00000  Uiso   1.00
O84    O     0.34636   0.14003   0.46621   0.00000  Uiso   1.00
O85    O     0.61356   0.17235   0.09487   0.00000  Uiso   1.00
O86    O     0.73772   0.45787   0.55667   0.00000  Uiso   1.00
N87    N     0.41565   0.03211   0.44480   0.00000  Uiso   1.00
N88    N     0.60605   0.05514   0.18016   0.00000  Uiso   1.00
N89    N     0.69453   0.25860   0.50923   0.00000  Uiso   1.00
N90    N     0.40325   0.31506   0.43386   0.00000  Uiso   1.00
N91    N     0.59366   0.33808   0.16923   0.00000  Uiso   1.00
N92    N     0.68214   0.54154   0.49830   0.00000  Uiso   1.00
C93    C     0.07316   0.90962   0.12095   0.00000  Uiso   1.00
C94    C     0.02672   0.85653   0.10549   0.00000  Uiso   1.00
C95    C     0.99458   0.96950   0.08641   0.00000  Uiso   1.00
C96    C     0.95419   0.89527   0.07456   0.00000  Uiso   1.00
C97    C     0.88328   0.84034   0.04952   0.00000  Uiso   1.00
C98    C     0.07919   0.85018   0.17843   0.00000  Uiso   1.00
C99    C     0.09117   0.95783   0.22068   0.00000  Uiso   1.00
C100   C     0.09496   0.87824   0.27022   0.00000  Uiso   1.00
C101   C     0.10554   0.81345   0.35841   0.00000  Uiso   1.00
C102   C     0.10357   0.79412   0.08773   0.00000  Uiso   1.00
C103   C     0.13606   0.85461   0.05373   0.00000  Uiso   1.00
C104   C     0.16038   0.72781   0.02692   0.00000  Uiso   1.00
C105   C     0.20882   0.57596   0.97429   0.00000  Uiso   1.00
C106   C     0.05858   0.57687   0.13381   0.00000  Uiso   1.00
C107   C     0.01881   0.67579   0.11248   0.00000  Uiso   1.00
C108   C     0.97845   0.60136   0.10065   0.00000  Uiso   1.00
C109   C     0.94626   0.71421   0.08155   0.00000  Uiso   1.00
C110   C     0.07127   0.66946   0.18542   0.00000  Uiso   1.00
C111   C     0.07505   0.58969   0.23491   0.00000  Uiso   1.00
C112   C     0.08703   0.69718   0.27722   0.00000  Uiso   1.00
C113   C     0.09565   0.61338   0.09472   0.00000  Uiso   1.00
C114   C     0.11993   0.48647   0.06796   0.00000  Uiso   1.00
C115   C     0.15245   0.54675   0.03392   0.00000  Uiso   1.00
H116   H     0.07932   0.05032   0.11551   0.00000  Uiso   1.00
H117   H     0.00072   0.10937   0.08102   0.00000  Uiso   1.00
H118   H     0.09730   0.09768   0.21526   0.00000  Uiso   1.00
H119   H     0.14218   0.99448   0.04833   0.00000  Uiso   1.00
H120   H     0.91007   0.09513   0.04588   0.00000  Uiso   1.00
H121   H     0.11374   0.07049   0.32892   0.00000  Uiso   1.00
H122   H     0.20837   0.85287   0.97693   0.00000  Uiso   1.00
H123   H     0.05242   0.43616   0.13925   0.00000  Uiso   1.00
H124   H     0.97234   0.46149   0.10606   0.00000  Uiso   1.00
H125   H     0.06892   0.44982   0.24030   0.00000  Uiso   1.00
H126   H     0.11380   0.34662   0.07337   0.00000  Uiso   1.00
H127   H     0.88704   0.56930   0.06620   0.00000  Uiso   1.00
H128   H     0.09070   0.54466   0.34925   0.00000  Uiso   1.00
H129   H     0.18534   0.32703   0.99726   0.00000  Uiso   1.00
O130   O     0.84636   0.85997   0.03379   0.00000  Uiso   1.00
O131   O     0.11356   0.82765   0.40513   0.00000  Uiso   1.00
O132   O     0.23772   0.54213   0.94333   0.00000  Uiso   1.00
N133   N     0.91565   0.96789   0.05520   0.00000  Uiso   1.00
N134   N     0.10605   0.94486   0.31984   0.00000  Uiso   1.00
N135   N     0.19453   0.74140   0.99077   0.00000  Uiso   1.00
N136   N     0.90325   0.68494   0.06614   0.00000  Uiso   1.00
N137   N     0.09366   0.66192   0.33077   0.00000  Uiso   1.00
N138   N     0.18214   0.45846   0.00170   0.00000  Uiso   1.00
C139   C     0.42684   0.59038   0.12095   0.00000  Uiso   1.00
C140   C     0.47328   0.64347   0.10549   0.00000  Uiso   1.00
C141   C     0.50542   0.53050   0.08641   0.00000  Uiso   1.00
C142   C     0.54581   0.60473   0.07456   0.00000  Uiso   1.00
C143   C     0.61672   0.65966   0.04952   0.00000  Uiso   1.00
C144   C     0.42081   0.64982   0.17843   0.00000  Uiso   1.00
C145   C     0.40883   0.54217   0.22068   0.00000  Uiso   1.00
C146   C     0.40504   0.62176   0.27022   0.00000  Uiso   1.00
C147   C     0.39446   0.68655   0.35841   0.00000  Uiso   1.00
C148   C     0.39643   0.70588   0.08773   0.00000  Uiso   1.00
C149   C     0.36394   0.64539   0.05373   0.00000  Uiso   1.00
C150   C     0.33962   0.77219   0.02692   0.00000  Uiso   1.00
C151   C     0.29118   0.92404   0.97429   0.00000  Uiso   1.00
C152   C     0.44142   0.92313   0.13381   0.00000  Uiso   1.00
C153   C     0.48119   0.82421   0.11248   0.00000  Uiso   1.00
C154   C     0.52155   0.89864   0.10065   0.00000  Uiso   1.00
C155   C     0.55374   0.78579   0.08155   0.00000  Uiso   1.00
C156   C     0.42873   0.83054   0.18542   0.00000  Uiso   1.00
C157   C     0.42495   0.91031   0.23491   0.00000  Uiso   1.00
C158   C     0.41297   0.80282   0.27722   0.00000  Uiso   1.00
C159   C     0.40435   0.88662   0.09472   0.00000  Uiso   1.00
C160   C     0.38007   0.01353   0.06796   0.00000  Uiso   1.00
C161   C     0.34755   0.95325   0.03392   0.00000  Uiso   1.00
H162   H     0.42068   0.44968   0.11551   0.00000  Uiso   1.00
H163   H     0.49928   0.39063   0.08102   0.00000  Uiso   1.00
H164   H     0.40270   0.40232   0.21526   0.00000  Uiso   1.00
H165   H     0.35782   0.50552   0.04833   0.00000  Uiso   1.00
H166   H     0.58993   0.40487   0.04588   0.00000  Uiso   1.00
H167   H     0.38626   0.42951   0.32892   0.00000  Uiso   1.00
H168   H     0.29163   0.64713   0.97693   0.00000  Uiso   1.00
H169   H     0.44758   0.06384   0.13925   0.00000  Uiso   1.00
H170   H     0.52766   0.03851   0.10606   0.00000  Uiso   1.00
H171   H     0.43108   0.05018   0.24030   0.00000  Uiso   1.00
H172   H     0.38620   0.15338   0.07337   0.00000  Uiso   1.00
H173   H     0.61296   0.93070   0.06620   0.00000  Uiso   1.00
H174   H     0.40930   0.95534   0.34925   0.00000  Uiso   1.00
H175   H     0.31466   0.17297   0.99726   0.00000  Uiso   1.00
O176   O     0.65364   0.64003   0.03379   0.00000  Uiso   1.00
O177   O     0.38644   0.67235   0.40513   0.00000  Uiso   1.00
O178   O     0.26228   0.95787   0.94333   0.00000  Uiso   1.00
N179   N     0.58435   0.53211   0.05520   0.00000  Uiso   1.00
N180   N     0.39395   0.55514   0.31984   0.00000  Uiso   1.00
N181   N     0.30547   0.75860   0.99077   0.00000  Uiso   1.00
N182   N     0.59675   0.81506   0.06614   0.00000  Uiso   1.00
N183   N     0.40634   0.83808   0.33077   0.00000  Uiso   1.00
N184   N     0.31786   0.04154   0.00170   0.00000  Uiso   1.00
C185   C     0.07316   0.59038   0.62095   0.00000  Uiso   1.00
C186   C     0.02672   0.64347   0.60549   0.00000  Uiso   1.00
C187   C     0.99458   0.53050   0.58641   0.00000  Uiso   1.00
C188   C     0.95419   0.60473   0.57456   0.00000  Uiso   1.00
C189   C     0.88328   0.65966   0.54952   0.00000  Uiso   1.00
C190   C     0.07919   0.64982   0.67843   0.00000  Uiso   1.00
C191   C     0.09117   0.54217   0.72068   0.00000  Uiso   1.00
C192   C     0.09496   0.62176   0.77022   0.00000  Uiso   1.00
C193   C     0.10554   0.68655   0.85841   0.00000  Uiso   1.00
C194   C     0.10357   0.70588   0.58773   0.00000  Uiso   1.00
C195   C     0.13606   0.64539   0.55373   0.00000  Uiso   1.00
C196   C     0.16038   0.77219   0.52692   0.00000  Uiso   1.00
C197   C     0.20882   0.92404   0.47429   0.00000  Uiso   1.00
C198   C     0.05858   0.92313   0.63381   0.00000  Uiso   1.00
C199   C     0.01881   0.82421   0.61248   0.00000  Uiso   1.00
C200   C     0.97845   0.89864   0.60065   0.00000  Uiso   1.00
C201   C     0.94626   0.78579   0.58155   0.00000  Uiso   1.00
C202   C     0.07127   0.83054   0.68542   0.00000  Uiso   1.00
C203   C     0.07505   0.91031   0.73491   0.00000  Uiso   1.00
C204   C     0.08703   0.80282   0.77722   0.00000  Uiso   1.00
C205   C     0.09565   0.88662   0.59472   0.00000  Uiso   1.00
C206   C     0.11993   0.01353   0.56796   0.00000  Uiso   1.00
C207   C     0.15245   0.95325   0.53392   0.00000  Uiso   1.00
H208   H     0.07932   0.44968   0.61551   0.00000  Uiso   1.00
H209   H     0.00072   0.39063   0.58102   0.00000  Uiso   1.00
H210   H     0.09730   0.40232   0.71526   0.00000  Uiso   1.00
H211   H     0.14218   0.50552   0.54833   0.00000  Uiso   1.00
H212   H     0.91007   0.40487   0.54588   0.00000  Uiso   1.00
H213   H     0.11374   0.42951   0.82892   0.00000  Uiso   1.00
H214   H     0.20837   0.64713   0.47693   0.00000  Uiso   1.00
H215   H     0.05242   0.06384   0.63925   0.00000  Uiso   1.00
H216   H     0.97234   0.03851   0.60606   0.00000  Uiso   1.00
H217   H     0.06892   0.05018   0.74030   0.00000  Uiso   1.00
H218   H     0.11380   0.15338   0.57337   0.00000  Uiso   1.00
H219   H     0.88704   0.93070   0.56620   0.00000  Uiso   1.00
H220   H     0.09070   0.95534   0.84925   0.00000  Uiso   1.00
H221   H     0.18534   0.17297   0.49726   0.00000  Uiso   1.00
O222   O     0.84636   0.64003   0.53379   0.00000  Uiso   1.00
O223   O     0.11356   0.67235   0.90513   0.00000  Uiso   1.00
O224   O     0.23772   0.95787   0.44333   0.00000  Uiso   1.00
N225   N     0.91565   0.53211   0.55520   0.00000  Uiso   1.00
N226   N     0.10605   0.55514   0.81984   0.00000  Uiso   1.00
N227   N     0.19453   0.75860   0.49077   0.00000  Uiso   1.00
N228   N     0.90325   0.81506   0.56614   0.00000  Uiso   1.00
N229   N     0.09366   0.83808   0.83077   0.00000  Uiso   1.00
N230   N     0.18214   0.04154   0.50170   0.00000  Uiso   1.00
C231   C     0.42684   0.90962   0.62095   0.00000  Uiso   1.00
C232   C     0.47328   0.85653   0.60549   0.00000  Uiso   1.00
C233   C     0.50542   0.96950   0.58641   0.00000  Uiso   1.00
C234   C     0.54581   0.89527   0.57456   0.00000  Uiso   1.00
C235   C     0.61672   0.84034   0.54952   0.00000  Uiso   1.00
C236   C     0.42081   0.85018   0.67843   0.00000  Uiso   1.00
C237   C     0.40883   0.95783   0.72068   0.00000  Uiso   1.00
C238   C     0.40504   0.87824   0.77022   0.00000  Uiso   1.00
C239   C     0.39446   0.81345   0.85841   0.00000  Uiso   1.00
C240   C     0.39643   0.79412   0.58773   0.00000  Uiso   1.00
C241   C     0.36394   0.85461   0.55373   0.00000  Uiso   1.00
C242   C     0.33962   0.72781   0.52692   0.00000  Uiso   1.00
C243   C     0.29118   0.57596   0.47429   0.00000  Uiso   1.00
C244   C     0.44142   0.57687   0.63381   0.00000  Uiso   1.00
C245   C     0.48119   0.67579   0.61248   0.00000  Uiso   1.00
C246   C     0.52155   0.60136   0.60065   0.00000  Uiso   1.00
C247   C     0.55374   0.71421   0.58155   0.00000  Uiso   1.00
C248   C     0.42873   0.66946   0.68542   0.00000  Uiso   1.00
C249   C     0.42495   0.58969   0.73491   0.00000  Uiso   1.00
C250   C     0.41297   0.69718   0.77722   0.00000  Uiso   1.00
C251   C     0.40435   0.61338   0.59472   0.00000  Uiso   1.00
C252   C     0.38007   0.48647   0.56796   0.00000  Uiso   1.00
C253   C     0.34755   0.54675   0.53392   0.00000  Uiso   1.00
H254   H     0.42068   0.05032   0.61551   0.00000  Uiso   1.00
H255   H     0.49928   0.10937   0.58102   0.00000  Uiso   1.00
H256   H     0.40270   0.09768   0.71526   0.00000  Uiso   1.00
H257   H     0.35782   0.99448   0.54833   0.00000  Uiso   1.00
H258   H     0.58993   0.09513   0.54588   0.00000  Uiso   1.00
H259   H     0.38626   0.07049   0.82892   0.00000  Uiso   1.00
H260   H     0.29163   0.85287   0.47693   0.00000  Uiso   1.00
H261   H     0.44758   0.43616   0.63925   0.00000  Uiso   1.00
H262   H     0.52766   0.46149   0.60606   0.00000  Uiso   1.00
H263   H     0.43108   0.44982   0.74030   0.00000  Uiso   1.00
H264   H     0.38620   0.34662   0.57337   0.00000  Uiso   1.00
H265   H     0.61296   0.56930   0.56620   0.00000  Uiso   1.00
H266   H     0.40930   0.54466   0.84925   0.00000  Uiso   1.00
H267   H     0.31466   0.32703   0.49726   0.00000  Uiso   1.00
O268   O     0.65364   0.85997   0.53379   0.00000  Uiso   1.00
O269   O     0.38644   0.82765   0.90513   0.00000  Uiso   1.00
O270   O     0.26228   0.54213   0.44333   0.00000  Uiso   1.00
N271   N     0.58435   0.96789   0.55520   0.00000  Uiso   1.00
N272   N     0.39395   0.94486   0.81984   0.00000  Uiso   1.00
N273   N     0.30547   0.74140   0.49077   0.00000  Uiso   1.00
N274   N     0.59675   0.68494   0.56614   0.00000  Uiso   1.00
N275   N     0.40634   0.66192   0.83077   0.00000  Uiso   1.00
N276   N     0.31786   0.45846   0.50170   0.00000  Uiso   1.00
C277   C     0.92684   0.09038   0.87905   0.00000  Uiso   1.00
C278   C     0.97328   0.14347   0.89451   0.00000  Uiso   1.00
C279   C     0.00542   0.03050   0.91359   0.00000  Uiso   1.00
C280   C     0.04581   0.10473   0.92544   0.00000  Uiso   1.00
C281   C     0.11672   0.15966   0.95048   0.00000  Uiso   1.00
C282   C     0.92081   0.14982   0.82157   0.00000  Uiso   1.00
C283   C     0.90883   0.04217   0.77932   0.00000  Uiso   1.00
C284   C     0.90504   0.12176   0.72978   0.00000  Uiso   1.00
C285   C     0.89446   0.18655   0.64159   0.00000  Uiso   1.00
C286   C     0.89643   0.20588   0.91227   0.00000  Uiso   1.00
C287   C     0.86394   0.14539   0.94627   0.00000  Uiso   1.00
C288   C     0.83962   0.27219   0.97308   0.00000  Uiso   1.00
C289   C     0.79118   0.42404   0.02571   0.00000  Uiso   1.00
C290   C     0.94142   0.42313   0.86619   0.00000  Uiso   1.00
C291   C     0.98119   0.32421   0.88752   0.00000  Uiso   1.00
C292   C     0.02155   0.39864   0.89935   0.00000  Uiso   1.00
C293   C     0.05374   0.28579   0.91845   0.00000  Uiso   1.00
C294   C     0.92873   0.33054   0.81458   0.00000  Uiso   1.00
C295   C     0.92495   0.41031   0.76509   0.00000  Uiso   1.00
C296   C     0.91297   0.30282   0.72278   0.00000  Uiso   1.00
C297   C     0.90435   0.38662   0.90528   0.00000  Uiso   1.00
C298   C     0.88007   0.51353   0.93204   0.00000  Uiso   1.00
C299   C     0.84755   0.45325   0.96608   0.00000  Uiso   1.00
H300   H     0.92068   0.94968   0.88449   0.00000  Uiso   1.00
H301   H     0.99928   0.89063   0.91898   0.00000  Uiso   1.00
H302   H     0.90270   0.90232   0.78474   0.00000  Uiso   1.00
H303   H     0.85782   0.00552   0.95167   0.00000  Uiso   1.00
H304   H     0.08993   0.90487   0.95412   0.00000  Uiso   1.00
H305   H     0.88626   0.92951   0.67108   0.00000  Uiso   1.00
H306   H     0.79163   0.14713   0.02307   0.00000  Uiso   1.00
H307   H     0.94758   0.56384   0.86075   0.00000  Uiso   1.00
H308   H     0.02766   0.53851   0.89394   0.00000  Uiso   1.00
H309   H     0.93108   0.55018   0.75970   0.00000  Uiso   1.00
H310   H     0.88620   0.65338   0.92663   0.00000  Uiso   1.00
H311   H     0.11296   0.43070   0.93380   0.00000  Uiso   1.00
H312   H     0.90930   0.45534   0.65075   0.00000  Uiso   1.00
H313   H     0.81466   0.67297   0.00274   0.00000  Uiso   1.00
O314   O     0.15364   0.14003   0.96621   0.00000  Uiso   1.00
O315   O     0.88644   0.17235   0.59487   0.00000  Uiso   1.00
O316   O     0.76228   0.45787   0.05667   0.00000  Uiso   1.00
N317   N     0.08435   0.03211   0.94480   0.00000  Uiso   1.00
N318   N     0.89395   0.05514   0.68016   0.00000  Uiso   1.00
N319   N     0.80547   0.25860   0.00923   0.00000  Uiso   1.00
N320   N     0.09675   0.31506   0.93386   0.00000  Uiso   1.00
N321   N     0.90634   0.33808   0.66923   0.00000  Uiso   1.00
N322   N     0.81786   0.54154   0.99830   0.00000  Uiso   1.00
C323   C     0.57316   0.40962   0.87905   0.00000  Uiso   1.00
C324   C     0.52672   0.35653   0.89451   0.00000  Uiso   1.00
C325   C     0.49458   0.46950   0.91359   0.00000  Uiso   1.00
C326   C     0.45419   0.39527   0.92544   0.00000  Uiso   1.00
C327   C     0.38328   0.34034   0.95048   0.00000  Uiso   1.00
C328   C     0.57919   0.35018   0.82157   0.00000  Uiso   1.00
C329   C     0.59117   0.45783   0.77932   0.00000  Uiso   1.00
C330   C     0.59496   0.37824   0.72978   0.00000  Uiso   1.00
C331   C     0.60554   0.31345   0.64159   0.00000  Uiso   1.00
C332   C     0.60357   0.29412   0.91227   0.00000  Uiso   1.00
C333   C     0.63606   0.35461   0.94627   0.00000  Uiso   1.00
C334   C     0.66038   0.22781   0.97308   0.00000  Uiso   1.00
C335   C     0.70882   0.07596   0.02571   0.00000  Uiso   1.00
C336   C     0.55858   0.07687   0.86619   0.00000  Uiso   1.00
C337   C     0.51881   0.17579   0.88752   0.00000  Uiso   1.00
C338   C     0.47845   0.10136   0.89935   0.00000  Uiso   1.00
C339   C     0.44626   0.21421   0.91845   0.00000  Uiso   1.00
C340   C     0.57127   0.16946   0.81458   0.00000  Uiso   1.00
C341   C     0.57505   0.08969   0.76509   0.00000  Uiso   1.00
C342   C     0.58703   0.19718   0.72278   0.00000  Uiso   1.00
C343   C     0.59565   0.11338   0.90528   0.00000  Uiso   1.00
C344   C     0.61993   0.98647   0.93204   0.00000  Uiso   1.00
C345   C     0.65245   0.04675   0.96608   0.00000  Uiso   1.00
H346   H     0.57932   0.55032   0.88449   0.00000  Uiso   1.00
H347   H     0.50072   0.60937   0.91898   0.00000  Uiso   1.00
H348   H     0.59730   0.59768   0.78474   0.00000  Uiso   1.00
H349   H     0.64218   0.49448   0.95167   0.00000  Uiso   1.00
H350   H     0.41007   0.59513   0.95412   0.00000  Uiso   1.00
H351   H     0.61374   0.57049   0.67108   0.00000  Uiso   1.00
H352   H     0.70837   0.35287   0.02307   0.00000  Uiso   1.00
H353   H     0.55242   0.93616   0.86075   0.00000  Uiso   1.00
H354   H     0.47234   0.96149   0.89394   0.00000  Uiso   1.00
H355   H     0.56892   0.94982   0.75970   0.00000  Uiso   1.00
H356   H     0.61380   0.84662   0.92663   0.00000  Uiso   1.00
H357   H     0.38704   0.06930   0.93380   0.00000  Uiso   1.00
H358   H     0.59070   0.04466   0.65075   0.00000  Uiso   1.00
H359   H     0.68534   0.82703   0.00274   0.00000  Uiso   1.00
O360   O     0.34636   0.35997   0.96621   0.00000  Uiso   1.00
O361   O     0.61356   0.32765   0.59487   0.00000  Uiso   1.00
O362   O     0.73772   0.04213   0.05667   0.00000  Uiso   1.00
N363   N     0.41565   0.46789   0.94480   0.00000  Uiso   1.00
N364   N     0.60605   0.44486   0.68016   0.00000  Uiso   1.00
N365   N     0.69453   0.24140   0.00923   0.00000  Uiso   1.00
N366   N     0.40325   0.18494   0.93386   0.00000  Uiso   1.00
N367   N     0.59366   0.16192   0.66923   0.00000  Uiso   1.00
N368   N     0.68214   0.95846   0.99830   0.00000  Uiso   1.00
