data_job_02996
_audit_creation_date              2018-12-19
_audit_creation_method            'Materials Studio'
_symmetry_space_group_name_H-M    'P1'
_symmetry_Int_Tables_number       1
_symmetry_cell_setting            triclinic
loop_
_symmetry_equiv_pos_as_xyz
  x,y,z
_cell_length_a                    45.9003
_cell_length_b                    45.9239
_cell_length_c                    6.9442
_cell_angle_alpha                 90.0000
_cell_angle_beta                  90.0000
_cell_angle_gamma                 90.0000
loop_
_atom_site_label
_atom_site_type_symbol
_atom_site_fract_x
_atom_site_fract_y
_atom_site_fract_z
_atom_site_U_iso_or_equiv
_atom_site_adp_type
_atom_site_occupancy
C1     C     0.65118   0.86055   0.82227   0.00000  Uiso   1.00
C2     C     0.67019   0.83622   0.90324   0.00000  Uiso   1.00
C3     C     0.69168   0.82129   0.80320   0.00000  Uiso   1.00
C4     C     0.70665   0.79977   0.90287   0.00000  Uiso   1.00
C5     C     0.73712   0.76296   0.99924   0.00000  Uiso   1.00
C6     C     0.61975   0.85078   0.85191   0.00000  Uiso   1.00
C7     C     0.59883   0.84810   0.70870   0.00000  Uiso   1.00
C8     C     0.57133   0.83884   0.76517   0.00000  Uiso   1.00
C9     C     0.52347   0.82465   0.78186   0.00000  Uiso   1.00
C10    C     0.65563   0.88663   0.95489   0.00000  Uiso   1.00
C11    C     0.66487   0.91411   0.89827   0.00000  Uiso   1.00
C12    C     0.66757   0.93504   0.04144   0.00000  Uiso   1.00
C13    C     0.67543   0.97651   0.21802   0.00000  Uiso   1.00
C14    C     0.63954   0.84887   0.17720   0.00000  Uiso   1.00
C15    C     0.66387   0.82988   0.09602   0.00000  Uiso   1.00
C16    C     0.67880   0.80838   0.19588   0.00000  Uiso   1.00
C17    C     0.70032   0.79342   0.09600   0.00000  Uiso   1.00
C18    C     0.61342   0.84444   0.04468   0.00000  Uiso   1.00
C19    C     0.58595   0.83519   0.10138   0.00000  Uiso   1.00
C20    C     0.56499   0.83249   0.95830   0.00000  Uiso   1.00
C21    C     0.64930   0.88030   0.14767   0.00000  Uiso   1.00
C22    C     0.65199   0.90119   0.29095   0.00000  Uiso   1.00
C23    C     0.66124   0.92868   0.23457   0.00000  Uiso   1.00
H24    H     0.65610   0.86548   0.67218   0.00000  Uiso   1.00
H25    H     0.69657   0.82620   0.65400   0.00000  Uiso   1.00
H26    H     0.60372   0.85301   0.55953   0.00000  Uiso   1.00
H27    H     0.66976   0.91900   0.74907   0.00000  Uiso   1.00
H28    H     0.73864   0.77986   0.71884   0.00000  Uiso   1.00
H29    H     0.54287   0.83639   0.51964   0.00000  Uiso   1.00
H30    H     0.68212   0.97555   0.91933   0.00000  Uiso   1.00
H31    H     0.63462   0.84394   0.32729   0.00000  Uiso   1.00
H32    H     0.67391   0.80348   0.34507   0.00000  Uiso   1.00
H33    H     0.58106   0.83028   0.25058   0.00000  Uiso   1.00
H34    H     0.64710   0.89628   0.44012   0.00000  Uiso   1.00
H35    H     0.72024   0.76141   0.27973   0.00000  Uiso   1.00
H36    H     0.52447   0.81794   0.08053   0.00000  Uiso   1.00
H37    H     0.66372   0.95710   0.48022   0.00000  Uiso   1.00
O38    O     0.75567   0.74440   0.99914   0.00000  Uiso   1.00
O39    O     0.49882   0.81857   0.73780   0.00000  Uiso   1.00
O40    O     0.68152   0.00114   0.26218   0.00000  Uiso   1.00
N41    N     0.72892   0.78107   0.84842   0.00000  Uiso   1.00
N42    N     0.54589   0.83392   0.66217   0.00000  Uiso   1.00
N43    N     0.67607   0.96402   0.03584   0.00000  Uiso   1.00
N44    N     0.71902   0.77114   0.15023   0.00000  Uiso   1.00
N45    N     0.53599   0.82400   0.96398   0.00000  Uiso   1.00
N46    N     0.66617   0.95410   0.33765   0.00000  Uiso   1.00
C47    C     0.15118   0.36055   0.32227   0.00000  Uiso   1.00
C48    C     0.17019   0.33622   0.40324   0.00000  Uiso   1.00
C49    C     0.19168   0.32129   0.30320   0.00000  Uiso   1.00
C50    C     0.20665   0.29977   0.40287   0.00000  Uiso   1.00
C51    C     0.23712   0.26296   0.49924   0.00000  Uiso   1.00
C52    C     0.11975   0.35078   0.35191   0.00000  Uiso   1.00
C53    C     0.09883   0.34810   0.20870   0.00000  Uiso   1.00
C54    C     0.07133   0.33884   0.26517   0.00000  Uiso   1.00
C55    C     0.02347   0.32465   0.28186   0.00000  Uiso   1.00
C56    C     0.15563   0.38663   0.45489   0.00000  Uiso   1.00
C57    C     0.16487   0.41411   0.39827   0.00000  Uiso   1.00
C58    C     0.16757   0.43504   0.54144   0.00000  Uiso   1.00
C59    C     0.17543   0.47651   0.71802   0.00000  Uiso   1.00
C60    C     0.13954   0.34887   0.67720   0.00000  Uiso   1.00
C61    C     0.16387   0.32988   0.59602   0.00000  Uiso   1.00
C62    C     0.17880   0.30838   0.69588   0.00000  Uiso   1.00
C63    C     0.20032   0.29342   0.59600   0.00000  Uiso   1.00
C64    C     0.11342   0.34444   0.54468   0.00000  Uiso   1.00
C65    C     0.08595   0.33519   0.60138   0.00000  Uiso   1.00
C66    C     0.06499   0.33249   0.45830   0.00000  Uiso   1.00
C67    C     0.14930   0.38030   0.64767   0.00000  Uiso   1.00
C68    C     0.15199   0.40119   0.79095   0.00000  Uiso   1.00
C69    C     0.16124   0.42868   0.73457   0.00000  Uiso   1.00
H70    H     0.15610   0.36548   0.17218   0.00000  Uiso   1.00
H71    H     0.19657   0.32620   0.15400   0.00000  Uiso   1.00
H72    H     0.10372   0.35301   0.05953   0.00000  Uiso   1.00
H73    H     0.16976   0.41900   0.24907   0.00000  Uiso   1.00
H74    H     0.23864   0.27986   0.21884   0.00000  Uiso   1.00
H75    H     0.04287   0.33639   0.01964   0.00000  Uiso   1.00
H76    H     0.18212   0.47555   0.41933   0.00000  Uiso   1.00
H77    H     0.13462   0.34394   0.82729   0.00000  Uiso   1.00
H78    H     0.17391   0.30348   0.84507   0.00000  Uiso   1.00
H79    H     0.08106   0.33028   0.75058   0.00000  Uiso   1.00
H80    H     0.14710   0.39628   0.94012   0.00000  Uiso   1.00
H81    H     0.22024   0.26141   0.77973   0.00000  Uiso   1.00
H82    H     0.02447   0.31794   0.58053   0.00000  Uiso   1.00
H83    H     0.16372   0.45710   0.98022   0.00000  Uiso   1.00
O84    O     0.25567   0.24440   0.49914   0.00000  Uiso   1.00
O85    O     0.99882   0.31857   0.23780   0.00000  Uiso   1.00
O86    O     0.18152   0.50114   0.76218   0.00000  Uiso   1.00
N87    N     0.22892   0.28107   0.34842   0.00000  Uiso   1.00
N88    N     0.04589   0.33392   0.16217   0.00000  Uiso   1.00
N89    N     0.17607   0.46402   0.53584   0.00000  Uiso   1.00
N90    N     0.21902   0.27114   0.65023   0.00000  Uiso   1.00
N91    N     0.03599   0.32400   0.46398   0.00000  Uiso   1.00
N92    N     0.16617   0.45410   0.83765   0.00000  Uiso   1.00
C93    C     0.34882   0.13945   0.82227   0.00000  Uiso   1.00
C94    C     0.32981   0.16378   0.90324   0.00000  Uiso   1.00
C95    C     0.30832   0.17871   0.80320   0.00000  Uiso   1.00
C96    C     0.29335   0.20023   0.90287   0.00000  Uiso   1.00
C97    C     0.26288   0.23704   0.99924   0.00000  Uiso   1.00
C98    C     0.38025   0.14922   0.85191   0.00000  Uiso   1.00
C99    C     0.40117   0.15190   0.70870   0.00000  Uiso   1.00
C100   C     0.42867   0.16116   0.76517   0.00000  Uiso   1.00
C101   C     0.47653   0.17535   0.78186   0.00000  Uiso   1.00
C102   C     0.34437   0.11337   0.95489   0.00000  Uiso   1.00
C103   C     0.33513   0.08589   0.89827   0.00000  Uiso   1.00
C104   C     0.33243   0.06496   0.04144   0.00000  Uiso   1.00
C105   C     0.32457   0.02349   0.21802   0.00000  Uiso   1.00
C106   C     0.36046   0.15113   0.17720   0.00000  Uiso   1.00
C107   C     0.33613   0.17012   0.09602   0.00000  Uiso   1.00
C108   C     0.32120   0.19162   0.19588   0.00000  Uiso   1.00
C109   C     0.29968   0.20658   0.09600   0.00000  Uiso   1.00
C110   C     0.38658   0.15556   0.04468   0.00000  Uiso   1.00
C111   C     0.41405   0.16481   0.10138   0.00000  Uiso   1.00
C112   C     0.43501   0.16751   0.95830   0.00000  Uiso   1.00
C113   C     0.35070   0.11970   0.14767   0.00000  Uiso   1.00
C114   C     0.34801   0.09881   0.29095   0.00000  Uiso   1.00
C115   C     0.33876   0.07132   0.23457   0.00000  Uiso   1.00
H116   H     0.34390   0.13452   0.67218   0.00000  Uiso   1.00
H117   H     0.30343   0.17380   0.65400   0.00000  Uiso   1.00
H118   H     0.39628   0.14699   0.55953   0.00000  Uiso   1.00
H119   H     0.33024   0.08100   0.74907   0.00000  Uiso   1.00
H120   H     0.26136   0.22014   0.71884   0.00000  Uiso   1.00
H121   H     0.45713   0.16361   0.51964   0.00000  Uiso   1.00
H122   H     0.31788   0.02445   0.91933   0.00000  Uiso   1.00
H123   H     0.36538   0.15606   0.32729   0.00000  Uiso   1.00
H124   H     0.32609   0.19652   0.34507   0.00000  Uiso   1.00
H125   H     0.41894   0.16972   0.25058   0.00000  Uiso   1.00
H126   H     0.35290   0.10372   0.44012   0.00000  Uiso   1.00
H127   H     0.27976   0.23859   0.27973   0.00000  Uiso   1.00
H128   H     0.47553   0.18206   0.08053   0.00000  Uiso   1.00
H129   H     0.33628   0.04290   0.48022   0.00000  Uiso   1.00
O130   O     0.24433   0.25560   0.99914   0.00000  Uiso   1.00
O131   O     0.50118   0.18143   0.73780   0.00000  Uiso   1.00
O132   O     0.31848   0.99886   0.26218   0.00000  Uiso   1.00
N133   N     0.27108   0.21893   0.84842   0.00000  Uiso   1.00
N134   N     0.45411   0.16608   0.66217   0.00000  Uiso   1.00
N135   N     0.32393   0.03598   0.03584   0.00000  Uiso   1.00
N136   N     0.28098   0.22886   0.15023   0.00000  Uiso   1.00
N137   N     0.46401   0.17600   0.96398   0.00000  Uiso   1.00
N138   N     0.33383   0.04590   0.33765   0.00000  Uiso   1.00
C139   C     0.84882   0.63945   0.32227   0.00000  Uiso   1.00
C140   C     0.82981   0.66378   0.40324   0.00000  Uiso   1.00
C141   C     0.80832   0.67871   0.30320   0.00000  Uiso   1.00
C142   C     0.79335   0.70023   0.40287   0.00000  Uiso   1.00
C143   C     0.76288   0.73704   0.49924   0.00000  Uiso   1.00
C144   C     0.88025   0.64922   0.35191   0.00000  Uiso   1.00
C145   C     0.90117   0.65190   0.20870   0.00000  Uiso   1.00
C146   C     0.92867   0.66116   0.26517   0.00000  Uiso   1.00
C147   C     0.97653   0.67535   0.28186   0.00000  Uiso   1.00
C148   C     0.84437   0.61337   0.45489   0.00000  Uiso   1.00
C149   C     0.83513   0.58589   0.39827   0.00000  Uiso   1.00
C150   C     0.83243   0.56496   0.54144   0.00000  Uiso   1.00
C151   C     0.82457   0.52349   0.71802   0.00000  Uiso   1.00
C152   C     0.86046   0.65113   0.67720   0.00000  Uiso   1.00
C153   C     0.83613   0.67012   0.59602   0.00000  Uiso   1.00
C154   C     0.82120   0.69162   0.69588   0.00000  Uiso   1.00
C155   C     0.79968   0.70658   0.59600   0.00000  Uiso   1.00
C156   C     0.88658   0.65556   0.54468   0.00000  Uiso   1.00
C157   C     0.91405   0.66481   0.60138   0.00000  Uiso   1.00
C158   C     0.93501   0.66751   0.45830   0.00000  Uiso   1.00
C159   C     0.85070   0.61970   0.64767   0.00000  Uiso   1.00
C160   C     0.84801   0.59881   0.79095   0.00000  Uiso   1.00
C161   C     0.83876   0.57132   0.73457   0.00000  Uiso   1.00
H162   H     0.84390   0.63452   0.17218   0.00000  Uiso   1.00
H163   H     0.80343   0.67380   0.15400   0.00000  Uiso   1.00
H164   H     0.89628   0.64699   0.05953   0.00000  Uiso   1.00
H165   H     0.83024   0.58100   0.24907   0.00000  Uiso   1.00
H166   H     0.76136   0.72014   0.21884   0.00000  Uiso   1.00
H167   H     0.95713   0.66361   0.01964   0.00000  Uiso   1.00
H168   H     0.81788   0.52445   0.41933   0.00000  Uiso   1.00
H169   H     0.86538   0.65606   0.82729   0.00000  Uiso   1.00
H170   H     0.82609   0.69652   0.84507   0.00000  Uiso   1.00
H171   H     0.91894   0.66972   0.75058   0.00000  Uiso   1.00
H172   H     0.85290   0.60372   0.94012   0.00000  Uiso   1.00
H173   H     0.77976   0.73859   0.77973   0.00000  Uiso   1.00
H174   H     0.97553   0.68206   0.58053   0.00000  Uiso   1.00
H175   H     0.83628   0.54290   0.98022   0.00000  Uiso   1.00
O176   O     0.74433   0.75560   0.49914   0.00000  Uiso   1.00
O177   O     0.00118   0.68143   0.23780   0.00000  Uiso   1.00
O178   O     0.81848   0.49886   0.76218   0.00000  Uiso   1.00
N179   N     0.77108   0.71893   0.34842   0.00000  Uiso   1.00
N180   N     0.95411   0.66608   0.16217   0.00000  Uiso   1.00
N181   N     0.82393   0.53598   0.53584   0.00000  Uiso   1.00
N182   N     0.78098   0.72886   0.65023   0.00000  Uiso   1.00
N183   N     0.96401   0.67600   0.46398   0.00000  Uiso   1.00
N184   N     0.83383   0.54590   0.83765   0.00000  Uiso   1.00
C185   C     0.34882   0.86055   0.17773   0.00000  Uiso   1.00
C186   C     0.32981   0.83622   0.09676   0.00000  Uiso   1.00
C187   C     0.30832   0.82129   0.19680   0.00000  Uiso   1.00
C188   C     0.29335   0.79977   0.09713   0.00000  Uiso   1.00
C189   C     0.26288   0.76296   0.00076   0.00000  Uiso   1.00
C190   C     0.38025   0.85078   0.14809   0.00000  Uiso   1.00
C191   C     0.40117   0.84810   0.29130   0.00000  Uiso   1.00
C192   C     0.42867   0.83884   0.23483   0.00000  Uiso   1.00
C193   C     0.47653   0.82465   0.21814   0.00000  Uiso   1.00
C194   C     0.34437   0.88663   0.04511   0.00000  Uiso   1.00
C195   C     0.33513   0.91411   0.10173   0.00000  Uiso   1.00
C196   C     0.33243   0.93504   0.95856   0.00000  Uiso   1.00
C197   C     0.32457   0.97651   0.78198   0.00000  Uiso   1.00
C198   C     0.36046   0.84887   0.82280   0.00000  Uiso   1.00
C199   C     0.33613   0.82988   0.90398   0.00000  Uiso   1.00
C200   C     0.32120   0.80838   0.80412   0.00000  Uiso   1.00
C201   C     0.29968   0.79342   0.90400   0.00000  Uiso   1.00
C202   C     0.38658   0.84444   0.95532   0.00000  Uiso   1.00
C203   C     0.41405   0.83519   0.89862   0.00000  Uiso   1.00
C204   C     0.43501   0.83249   0.04170   0.00000  Uiso   1.00
C205   C     0.35070   0.88030   0.85233   0.00000  Uiso   1.00
C206   C     0.34801   0.90119   0.70905   0.00000  Uiso   1.00
C207   C     0.33876   0.92868   0.76543   0.00000  Uiso   1.00
H208   H     0.34390   0.86548   0.32782   0.00000  Uiso   1.00
H209   H     0.30343   0.82620   0.34600   0.00000  Uiso   1.00
H210   H     0.39628   0.85301   0.44047   0.00000  Uiso   1.00
H211   H     0.33024   0.91900   0.25093   0.00000  Uiso   1.00
H212   H     0.26136   0.77986   0.28116   0.00000  Uiso   1.00
H213   H     0.45713   0.83639   0.48036   0.00000  Uiso   1.00
H214   H     0.31788   0.97555   0.08067   0.00000  Uiso   1.00
H215   H     0.36538   0.84394   0.67271   0.00000  Uiso   1.00
H216   H     0.32609   0.80348   0.65493   0.00000  Uiso   1.00
H217   H     0.41894   0.83028   0.74942   0.00000  Uiso   1.00
H218   H     0.35290   0.89628   0.55988   0.00000  Uiso   1.00
H219   H     0.27976   0.76141   0.72027   0.00000  Uiso   1.00
H220   H     0.47553   0.81794   0.91947   0.00000  Uiso   1.00
H221   H     0.33628   0.95710   0.51978   0.00000  Uiso   1.00
O222   O     0.24433   0.74440   0.00086   0.00000  Uiso   1.00
O223   O     0.50118   0.81857   0.26220   0.00000  Uiso   1.00
O224   O     0.31848   0.00114   0.73782   0.00000  Uiso   1.00
N225   N     0.27108   0.78107   0.15158   0.00000  Uiso   1.00
N226   N     0.45411   0.83392   0.33783   0.00000  Uiso   1.00
N227   N     0.32393   0.96402   0.96416   0.00000  Uiso   1.00
N228   N     0.28098   0.77114   0.84977   0.00000  Uiso   1.00
N229   N     0.46401   0.82400   0.03602   0.00000  Uiso   1.00
N230   N     0.33383   0.95410   0.66235   0.00000  Uiso   1.00
C231   C     0.84882   0.36055   0.67773   0.00000  Uiso   1.00
C232   C     0.82981   0.33622   0.59676   0.00000  Uiso   1.00
C233   C     0.80832   0.32129   0.69680   0.00000  Uiso   1.00
C234   C     0.79335   0.29977   0.59713   0.00000  Uiso   1.00
C235   C     0.76288   0.26296   0.50076   0.00000  Uiso   1.00
C236   C     0.88025   0.35078   0.64809   0.00000  Uiso   1.00
C237   C     0.90117   0.34810   0.79130   0.00000  Uiso   1.00
C238   C     0.92867   0.33884   0.73483   0.00000  Uiso   1.00
C239   C     0.97653   0.32465   0.71814   0.00000  Uiso   1.00
C240   C     0.84437   0.38663   0.54511   0.00000  Uiso   1.00
C241   C     0.83513   0.41411   0.60173   0.00000  Uiso   1.00
C242   C     0.83243   0.43504   0.45856   0.00000  Uiso   1.00
C243   C     0.82457   0.47651   0.28198   0.00000  Uiso   1.00
C244   C     0.86046   0.34887   0.32280   0.00000  Uiso   1.00
C245   C     0.83613   0.32988   0.40398   0.00000  Uiso   1.00
C246   C     0.82120   0.30838   0.30412   0.00000  Uiso   1.00
C247   C     0.79968   0.29342   0.40400   0.00000  Uiso   1.00
C248   C     0.88658   0.34444   0.45532   0.00000  Uiso   1.00
C249   C     0.91405   0.33519   0.39862   0.00000  Uiso   1.00
C250   C     0.93501   0.33249   0.54170   0.00000  Uiso   1.00
C251   C     0.85070   0.38030   0.35233   0.00000  Uiso   1.00
C252   C     0.84801   0.40119   0.20905   0.00000  Uiso   1.00
C253   C     0.83876   0.42868   0.26543   0.00000  Uiso   1.00
H254   H     0.84390   0.36548   0.82782   0.00000  Uiso   1.00
H255   H     0.80343   0.32620   0.84600   0.00000  Uiso   1.00
H256   H     0.89628   0.35301   0.94047   0.00000  Uiso   1.00
H257   H     0.83024   0.41900   0.75093   0.00000  Uiso   1.00
H258   H     0.76136   0.27986   0.78116   0.00000  Uiso   1.00
H259   H     0.95713   0.33639   0.98036   0.00000  Uiso   1.00
H260   H     0.81788   0.47555   0.58067   0.00000  Uiso   1.00
H261   H     0.86538   0.34394   0.17271   0.00000  Uiso   1.00
H262   H     0.82609   0.30348   0.15493   0.00000  Uiso   1.00
H263   H     0.91894   0.33028   0.24942   0.00000  Uiso   1.00
H264   H     0.85290   0.39628   0.05988   0.00000  Uiso   1.00
H265   H     0.77976   0.26141   0.22027   0.00000  Uiso   1.00
H266   H     0.97553   0.31794   0.41947   0.00000  Uiso   1.00
H267   H     0.83628   0.45710   0.01978   0.00000  Uiso   1.00
O268   O     0.74433   0.24440   0.50086   0.00000  Uiso   1.00
O269   O     0.00118   0.31857   0.76220   0.00000  Uiso   1.00
O270   O     0.81848   0.50114   0.23782   0.00000  Uiso   1.00
N271   N     0.77108   0.28107   0.65158   0.00000  Uiso   1.00
N272   N     0.95411   0.33392   0.83783   0.00000  Uiso   1.00
N273   N     0.82393   0.46402   0.46416   0.00000  Uiso   1.00
N274   N     0.78098   0.27114   0.34977   0.00000  Uiso   1.00
N275   N     0.96401   0.32400   0.53602   0.00000  Uiso   1.00
N276   N     0.83383   0.45410   0.16235   0.00000  Uiso   1.00
C277   C     0.65118   0.13945   0.17773   0.00000  Uiso   1.00
C278   C     0.67019   0.16378   0.09676   0.00000  Uiso   1.00
C279   C     0.69168   0.17871   0.19680   0.00000  Uiso   1.00
C280   C     0.70665   0.20023   0.09713   0.00000  Uiso   1.00
C281   C     0.73712   0.23704   0.00076   0.00000  Uiso   1.00
C282   C     0.61975   0.14922   0.14809   0.00000  Uiso   1.00
C283   C     0.59883   0.15190   0.29130   0.00000  Uiso   1.00
C284   C     0.57133   0.16116   0.23483   0.00000  Uiso   1.00
C285   C     0.52347   0.17535   0.21814   0.00000  Uiso   1.00
C286   C     0.65563   0.11337   0.04511   0.00000  Uiso   1.00
C287   C     0.66487   0.08589   0.10173   0.00000  Uiso   1.00
C288   C     0.66757   0.06496   0.95856   0.00000  Uiso   1.00
C289   C     0.67543   0.02349   0.78198   0.00000  Uiso   1.00
C290   C     0.63954   0.15113   0.82280   0.00000  Uiso   1.00
C291   C     0.66387   0.17012   0.90398   0.00000  Uiso   1.00
C292   C     0.67880   0.19162   0.80412   0.00000  Uiso   1.00
C293   C     0.70032   0.20658   0.90400   0.00000  Uiso   1.00
C294   C     0.61342   0.15556   0.95532   0.00000  Uiso   1.00
C295   C     0.58595   0.16481   0.89862   0.00000  Uiso   1.00
C296   C     0.56499   0.16751   0.04170   0.00000  Uiso   1.00
C297   C     0.64930   0.11970   0.85233   0.00000  Uiso   1.00
C298   C     0.65199   0.09881   0.70905   0.00000  Uiso   1.00
C299   C     0.66124   0.07132   0.76543   0.00000  Uiso   1.00
H300   H     0.65610   0.13452   0.32782   0.00000  Uiso   1.00
H301   H     0.69657   0.17380   0.34600   0.00000  Uiso   1.00
H302   H     0.60372   0.14699   0.44047   0.00000  Uiso   1.00
H303   H     0.66976   0.08100   0.25093   0.00000  Uiso   1.00
H304   H     0.73864   0.22014   0.28116   0.00000  Uiso   1.00
H305   H     0.54287   0.16361   0.48036   0.00000  Uiso   1.00
H306   H     0.68212   0.02445   0.08067   0.00000  Uiso   1.00
H307   H     0.63462   0.15606   0.67271   0.00000  Uiso   1.00
H308   H     0.67391   0.19652   0.65493   0.00000  Uiso   1.00
H309   H     0.58106   0.16972   0.74942   0.00000  Uiso   1.00
H310   H     0.64710   0.10372   0.55988   0.00000  Uiso   1.00
H311   H     0.72024   0.23859   0.72027   0.00000  Uiso   1.00
H312   H     0.52447   0.18206   0.91947   0.00000  Uiso   1.00
H313   H     0.66372   0.04290   0.51978   0.00000  Uiso   1.00
O314   O     0.75567   0.25560   0.00086   0.00000  Uiso   1.00
O315   O     0.49882   0.18143   0.26220   0.00000  Uiso   1.00
O316   O     0.68152   0.99886   0.73782   0.00000  Uiso   1.00
N317   N     0.72892   0.21893   0.15158   0.00000  Uiso   1.00
N318   N     0.54589   0.16608   0.33783   0.00000  Uiso   1.00
N319   N     0.67607   0.03598   0.96416   0.00000  Uiso   1.00
N320   N     0.71902   0.22886   0.84977   0.00000  Uiso   1.00
N321   N     0.53599   0.17600   0.03602   0.00000  Uiso   1.00
N322   N     0.66617   0.04590   0.66235   0.00000  Uiso   1.00
C323   C     0.15118   0.63945   0.67773   0.00000  Uiso   1.00
C324   C     0.17019   0.66378   0.59676   0.00000  Uiso   1.00
C325   C     0.19168   0.67871   0.69680   0.00000  Uiso   1.00
C326   C     0.20665   0.70023   0.59713   0.00000  Uiso   1.00
C327   C     0.23712   0.73704   0.50076   0.00000  Uiso   1.00
C328   C     0.11975   0.64922   0.64809   0.00000  Uiso   1.00
C329   C     0.09883   0.65190   0.79130   0.00000  Uiso   1.00
C330   C     0.07133   0.66116   0.73483   0.00000  Uiso   1.00
C331   C     0.02347   0.67535   0.71814   0.00000  Uiso   1.00
C332   C     0.15563   0.61337   0.54511   0.00000  Uiso   1.00
C333   C     0.16487   0.58589   0.60173   0.00000  Uiso   1.00
C334   C     0.16757   0.56496   0.45856   0.00000  Uiso   1.00
C335   C     0.17543   0.52349   0.28198   0.00000  Uiso   1.00
C336   C     0.13954   0.65113   0.32280   0.00000  Uiso   1.00
C337   C     0.16387   0.67012   0.40398   0.00000  Uiso   1.00
C338   C     0.17880   0.69162   0.30412   0.00000  Uiso   1.00
C339   C     0.20032   0.70658   0.40400   0.00000  Uiso   1.00
C340   C     0.11342   0.65556   0.45532   0.00000  Uiso   1.00
C341   C     0.08595   0.66481   0.39862   0.00000  Uiso   1.00
C342   C     0.06499   0.66751   0.54170   0.00000  Uiso   1.00
C343   C     0.14930   0.61970   0.35233   0.00000  Uiso   1.00
C344   C     0.15199   0.59881   0.20905   0.00000  Uiso   1.00
C345   C     0.16124   0.57132   0.26543   0.00000  Uiso   1.00
H346   H     0.15610   0.63452   0.82782   0.00000  Uiso   1.00
H347   H     0.19657   0.67380   0.84600   0.00000  Uiso   1.00
H348   H     0.10372   0.64699   0.94047   0.00000  Uiso   1.00
H349   H     0.16976   0.58100   0.75093   0.00000  Uiso   1.00
H350   H     0.23864   0.72014   0.78116   0.00000  Uiso   1.00
H351   H     0.04287   0.66361   0.98036   0.00000  Uiso   1.00
H352   H     0.18212   0.52445   0.58067   0.00000  Uiso   1.00
H353   H     0.13462   0.65606   0.17271   0.00000  Uiso   1.00
H354   H     0.17391   0.69652   0.15493   0.00000  Uiso   1.00
H355   H     0.08106   0.66972   0.24942   0.00000  Uiso   1.00
H356   H     0.14710   0.60372   0.05988   0.00000  Uiso   1.00
H357   H     0.22024   0.73859   0.22027   0.00000  Uiso   1.00
H358   H     0.02447   0.68206   0.41947   0.00000  Uiso   1.00
H359   H     0.16372   0.54290   0.01978   0.00000  Uiso   1.00
O360   O     0.25567   0.75560   0.50086   0.00000  Uiso   1.00
O361   O     0.99882   0.68143   0.76220   0.00000  Uiso   1.00
O362   O     0.18152   0.49886   0.23782   0.00000  Uiso   1.00
N363   N     0.22892   0.71893   0.65158   0.00000  Uiso   1.00
N364   N     0.04589   0.66608   0.83783   0.00000  Uiso   1.00
N365   N     0.17607   0.53598   0.46416   0.00000  Uiso   1.00
N366   N     0.21902   0.72886   0.34977   0.00000  Uiso   1.00
N367   N     0.03599   0.67600   0.53602   0.00000  Uiso   1.00
N368   N     0.16617   0.54590   0.16235   0.00000  Uiso   1.00
