data_job_06444
_audit_creation_date              2018-12-19
_audit_creation_method            'Materials Studio'
_symmetry_space_group_name_H-M    'P1'
_symmetry_Int_Tables_number       1
_symmetry_cell_setting            triclinic
loop_
_symmetry_equiv_pos_as_xyz
  x,y,z
_cell_length_a                    13.3977
_cell_length_b                    23.5399
_cell_length_c                    24.0455
_cell_angle_alpha                 63.6910
_cell_angle_beta                  79.1249
_cell_angle_gamma                 98.0816
loop_
_atom_site_label
_atom_site_type_symbol
_atom_site_fract_x
_atom_site_fract_y
_atom_site_fract_z
_atom_site_U_iso_or_equiv
_atom_site_adp_type
_atom_site_occupancy
C1     C     0.40754   0.41055   0.23560   0.00000  Uiso   1.00
C2     C     0.30587   0.36681   0.24200   0.00000  Uiso   1.00
C3     C     0.28507   0.29961   0.26526   0.00000  Uiso   1.00
C4     C     0.18735   0.26850   0.26728   0.00000  Uiso   1.00
C5     C     0.04077   0.19529   0.28031   0.00000  Uiso   1.00
C6     C     0.44732   0.46357   0.16483   0.00000  Uiso   1.00
C7     C     0.54547   0.47773   0.12322   0.00000  Uiso   1.00
C8     C     0.56682   0.52807   0.06029   0.00000  Uiso   1.00
C9     C     0.63988   0.60511   0.95353   0.00000  Uiso   1.00
C10    C     0.37586   0.44529   0.27407   0.00000  Uiso   1.00
C11    C     0.41394   0.44409   0.32430   0.00000  Uiso   1.00
C12    C     0.37515   0.47906   0.35334   0.00000  Uiso   1.00
C13    C     0.33726   0.52771   0.41619   0.00000  Uiso   1.00
C14    C     0.27097   0.47480   0.19783   0.00000  Uiso   1.00
C15    C     0.23169   0.40171   0.22148   0.00000  Uiso   1.00
C16    C     0.13396   0.37069   0.22348   0.00000  Uiso   1.00
C17    C     0.11303   0.30346   0.24674   0.00000  Uiso   1.00
C18    C     0.37314   0.49847   0.14432   0.00000  Uiso   1.00
C19    C     0.39436   0.54881   0.08144   0.00000  Uiso   1.00
C20    C     0.49251   0.56303   0.03974   0.00000  Uiso   1.00
C21    C     0.30167   0.48019   0.25356   0.00000  Uiso   1.00
C22    C     0.26283   0.51517   0.28252   0.00000  Uiso   1.00
C23    C     0.30083   0.51402   0.33279   0.00000  Uiso   1.00
H24    H     0.46530   0.38339   0.25156   0.00000  Uiso   1.00
H25    H     0.34251   0.27263   0.28112   0.00000  Uiso   1.00
H26    H     0.60286   0.45072   0.13911   0.00000  Uiso   1.00
H27    H     0.47134   0.41708   0.34016   0.00000  Uiso   1.00
H28    H     0.17366   0.16522   0.30482   0.00000  Uiso   1.00
H29    H     0.72265   0.54075   0.00538   0.00000  Uiso   1.00
H30    H     0.44533   0.46983   0.42935   0.00000  Uiso   1.00
H31    H     0.21321   0.50197   0.18186   0.00000  Uiso   1.00
H32    H     0.07657   0.39771   0.20760   0.00000  Uiso   1.00
H33    H     0.33693   0.57580   0.06558   0.00000  Uiso   1.00
H34    H     0.20542   0.54217   0.26664   0.00000  Uiso   1.00
H35    H     0.95783   0.26675   0.24515   0.00000  Uiso   1.00
H36    H     0.50682   0.64228   0.94571   0.00000  Uiso   1.00
H37    H     0.22949   0.57135   0.36967   0.00000  Uiso   1.00
O38    O     0.98042   0.14527   0.29315   0.00000  Uiso   1.00
O39    O     0.70068   0.63795   0.90031   0.00000  Uiso   1.00
O40    O     0.33684   0.54490   0.45654   0.00000  Uiso   1.00
N41    N     0.14161   0.20342   0.28726   0.00000  Uiso   1.00
N42    N     0.65487   0.55451   0.00730   0.00000  Uiso   1.00
N43    N     0.39562   0.48822   0.40366   0.00000  Uiso   1.00
N44    N     0.02547   0.25805   0.25515   0.00000  Uiso   1.00
N45    N     0.53873   0.60914   0.97519   0.00000  Uiso   1.00
N46    N     0.27948   0.54285   0.37155   0.00000  Uiso   1.00
C47    C     0.99201   0.34830   0.41489   0.00000  Uiso   1.00
C48    C     0.93454   0.38847   0.36850   0.00000  Uiso   1.00
C49    C     0.97810   0.43051   0.30267   0.00000  Uiso   1.00
C50    C     0.91250   0.46280   0.26865   0.00000  Uiso   1.00
C51    C     0.83930   0.52665   0.19194   0.00000  Uiso   1.00
C52    C     0.97951   0.36735   0.46825   0.00000  Uiso   1.00
C53    C     0.06090   0.39160   0.48629   0.00000  Uiso   1.00
C54    C     0.03315   0.40610   0.53624   0.00000  Uiso   1.00
C55    C     0.02977   0.43710   0.61443   0.00000  Uiso   1.00
C56    C     0.92905   0.27715   0.44674   0.00000  Uiso   1.00
C57    C     0.96801   0.22556   0.44671   0.00000  Uiso   1.00
C58    C     0.89777   0.16410   0.47856   0.00000  Uiso   1.00
C59    C     0.81605   0.05506   0.52334   0.00000  Uiso   1.00
C60    C     0.79803   0.33089   0.47153   0.00000  Uiso   1.00
C61    C     0.82917   0.37902   0.39927   0.00000  Uiso   1.00
C62    C     0.76348   0.41125   0.36533   0.00000  Uiso   1.00
C63    C     0.80694   0.45333   0.29946   0.00000  Uiso   1.00
C64    C     0.87416   0.35790   0.49901   0.00000  Uiso   1.00
C65    C     0.84628   0.37235   0.54895   0.00000  Uiso   1.00
C66    C     0.92759   0.39663   0.56706   0.00000  Uiso   1.00
C67    C     0.82369   0.26769   0.47750   0.00000  Uiso   1.00
C68    C     0.75338   0.20631   0.50936   0.00000  Uiso   1.00
C69    C     0.79222   0.15463   0.50938   0.00000  Uiso   1.00
H70    H     0.07405   0.35565   0.39094   0.00000  Uiso   1.00
H71    H     0.05965   0.43781   0.27889   0.00000  Uiso   1.00
H72    H     0.14243   0.39891   0.46248   0.00000  Uiso   1.00
H73    H     0.04955   0.23289   0.42290   0.00000  Uiso   1.00
H74    H     0.99723   0.52475   0.16822   0.00000  Uiso   1.00
H75    H     0.17178   0.44270   0.55535   0.00000  Uiso   1.00
H76    H     0.97593   0.09261   0.47188   0.00000  Uiso   1.00
H77    H     0.71599   0.32353   0.49548   0.00000  Uiso   1.00
H78    H     0.68195   0.40393   0.38915   0.00000  Uiso   1.00
H79    H     0.76473   0.36503   0.57275   0.00000  Uiso   1.00
H80    H     0.67185   0.19901   0.53316   0.00000  Uiso   1.00
H81    H     0.69068   0.49725   0.25772   0.00000  Uiso   1.00
H82    H     0.86523   0.41520   0.64485   0.00000  Uiso   1.00
H83    H     0.66937   0.06511   0.56138   0.00000  Uiso   1.00
O84    O     0.82803   0.56448   0.14114   0.00000  Uiso   1.00
O85    O     0.05703   0.45682   0.64905   0.00000  Uiso   1.00
O86    O     0.80007   0.99752   0.53954   0.00000  Uiso   1.00
N87    N     0.92975   0.50723   0.20387   0.00000  Uiso   1.00
N88    N     0.09294   0.43053   0.56581   0.00000  Uiso   1.00
N89    N     0.90984   0.10323   0.48779   0.00000  Uiso   1.00
N90    N     0.76480   0.49244   0.25203   0.00000  Uiso   1.00
N91    N     0.92799   0.41574   0.61397   0.00000  Uiso   1.00
N92    N     0.74489   0.08843   0.53595   0.00000  Uiso   1.00
C93    C     0.64086   0.23379   0.35270   0.00000  Uiso   1.00
C94    C     0.54633   0.24479   0.38947   0.00000  Uiso   1.00
C95    C     0.54797   0.26925   0.43234   0.00000  Uiso   1.00
C96    C     0.45318   0.27565   0.46107   0.00000  Uiso   1.00
C97    C     0.32055   0.29537   0.52027   0.00000  Uiso   1.00
C98    C     0.61159   0.16177   0.37008   0.00000  Uiso   1.00
C99    C     0.66811   0.11642   0.39665   0.00000  Uiso   1.00
C100   C     0.62826   0.05294   0.40904   0.00000  Uiso   1.00
C101   C     0.59698   0.94378   0.43810   0.00000  Uiso   1.00
C102   C     0.64729   0.27278   0.28125   0.00000  Uiso   1.00
C103   C     0.73384   0.32077   0.23313   0.00000  Uiso   1.00
C104   C     0.72405   0.35074   0.17074   0.00000  Uiso   1.00
C105   C     0.74821   0.41394   0.06188   0.00000  Uiso   1.00
C106   C     0.46961   0.20168   0.32745   0.00000  Uiso   1.00
C107   C     0.45332   0.22735   0.37576   0.00000  Uiso   1.00
C108   C     0.35851   0.23373   0.40441   0.00000  Uiso   1.00
C109   C     0.36000   0.25819   0.44733   0.00000  Uiso   1.00
C110   C     0.51858   0.14433   0.35637   0.00000  Uiso   1.00
C111   C     0.47865   0.08090   0.36872   0.00000  Uiso   1.00
C112   C     0.53508   0.03547   0.39530   0.00000  Uiso   1.00
C113   C     0.55428   0.25535   0.26754   0.00000  Uiso   1.00
C114   C     0.54437   0.28525   0.20521   0.00000  Uiso   1.00
C115   C     0.63088   0.33327   0.15700   0.00000  Uiso   1.00
H116   H     0.71327   0.24736   0.36337   0.00000  Uiso   1.00
H117   H     0.61996   0.28273   0.44295   0.00000  Uiso   1.00
H118   H     0.74009   0.12993   0.40725   0.00000  Uiso   1.00
H119   H     0.80580   0.33425   0.24376   0.00000  Uiso   1.00
H120   H     0.47549   0.31423   0.52514   0.00000  Uiso   1.00
H121   H     0.72879   0.99206   0.44985   0.00000  Uiso   1.00
H122   H     0.86737   0.42290   0.10510   0.00000  Uiso   1.00
H123   H     0.39720   0.18810   0.31678   0.00000  Uiso   1.00
H124   H     0.28654   0.22023   0.39380   0.00000  Uiso   1.00
H125   H     0.40667   0.06743   0.35810   0.00000  Uiso   1.00
H126   H     0.47238   0.27174   0.19461   0.00000  Uiso   1.00
H127   H     0.20487   0.26350   0.48525   0.00000  Uiso   1.00
H128   H     0.45818   0.94133   0.40995   0.00000  Uiso   1.00
H129   H     0.59675   0.37216   0.06521   0.00000  Uiso   1.00
O130   O     0.27308   0.31105   0.55672   0.00000  Uiso   1.00
O131   O     0.60542   0.88838   0.45792   0.00000  Uiso   1.00
O132   O     0.78722   0.45362   0.00563   0.00000  Uiso   1.00
N133   N     0.42699   0.29790   0.50517   0.00000  Uiso   1.00
N134   N     0.66381   0.99668   0.43479   0.00000  Uiso   1.00
N135   N     0.79337   0.39947   0.11248   0.00000  Uiso   1.00
N136   N     0.28137   0.27060   0.48371   0.00000  Uiso   1.00
N137   N     0.51819   0.96939   0.41332   0.00000  Uiso   1.00
N138   N     0.64775   0.37217   0.09101   0.00000  Uiso   1.00
C139   C     0.90722   0.76295   0.58719   0.00000  Uiso   1.00
C140   C     0.80514   0.75821   0.63165   0.00000  Uiso   1.00
C141   C     0.78390   0.73497   0.69782   0.00000  Uiso   1.00
C142   C     0.68586   0.73459   0.72985   0.00000  Uiso   1.00
C143   C     0.53864   0.72390   0.80391   0.00000  Uiso   1.00
C144   C     0.94681   0.83446   0.53446   0.00000  Uiso   1.00
C145   C     0.04468   0.87532   0.51892   0.00000  Uiso   1.00
C146   C     0.06590   0.93913   0.46914   0.00000  Uiso   1.00
C147   C     0.13864   0.04680   0.39228   0.00000  Uiso   1.00
C148   C     0.87629   0.72406   0.55379   0.00000  Uiso   1.00
C149   C     0.91490   0.67212   0.55447   0.00000  Uiso   1.00
C150   C     0.87676   0.64299   0.52094   0.00000  Uiso   1.00
C151   C     0.84003   0.57926   0.47409   0.00000  Uiso   1.00
C152   C     0.77089   0.80361   0.52640   0.00000  Uiso   1.00
C153   C     0.73109   0.78029   0.59863   0.00000  Uiso   1.00
C154   C     0.63306   0.77995   0.63057   0.00000  Uiso   1.00
C155   C     0.61167   0.75671   0.69678   0.00000  Uiso   1.00
C156   C     0.87276   0.85654   0.50145   0.00000  Uiso   1.00
C157   C     0.89384   0.92031   0.45167   0.00000  Uiso   1.00
C158   C     0.99171   0.96126   0.43606   0.00000  Uiso   1.00
C159   C     0.80224   0.74615   0.52077   0.00000  Uiso   1.00
C160   C     0.76405   0.71710   0.48723   0.00000  Uiso   1.00
C161   C     0.80258   0.66512   0.48787   0.00000  Uiso   1.00
H162   H     0.96488   0.74576   0.61289   0.00000  Uiso   1.00
H163   H     0.84123   0.71789   0.72335   0.00000  Uiso   1.00
H164   H     0.10197   0.85821   0.54448   0.00000  Uiso   1.00
H165   H     0.97220   0.65504   0.58003   0.00000  Uiso   1.00
H166   H     0.67150   0.69674   0.83126   0.00000  Uiso   1.00
H167   H     0.22130   0.99263   0.45408   0.00000  Uiso   1.00
H168   H     0.94766   0.56420   0.52905   0.00000  Uiso   1.00
H169   H     0.71324   0.82081   0.50069   0.00000  Uiso   1.00
H170   H     0.57577   0.79705   0.60501   0.00000  Uiso   1.00
H171   H     0.83652   0.93738   0.42613   0.00000  Uiso   1.00
H172   H     0.70675   0.73421   0.46168   0.00000  Uiso   1.00
H173   H     0.45604   0.76100   0.73521   0.00000  Uiso   1.00
H174   H     0.00585   0.05688   0.35802   0.00000  Uiso   1.00
H175   H     0.73221   0.62845   0.43299   0.00000  Uiso   1.00
O176   O     0.47790   0.71190   0.85388   0.00000  Uiso   1.00
O177   O     0.19923   0.10009   0.35902   0.00000  Uiso   1.00
O178   O     0.84021   0.53800   0.45738   0.00000  Uiso   1.00
N179   N     0.63965   0.71511   0.79434   0.00000  Uiso   1.00
N180   N     0.15368   0.99175   0.44170   0.00000  Uiso   1.00
N181   N     0.89787   0.59122   0.51178   0.00000  Uiso   1.00
N182   N     0.52371   0.74969   0.74266   0.00000  Uiso   1.00
N183   N     0.03774   0.02632   0.39002   0.00000  Uiso   1.00
N184   N     0.78193   0.62579   0.46009   0.00000  Uiso   1.00
C185   C     0.49150   0.58464   0.65025   0.00000  Uiso   1.00
C186   C     0.43395   0.63288   0.61173   0.00000  Uiso   1.00
C187   C     0.47726   0.69931   0.56972   0.00000  Uiso   1.00
C188   C     0.41162   0.73506   0.53908   0.00000  Uiso   1.00
C189   C     0.33826   0.81447   0.47756   0.00000  Uiso   1.00
C190   C     0.47976   0.53027   0.63194   0.00000  Uiso   1.00
C191   C     0.56160   0.51043   0.60693   0.00000  Uiso   1.00
C192   C     0.53452   0.45981   0.59332   0.00000  Uiso   1.00
C193   C     0.53229   0.37989   0.56323   0.00000  Uiso   1.00
C194   C     0.42813   0.55334   0.72099   0.00000  Uiso   1.00
C195   C     0.46656   0.55286   0.77086   0.00000  Uiso   1.00
C196   C     0.39602   0.52164   0.83223   0.00000  Uiso   1.00
C197   C     0.31362   0.47753   0.94040   0.00000  Uiso   1.00
C198   C     0.29790   0.53002   0.67055   0.00000  Uiso   1.00
C199   C     0.32879   0.60321   0.62276   0.00000  Uiso   1.00
C200   C     0.26306   0.63887   0.59218   0.00000  Uiso   1.00
C201   C     0.30627   0.70534   0.55013   0.00000  Uiso   1.00
C202   C     0.37461   0.50060   0.64297   0.00000  Uiso   1.00
C203   C     0.34740   0.45000   0.62939   0.00000  Uiso   1.00
C204   C     0.42917   0.43009   0.60436   0.00000  Uiso   1.00
C205   C     0.32297   0.52366   0.73202   0.00000  Uiso   1.00
C206   C     0.25236   0.49243   0.79332   0.00000  Uiso   1.00
C207   C     0.29067   0.49192   0.84327   0.00000  Uiso   1.00
H208   H     0.57337   0.60774   0.64167   0.00000  Uiso   1.00
H209   H     0.55865   0.72225   0.56119   0.00000  Uiso   1.00
H210   H     0.64297   0.53340   0.59841   0.00000  Uiso   1.00
H211   H     0.54794   0.57583   0.76231   0.00000  Uiso   1.00
H212   H     0.49595   0.83612   0.47682   0.00000  Uiso   1.00
H213   H     0.67375   0.43790   0.55531   0.00000  Uiso   1.00
H214   H     0.47337   0.52737   0.90094   0.00000  Uiso   1.00
H215   H     0.21603   0.50691   0.67914   0.00000  Uiso   1.00
H216   H     0.18169   0.61590   0.60072   0.00000  Uiso   1.00
H217   H     0.26602   0.42705   0.63793   0.00000  Uiso   1.00
H218   H     0.17099   0.46948   0.80184   0.00000  Uiso   1.00
H219   H     0.19000   0.74980   0.50889   0.00000  Uiso   1.00
H220   H     0.36780   0.35158   0.58739   0.00000  Uiso   1.00
H221   H     0.16742   0.44105   0.93301   0.00000  Uiso   1.00
O222   O     0.32685   0.86647   0.44058   0.00000  Uiso   1.00
O223   O     0.56011   0.34401   0.54357   0.00000  Uiso   1.00
O224   O     0.29722   0.46140   0.99702   0.00000  Uiso   1.00
N225   N     0.42866   0.80085   0.49514   0.00000  Uiso   1.00
N226   N     0.59489   0.42855   0.56852   0.00000  Uiso   1.00
N227   N     0.40756   0.51218   0.89165   0.00000  Uiso   1.00
N228   N     0.26402   0.75440   0.51240   0.00000  Uiso   1.00
N229   N     0.43026   0.38210   0.58578   0.00000  Uiso   1.00
N230   N     0.24293   0.46573   0.90891   0.00000  Uiso   1.00
C231   C     0.14169   0.64504   0.76575   0.00000  Uiso   1.00
C232   C     0.04765   0.60900   0.75659   0.00000  Uiso   1.00
C233   C     0.04998   0.56509   0.73274   0.00000  Uiso   1.00
C234   C     0.95555   0.53729   0.72806   0.00000  Uiso   1.00
C235   C     0.82372   0.47893   0.71105   0.00000  Uiso   1.00
C236   C     0.11186   0.62796   0.83676   0.00000  Uiso   1.00
C237   C     0.16819   0.60000   0.88030   0.00000  Uiso   1.00
C238   C     0.12781   0.58817   0.94311   0.00000  Uiso   1.00
C239   C     0.09571   0.55929   0.05055   0.00000  Uiso   1.00
C240   C     0.14778   0.71782   0.72729   0.00000  Uiso   1.00
C241   C     0.23432   0.76544   0.67880   0.00000  Uiso   1.00
C242   C     0.22419   0.82927   0.64946   0.00000  Uiso   1.00
C243   C     0.24786   0.93992   0.58693   0.00000  Uiso   1.00
C244   C     0.96982   0.67374   0.79986   0.00000  Uiso   1.00
C245   C     0.95430   0.62459   0.77512   0.00000  Uiso   1.00
C246   C     0.85983   0.59685   0.77048   0.00000  Uiso   1.00
C247   C     0.86203   0.55291   0.74662   0.00000  Uiso   1.00
C248   C     0.01851   0.64355   0.85529   0.00000  Uiso   1.00
C249   C     0.97804   0.63176   0.91805   0.00000  Uiso   1.00
C250   C     0.03429   0.60379   0.96168   0.00000  Uiso   1.00
C251   C     0.05442   0.73342   0.74581   0.00000  Uiso   1.00
C252   C     0.04416   0.79719   0.71655   0.00000  Uiso   1.00
C253   C     0.13067   0.84489   0.66802   0.00000  Uiso   1.00
H254   H     0.21437   0.63290   0.75133   0.00000  Uiso   1.00
H255   H     0.12224   0.55303   0.71841   0.00000  Uiso   1.00
H256   H     0.24043   0.58795   0.86594   0.00000  Uiso   1.00
H257   H     0.30655   0.75335   0.66448   0.00000  Uiso   1.00
H258   H     0.97893   0.47135   0.69010   0.00000  Uiso   1.00
H259   H     0.22817   0.54498   0.00119   0.00000  Uiso   1.00
H260   H     0.36758   0.89377   0.57636   0.00000  Uiso   1.00
H261   H     0.89714   0.68588   0.81429   0.00000  Uiso   1.00
H262   H     0.78761   0.60892   0.78483   0.00000  Uiso   1.00
H263   H     0.90580   0.64383   0.93237   0.00000  Uiso   1.00
H264   H     0.97191   0.80924   0.73090   0.00000  Uiso   1.00
H265   H     0.70733   0.51670   0.74401   0.00000  Uiso   1.00
H266   H     0.95657   0.59034   0.05511   0.00000  Uiso   1.00
H267   H     0.09598   0.93913   0.63027   0.00000  Uiso   1.00
O268   O     0.77679   0.44243   0.69656   0.00000  Uiso   1.00
O269   O     0.10379   0.53905   0.10469   0.00000  Uiso   1.00
O270   O     0.28670   0.99665   0.54732   0.00000  Uiso   1.00
N271   N     0.93005   0.49259   0.70682   0.00000  Uiso   1.00
N272   N     0.16306   0.56143   0.99768   0.00000  Uiso   1.00
N273   N     0.29341   0.88752   0.60050   0.00000  Uiso   1.00
N274   N     0.78390   0.51700   0.73583   0.00000  Uiso   1.00
N275   N     0.01691   0.58584   0.02668   0.00000  Uiso   1.00
N276   N     0.14726   0.91193   0.62951   0.00000  Uiso   1.00
