data_job_04186
_audit_creation_date              2018-12-19
_audit_creation_method            'Materials Studio'
_symmetry_space_group_name_H-M    'P1'
_symmetry_Int_Tables_number       1
_symmetry_cell_setting            triclinic
loop_
_symmetry_equiv_pos_as_xyz
  x,y,z
_cell_length_a                    16.5749
_cell_length_b                    16.5749
_cell_length_c                    18.7389
_cell_angle_alpha                 90.0000
_cell_angle_beta                  90.0000
_cell_angle_gamma                 120.0000
loop_
_atom_site_label
_atom_site_type_symbol
_atom_site_fract_x
_atom_site_fract_y
_atom_site_fract_z
_atom_site_U_iso_or_equiv
_atom_site_adp_type
_atom_site_occupancy
C1     C     0.65196   0.19238   0.78371   0.00000  Uiso   1.00
C2     C     0.67749   0.11959   0.80639   0.00000  Uiso   1.00
C3     C     0.65742   0.07469   0.87194   0.00000  Uiso   1.00
C4     C     0.68672   0.01037   0.88232   0.00000  Uiso   1.00
C5     C     0.71915   0.90023   0.92564   0.00000  Uiso   1.00
C6     C     0.74316   0.27844   0.76224   0.00000  Uiso   1.00
C7     C     0.77830   0.36709   0.79066   0.00000  Uiso   1.00
C8     C     0.86286   0.43649   0.76386   0.00000  Uiso   1.00
C9     C     0.99721   0.57297   0.73860   0.00000  Uiso   1.00
C10    C     0.59535   0.15555   0.71527   0.00000  Uiso   1.00
C11    C     0.50622   0.14091   0.70420   0.00000  Uiso   1.00
C12    C     0.46635   0.10687   0.63785   0.00000  Uiso   1.00
C13    C     0.37120   0.05256   0.53967   0.00000  Uiso   1.00
C14    C     0.73967   0.15801   0.68558   0.00000  Uiso   1.00
C15    C     0.72513   0.10093   0.75308   0.00000  Uiso   1.00
C16    C     0.75446   0.03666   0.76336   0.00000  Uiso   1.00
C17    C     0.73444   0.99166   0.82892   0.00000  Uiso   1.00
C18    C     0.79080   0.25977   0.70893   0.00000  Uiso   1.00
C19    C     0.87533   0.32906   0.68208   0.00000  Uiso   1.00
C20    C     0.91059   0.41779   0.71046   0.00000  Uiso   1.00
C21    C     0.64299   0.13688   0.66197   0.00000  Uiso   1.00
C22    C     0.60325   0.10287   0.59562   0.00000  Uiso   1.00
C23    C     0.51407   0.08817   0.58445   0.00000  Uiso   1.00
H24    H     0.61488   0.20692   0.82521   0.00000  Uiso   1.00
H25    H     0.62056   0.08916   0.91318   0.00000  Uiso   1.00
H26    H     0.74141   0.38151   0.83190   0.00000  Uiso   1.00
H27    H     0.46937   0.15536   0.74546   0.00000  Uiso   1.00
H28    H     0.64791   0.95039   0.98721   0.00000  Uiso   1.00
H29    H     0.90270   0.56685   0.81582   0.00000  Uiso   1.00
H30    H     0.32906   0.08997   0.63353   0.00000  Uiso   1.00
H31    H     0.77676   0.14347   0.64408   0.00000  Uiso   1.00
H32    H     0.79132   0.02223   0.72211   0.00000  Uiso   1.00
H33    H     0.91217   0.31459   0.64083   0.00000  Uiso   1.00
H34    H     0.64013   0.08843   0.55439   0.00000  Uiso   1.00
H35    H     0.78650   0.89607   0.83213   0.00000  Uiso   1.00
H36    H     0.04130   0.51253   0.66074   0.00000  Uiso   1.00
H37    H     0.46765   0.03564   0.47845   0.00000  Uiso   1.00
O38    O     0.72389   0.84464   0.96427   0.00000  Uiso   1.00
O39    O     0.05816   0.65341   0.73941   0.00000  Uiso   1.00
O40    O     0.30556   0.02774   0.50025   0.00000  Uiso   1.00
N41    N     0.67851   0.95423   0.93999   0.00000  Uiso   1.00
N42    N     0.91673   0.53058   0.77976   0.00000  Uiso   1.00
N43    N     0.38043   0.08476   0.60933   0.00000  Uiso   1.00
N44    N     0.75309   0.92500   0.85655   0.00000  Uiso   1.00
N45    N     0.99131   0.50135   0.69632   0.00000  Uiso   1.00
N46    N     0.45501   0.05553   0.52589   0.00000  Uiso   1.00
C47    C     0.80762   0.45959   0.45038   0.00000  Uiso   1.00
C48    C     0.88041   0.55790   0.47305   0.00000  Uiso   1.00
C49    C     0.92531   0.58274   0.53860   0.00000  Uiso   1.00
C50    C     0.98963   0.67635   0.54898   0.00000  Uiso   1.00
C51    C     0.09977   0.81892   0.59231   0.00000  Uiso   1.00
C52    C     0.72156   0.46472   0.42890   0.00000  Uiso   1.00
C53    C     0.63291   0.41121   0.45732   0.00000  Uiso   1.00
C54    C     0.56351   0.42638   0.43053   0.00000  Uiso   1.00
C55    C     0.42703   0.42424   0.40527   0.00000  Uiso   1.00
C56    C     0.84445   0.43980   0.38194   0.00000  Uiso   1.00
C57    C     0.85909   0.36531   0.37086   0.00000  Uiso   1.00
C58    C     0.89313   0.35948   0.30452   0.00000  Uiso   1.00
C59    C     0.94744   0.31864   0.20634   0.00000  Uiso   1.00
C60    C     0.84199   0.58166   0.35225   0.00000  Uiso   1.00
C61    C     0.89907   0.62420   0.41975   0.00000  Uiso   1.00
C62    C     0.96334   0.71780   0.43003   0.00000  Uiso   1.00
C63    C     0.00834   0.74278   0.49558   0.00000  Uiso   1.00
C64    C     0.74023   0.53103   0.37560   0.00000  Uiso   1.00
C65    C     0.67094   0.54627   0.34875   0.00000  Uiso   1.00
C66    C     0.58221   0.49280   0.37713   0.00000  Uiso   1.00
C67    C     0.86312   0.50610   0.32863   0.00000  Uiso   1.00
C68    C     0.89713   0.50038   0.26229   0.00000  Uiso   1.00
C69    C     0.91183   0.42590   0.25112   0.00000  Uiso   1.00
H70    H     0.79308   0.40796   0.49188   0.00000  Uiso   1.00
H71    H     0.91084   0.53141   0.57984   0.00000  Uiso   1.00
H72    H     0.61849   0.35990   0.49857   0.00000  Uiso   1.00
H73    H     0.84464   0.31401   0.41212   0.00000  Uiso   1.00
H74    H     0.04961   0.69751   0.65387   0.00000  Uiso   1.00
H75    H     0.43315   0.33585   0.48248   0.00000  Uiso   1.00
H76    H     0.91003   0.23909   0.30019   0.00000  Uiso   1.00
H77    H     0.85653   0.63329   0.31075   0.00000  Uiso   1.00
H78    H     0.97777   0.76910   0.38877   0.00000  Uiso   1.00
H79    H     0.68541   0.59759   0.30750   0.00000  Uiso   1.00
H80    H     0.91157   0.55170   0.22105   0.00000  Uiso   1.00
H81    H     0.10393   0.89043   0.49879   0.00000  Uiso   1.00
H82    H     0.48747   0.52877   0.32740   0.00000  Uiso   1.00
H83    H     0.96436   0.43201   0.14511   0.00000  Uiso   1.00
O84    O     0.15536   0.87925   0.63094   0.00000  Uiso   1.00
O85    O     0.34659   0.40475   0.40607   0.00000  Uiso   1.00
O86    O     0.97226   0.27781   0.16692   0.00000  Uiso   1.00
N87    N     0.04577   0.72427   0.60666   0.00000  Uiso   1.00
N88    N     0.46942   0.38615   0.44643   0.00000  Uiso   1.00
N89    N     0.91524   0.29568   0.27600   0.00000  Uiso   1.00
N90    N     0.07500   0.82808   0.52321   0.00000  Uiso   1.00
N91    N     0.49865   0.48996   0.36298   0.00000  Uiso   1.00
N92    N     0.94447   0.39949   0.19255   0.00000  Uiso   1.00
C93    C     0.54041   0.34804   0.11705   0.00000  Uiso   1.00
C94    C     0.44210   0.32251   0.13972   0.00000  Uiso   1.00
C95    C     0.41726   0.34258   0.20527   0.00000  Uiso   1.00
C96    C     0.32365   0.31328   0.21565   0.00000  Uiso   1.00
C97    C     0.18108   0.28085   0.25898   0.00000  Uiso   1.00
C98    C     0.53528   0.25684   0.09557   0.00000  Uiso   1.00
C99    C     0.58879   0.22170   0.12399   0.00000  Uiso   1.00
C100   C     0.57362   0.13714   0.09719   0.00000  Uiso   1.00
C101   C     0.57576   0.00279   0.07194   0.00000  Uiso   1.00
C102   C     0.56020   0.40465   0.04860   0.00000  Uiso   1.00
C103   C     0.63469   0.49378   0.03753   0.00000  Uiso   1.00
C104   C     0.64052   0.53365   0.97118   0.00000  Uiso   1.00
C105   C     0.68136   0.62880   0.87301   0.00000  Uiso   1.00
C106   C     0.41834   0.26033   0.01891   0.00000  Uiso   1.00
C107   C     0.37580   0.27487   0.08642   0.00000  Uiso   1.00
C108   C     0.28220   0.24554   0.09670   0.00000  Uiso   1.00
C109   C     0.25722   0.26556   0.16225   0.00000  Uiso   1.00
C110   C     0.46897   0.20920   0.04227   0.00000  Uiso   1.00
C111   C     0.45373   0.12467   0.01542   0.00000  Uiso   1.00
C112   C     0.50720   0.08941   0.04379   0.00000  Uiso   1.00
C113   C     0.49390   0.35701   0.99530   0.00000  Uiso   1.00
C114   C     0.49962   0.39675   0.92896   0.00000  Uiso   1.00
C115   C     0.57410   0.48593   0.91778   0.00000  Uiso   1.00
H116   H     0.59204   0.38512   0.15854   0.00000  Uiso   1.00
H117   H     0.46859   0.37944   0.24651   0.00000  Uiso   1.00
H118   H     0.64010   0.25859   0.16523   0.00000  Uiso   1.00
H119   H     0.68599   0.53063   0.07879   0.00000  Uiso   1.00
H120   H     0.30249   0.35209   0.32054   0.00000  Uiso   1.00
H121   H     0.66415   0.09730   0.14915   0.00000  Uiso   1.00
H122   H     0.76091   0.67094   0.96686   0.00000  Uiso   1.00
H123   H     0.36671   0.22324   0.97741   0.00000  Uiso   1.00
H124   H     0.23090   0.20868   0.05544   0.00000  Uiso   1.00
H125   H     0.40241   0.08783   0.97417   0.00000  Uiso   1.00
H126   H     0.44830   0.35987   0.88772   0.00000  Uiso   1.00
H127   H     0.10957   0.21350   0.16546   0.00000  Uiso   1.00
H128   H     0.47123   0.95870   0.99407   0.00000  Uiso   1.00
H129   H     0.56799   0.53235   0.81178   0.00000  Uiso   1.00
O130   O     0.12075   0.27611   0.29761   0.00000  Uiso   1.00
O131   O     0.59525   0.94184   0.07274   0.00000  Uiso   1.00
O132   O     0.72219   0.69444   0.83358   0.00000  Uiso   1.00
N133   N     0.27573   0.32149   0.27333   0.00000  Uiso   1.00
N134   N     0.61385   0.08327   0.11310   0.00000  Uiso   1.00
N135   N     0.70432   0.61957   0.94267   0.00000  Uiso   1.00
N136   N     0.17192   0.24691   0.18988   0.00000  Uiso   1.00
N137   N     0.51004   0.00869   0.02965   0.00000  Uiso   1.00
N138   N     0.60051   0.54499   0.85922   0.00000  Uiso   1.00
C139   C     0.19238   0.65196   0.21629   0.00000  Uiso   1.00
C140   C     0.11959   0.67749   0.19361   0.00000  Uiso   1.00
C141   C     0.07469   0.65742   0.12806   0.00000  Uiso   1.00
C142   C     0.01037   0.68672   0.11768   0.00000  Uiso   1.00
C143   C     0.90023   0.71915   0.07436   0.00000  Uiso   1.00
C144   C     0.27844   0.74316   0.23776   0.00000  Uiso   1.00
C145   C     0.36709   0.77830   0.20934   0.00000  Uiso   1.00
C146   C     0.43649   0.86286   0.23614   0.00000  Uiso   1.00
C147   C     0.57297   0.99721   0.26140   0.00000  Uiso   1.00
C148   C     0.15555   0.59535   0.28473   0.00000  Uiso   1.00
C149   C     0.14091   0.50622   0.29580   0.00000  Uiso   1.00
C150   C     0.10687   0.46635   0.36215   0.00000  Uiso   1.00
C151   C     0.05256   0.37120   0.46033   0.00000  Uiso   1.00
C152   C     0.15801   0.73967   0.31442   0.00000  Uiso   1.00
C153   C     0.10093   0.72513   0.24692   0.00000  Uiso   1.00
C154   C     0.03666   0.75446   0.23664   0.00000  Uiso   1.00
C155   C     0.99166   0.73444   0.17108   0.00000  Uiso   1.00
C156   C     0.25977   0.79080   0.29107   0.00000  Uiso   1.00
C157   C     0.32906   0.87533   0.31792   0.00000  Uiso   1.00
C158   C     0.41779   0.91059   0.28954   0.00000  Uiso   1.00
C159   C     0.13688   0.64299   0.33803   0.00000  Uiso   1.00
C160   C     0.10287   0.60325   0.40438   0.00000  Uiso   1.00
C161   C     0.08817   0.51407   0.41555   0.00000  Uiso   1.00
H162   H     0.20692   0.61488   0.17479   0.00000  Uiso   1.00
H163   H     0.08916   0.62056   0.08682   0.00000  Uiso   1.00
H164   H     0.38151   0.74141   0.16810   0.00000  Uiso   1.00
H165   H     0.15536   0.46937   0.25454   0.00000  Uiso   1.00
H166   H     0.95039   0.64791   0.01279   0.00000  Uiso   1.00
H167   H     0.56685   0.90270   0.18418   0.00000  Uiso   1.00
H168   H     0.08997   0.32906   0.36647   0.00000  Uiso   1.00
H169   H     0.14347   0.77676   0.35592   0.00000  Uiso   1.00
H170   H     0.02223   0.79132   0.27789   0.00000  Uiso   1.00
H171   H     0.31459   0.91217   0.35917   0.00000  Uiso   1.00
H172   H     0.08843   0.64013   0.44561   0.00000  Uiso   1.00
H173   H     0.89607   0.78650   0.16787   0.00000  Uiso   1.00
H174   H     0.51253   0.04130   0.33926   0.00000  Uiso   1.00
H175   H     0.03564   0.46765   0.52155   0.00000  Uiso   1.00
O176   O     0.84464   0.72389   0.03573   0.00000  Uiso   1.00
O177   O     0.65341   0.05816   0.26059   0.00000  Uiso   1.00
O178   O     0.02774   0.30556   0.49975   0.00000  Uiso   1.00
N179   N     0.95423   0.67851   0.06001   0.00000  Uiso   1.00
N180   N     0.53058   0.91673   0.22024   0.00000  Uiso   1.00
N181   N     0.08476   0.38043   0.39067   0.00000  Uiso   1.00
N182   N     0.92500   0.75309   0.14345   0.00000  Uiso   1.00
N183   N     0.50135   0.99131   0.30368   0.00000  Uiso   1.00
N184   N     0.05553   0.45501   0.47411   0.00000  Uiso   1.00
C185   C     0.45959   0.80762   0.54962   0.00000  Uiso   1.00
C186   C     0.55790   0.88041   0.52695   0.00000  Uiso   1.00
C187   C     0.58274   0.92531   0.46140   0.00000  Uiso   1.00
C188   C     0.67635   0.98963   0.45102   0.00000  Uiso   1.00
C189   C     0.81892   0.09977   0.40769   0.00000  Uiso   1.00
C190   C     0.46472   0.72156   0.57110   0.00000  Uiso   1.00
C191   C     0.41121   0.63291   0.54268   0.00000  Uiso   1.00
C192   C     0.42638   0.56351   0.56947   0.00000  Uiso   1.00
C193   C     0.42424   0.42703   0.59473   0.00000  Uiso   1.00
C194   C     0.43980   0.84445   0.61806   0.00000  Uiso   1.00
C195   C     0.36531   0.85909   0.62914   0.00000  Uiso   1.00
C196   C     0.35948   0.89313   0.69548   0.00000  Uiso   1.00
C197   C     0.31864   0.94744   0.79366   0.00000  Uiso   1.00
C198   C     0.58166   0.84199   0.64775   0.00000  Uiso   1.00
C199   C     0.62420   0.89907   0.58025   0.00000  Uiso   1.00
C200   C     0.71780   0.96334   0.56997   0.00000  Uiso   1.00
C201   C     0.74278   0.00834   0.50442   0.00000  Uiso   1.00
C202   C     0.53103   0.74023   0.62440   0.00000  Uiso   1.00
C203   C     0.54627   0.67094   0.65125   0.00000  Uiso   1.00
C204   C     0.49280   0.58221   0.62287   0.00000  Uiso   1.00
C205   C     0.50610   0.86312   0.67137   0.00000  Uiso   1.00
C206   C     0.50038   0.89713   0.73771   0.00000  Uiso   1.00
C207   C     0.42590   0.91183   0.74888   0.00000  Uiso   1.00
H208   H     0.40796   0.79308   0.50812   0.00000  Uiso   1.00
H209   H     0.53141   0.91084   0.42016   0.00000  Uiso   1.00
H210   H     0.35990   0.61849   0.50143   0.00000  Uiso   1.00
H211   H     0.31401   0.84464   0.58788   0.00000  Uiso   1.00
H212   H     0.69751   0.04961   0.34613   0.00000  Uiso   1.00
H213   H     0.33585   0.43315   0.51752   0.00000  Uiso   1.00
H214   H     0.23909   0.91003   0.69981   0.00000  Uiso   1.00
H215   H     0.63329   0.85653   0.68925   0.00000  Uiso   1.00
H216   H     0.76910   0.97777   0.61123   0.00000  Uiso   1.00
H217   H     0.59759   0.68541   0.69250   0.00000  Uiso   1.00
H218   H     0.55170   0.91157   0.77895   0.00000  Uiso   1.00
H219   H     0.89043   0.10393   0.50121   0.00000  Uiso   1.00
H220   H     0.52877   0.48747   0.67260   0.00000  Uiso   1.00
H221   H     0.43201   0.96436   0.85489   0.00000  Uiso   1.00
O222   O     0.87925   0.15536   0.36906   0.00000  Uiso   1.00
O223   O     0.40475   0.34659   0.59393   0.00000  Uiso   1.00
O224   O     0.27781   0.97226   0.83308   0.00000  Uiso   1.00
N225   N     0.72427   0.04577   0.39334   0.00000  Uiso   1.00
N226   N     0.38615   0.46942   0.55357   0.00000  Uiso   1.00
N227   N     0.29568   0.91524   0.72400   0.00000  Uiso   1.00
N228   N     0.82808   0.07500   0.47679   0.00000  Uiso   1.00
N229   N     0.48996   0.49865   0.63702   0.00000  Uiso   1.00
N230   N     0.39949   0.94447   0.80745   0.00000  Uiso   1.00
C231   C     0.34804   0.54041   0.88295   0.00000  Uiso   1.00
C232   C     0.32251   0.44210   0.86028   0.00000  Uiso   1.00
C233   C     0.34258   0.41726   0.79473   0.00000  Uiso   1.00
C234   C     0.31328   0.32365   0.78435   0.00000  Uiso   1.00
C235   C     0.28085   0.18108   0.74102   0.00000  Uiso   1.00
C236   C     0.25684   0.53528   0.90443   0.00000  Uiso   1.00
C237   C     0.22170   0.58879   0.87601   0.00000  Uiso   1.00
C238   C     0.13714   0.57362   0.90281   0.00000  Uiso   1.00
C239   C     0.00279   0.57576   0.92806   0.00000  Uiso   1.00
C240   C     0.40465   0.56020   0.95140   0.00000  Uiso   1.00
C241   C     0.49378   0.63469   0.96247   0.00000  Uiso   1.00
C242   C     0.53365   0.64052   0.02882   0.00000  Uiso   1.00
C243   C     0.62880   0.68136   0.12699   0.00000  Uiso   1.00
C244   C     0.26033   0.41834   0.98109   0.00000  Uiso   1.00
C245   C     0.27487   0.37580   0.91358   0.00000  Uiso   1.00
C246   C     0.24554   0.28220   0.90330   0.00000  Uiso   1.00
C247   C     0.26556   0.25722   0.83775   0.00000  Uiso   1.00
C248   C     0.20920   0.46897   0.95773   0.00000  Uiso   1.00
C249   C     0.12467   0.45373   0.98458   0.00000  Uiso   1.00
C250   C     0.08941   0.50720   0.95621   0.00000  Uiso   1.00
C251   C     0.35701   0.49390   0.00470   0.00000  Uiso   1.00
C252   C     0.39675   0.49962   0.07104   0.00000  Uiso   1.00
C253   C     0.48593   0.57410   0.08222   0.00000  Uiso   1.00
H254   H     0.38512   0.59204   0.84146   0.00000  Uiso   1.00
H255   H     0.37944   0.46859   0.75349   0.00000  Uiso   1.00
H256   H     0.25859   0.64010   0.83477   0.00000  Uiso   1.00
H257   H     0.53063   0.68599   0.92121   0.00000  Uiso   1.00
H258   H     0.35209   0.30249   0.67946   0.00000  Uiso   1.00
H259   H     0.09730   0.66415   0.85085   0.00000  Uiso   1.00
H260   H     0.67094   0.76091   0.03314   0.00000  Uiso   1.00
H261   H     0.22324   0.36671   0.02259   0.00000  Uiso   1.00
H262   H     0.20868   0.23090   0.94456   0.00000  Uiso   1.00
H263   H     0.08783   0.40241   0.02583   0.00000  Uiso   1.00
H264   H     0.35987   0.44830   0.11228   0.00000  Uiso   1.00
H265   H     0.21350   0.10957   0.83454   0.00000  Uiso   1.00
H266   H     0.95870   0.47123   0.00593   0.00000  Uiso   1.00
H267   H     0.53235   0.56799   0.18822   0.00000  Uiso   1.00
O268   O     0.27611   0.12075   0.70239   0.00000  Uiso   1.00
O269   O     0.94184   0.59525   0.92726   0.00000  Uiso   1.00
O270   O     0.69444   0.72219   0.16642   0.00000  Uiso   1.00
N271   N     0.32149   0.27573   0.72667   0.00000  Uiso   1.00
N272   N     0.08327   0.61385   0.88690   0.00000  Uiso   1.00
N273   N     0.61957   0.70432   0.05733   0.00000  Uiso   1.00
N274   N     0.24691   0.17192   0.81012   0.00000  Uiso   1.00
N275   N     0.00869   0.51004   0.97035   0.00000  Uiso   1.00
N276   N     0.54499   0.60051   0.14078   0.00000  Uiso   1.00
