data_job_04580
_audit_creation_date              2018-12-19
_audit_creation_method            'Materials Studio'
_symmetry_space_group_name_H-M    'P1'
_symmetry_Int_Tables_number       1
_symmetry_cell_setting            triclinic
loop_
_symmetry_equiv_pos_as_xyz
  x,y,z
_cell_length_a                    12.5552
_cell_length_b                    17.1471
_cell_length_c                    12.4289
_cell_angle_alpha                 90.0000
_cell_angle_beta                  113.8990
_cell_angle_gamma                 90.0000
loop_
_atom_site_label
_atom_site_type_symbol
_atom_site_fract_x
_atom_site_fract_y
_atom_site_fract_z
_atom_site_U_iso_or_equiv
_atom_site_adp_type
_atom_site_occupancy
C1     C     0.34464   0.41315   0.85434   0.00000  Uiso   1.00
C2     C     0.38002   0.32849   0.88741   0.00000  Uiso   1.00
C3     C     0.49160   0.29843   0.92175   0.00000  Uiso   1.00
C4     C     0.50604   0.21944   0.94834   0.00000  Uiso   1.00
C5     C     0.57523   0.09516   0.00076   0.00000  Uiso   1.00
C6     C     0.24780   0.41113   0.73077   0.00000  Uiso   1.00
C7     C     0.24821   0.45056   0.63342   0.00000  Uiso   1.00
C8     C     0.15133   0.44115   0.52815   0.00000  Uiso   1.00
C9     C     0.01522   0.44522   0.33741   0.00000  Uiso   1.00
C10    C     0.28771   0.44033   0.93535   0.00000  Uiso   1.00
C11    C     0.32164   0.50433   0.01000   0.00000  Uiso   1.00
C12    C     0.25835   0.51951   0.07696   0.00000  Uiso   1.00
C13    C     0.18419   0.56891   0.20387   0.00000  Uiso   1.00
C14    C     0.17187   0.32635   0.84050   0.00000  Uiso   1.00
C15    C     0.28618   0.28134   0.87988   0.00000  Uiso   1.00
C16    C     0.30045   0.20239   0.90643   0.00000  Uiso   1.00
C17    C     0.41203   0.17221   0.94081   0.00000  Uiso   1.00
C18    C     0.15396   0.36399   0.72324   0.00000  Uiso   1.00
C19    C     0.05706   0.35453   0.61810   0.00000  Uiso   1.00
C20    C     0.05732   0.39392   0.52061   0.00000  Uiso   1.00
C21    C     0.19387   0.39318   0.92784   0.00000  Uiso   1.00
C22    C     0.13050   0.40828   0.99468   0.00000  Uiso   1.00
C23    C     0.16433   0.47228   0.06942   0.00000  Uiso   1.00
H24    H     0.41770   0.44985   0.86019   0.00000  Uiso   1.00
H25    H     0.56420   0.33493   0.92755   0.00000  Uiso   1.00
H26    H     0.32084   0.48705   0.63927   0.00000  Uiso   1.00
H27    H     0.39427   0.54080   0.01579   0.00000  Uiso   1.00
H28    H     0.68523   0.18672   0.99887   0.00000  Uiso   1.00
H29    H     0.17207   0.50749   0.39102   0.00000  Uiso   1.00
H30    H     0.32691   0.62083   0.18500   0.00000  Uiso   1.00
H31    H     0.09881   0.28964   0.83464   0.00000  Uiso   1.00
H32    H     0.22781   0.16592   0.90060   0.00000  Uiso   1.00
H33    H     0.98445   0.31804   0.61231   0.00000  Uiso   1.00
H34    H     0.05788   0.37179   0.98884   0.00000  Uiso   1.00
H35    H     0.41220   0.04954   0.97699   0.00000  Uiso   1.00
H36    H     0.89905   0.37032   0.36914   0.00000  Uiso   1.00
H37    H     0.05389   0.48366   0.16312   0.00000  Uiso   1.00
O38    O     0.63932   0.03963   0.03174   0.00000  Uiso   1.00
O39    O     0.96608   0.46048   0.23428   0.00000  Uiso   1.00
O40    O     0.16922   0.60918   0.27596   0.00000  Uiso   1.00
N41    N     0.60327   0.17141   0.98469   0.00000  Uiso   1.00
N42    N     0.12351   0.47131   0.41638   0.00000  Uiso   1.00
N43    N     0.26825   0.57729   0.15866   0.00000  Uiso   1.00
N44    N     0.45636   0.09760   0.97292   0.00000  Uiso   1.00
N45    N     0.97660   0.39749   0.40461   0.00000  Uiso   1.00
N46    N     0.12134   0.50347   0.14689   0.00000  Uiso   1.00
C47    C     0.65536   0.91315   0.64566   0.00000  Uiso   1.00
C48    C     0.61998   0.82849   0.61259   0.00000  Uiso   1.00
C49    C     0.50840   0.79843   0.57825   0.00000  Uiso   1.00
C50    C     0.49396   0.71944   0.55166   0.00000  Uiso   1.00
C51    C     0.42477   0.59516   0.49924   0.00000  Uiso   1.00
C52    C     0.75220   0.91113   0.76923   0.00000  Uiso   1.00
C53    C     0.75179   0.95056   0.86658   0.00000  Uiso   1.00
C54    C     0.84867   0.94115   0.97185   0.00000  Uiso   1.00
C55    C     0.98478   0.94522   0.16259   0.00000  Uiso   1.00
C56    C     0.71229   0.94033   0.56465   0.00000  Uiso   1.00
C57    C     0.67836   0.00433   0.49000   0.00000  Uiso   1.00
C58    C     0.74165   0.01951   0.42304   0.00000  Uiso   1.00
C59    C     0.81581   0.06891   0.29613   0.00000  Uiso   1.00
C60    C     0.82813   0.82635   0.65950   0.00000  Uiso   1.00
C61    C     0.71382   0.78134   0.62012   0.00000  Uiso   1.00
C62    C     0.69955   0.70239   0.59357   0.00000  Uiso   1.00
C63    C     0.58797   0.67221   0.55919   0.00000  Uiso   1.00
C64    C     0.84604   0.86399   0.77676   0.00000  Uiso   1.00
C65    C     0.94294   0.85453   0.88190   0.00000  Uiso   1.00
C66    C     0.94268   0.89392   0.97939   0.00000  Uiso   1.00
C67    C     0.80613   0.89318   0.57216   0.00000  Uiso   1.00
C68    C     0.86950   0.90828   0.50532   0.00000  Uiso   1.00
C69    C     0.83567   0.97228   0.43058   0.00000  Uiso   1.00
H70    H     0.58230   0.94985   0.63981   0.00000  Uiso   1.00
H71    H     0.43580   0.83493   0.57245   0.00000  Uiso   1.00
H72    H     0.67916   0.98705   0.86073   0.00000  Uiso   1.00
H73    H     0.60573   0.04080   0.48421   0.00000  Uiso   1.00
H74    H     0.31477   0.68672   0.50113   0.00000  Uiso   1.00
H75    H     0.82793   0.00749   0.10898   0.00000  Uiso   1.00
H76    H     0.67309   0.12083   0.31500   0.00000  Uiso   1.00
H77    H     0.90119   0.78964   0.66536   0.00000  Uiso   1.00
H78    H     0.77219   0.66592   0.59940   0.00000  Uiso   1.00
H79    H     0.01555   0.81804   0.88769   0.00000  Uiso   1.00
H80    H     0.94212   0.87179   0.51116   0.00000  Uiso   1.00
H81    H     0.58780   0.54954   0.52301   0.00000  Uiso   1.00
H82    H     0.10095   0.87032   0.13086   0.00000  Uiso   1.00
H83    H     0.94611   0.98366   0.33688   0.00000  Uiso   1.00
O84    O     0.36068   0.53963   0.46826   0.00000  Uiso   1.00
O85    O     0.03392   0.96048   0.26572   0.00000  Uiso   1.00
O86    O     0.83078   0.10918   0.22404   0.00000  Uiso   1.00
N87    N     0.39673   0.67141   0.51531   0.00000  Uiso   1.00
N88    N     0.87649   0.97131   0.08362   0.00000  Uiso   1.00
N89    N     0.73175   0.07729   0.34134   0.00000  Uiso   1.00
N90    N     0.54364   0.59760   0.52708   0.00000  Uiso   1.00
N91    N     0.02340   0.89749   0.09539   0.00000  Uiso   1.00
N92    N     0.87866   0.00347   0.35311   0.00000  Uiso   1.00
C93    C     0.65536   0.58685   0.14566   0.00000  Uiso   1.00
C94    C     0.61998   0.67151   0.11259   0.00000  Uiso   1.00
C95    C     0.50840   0.70157   0.07825   0.00000  Uiso   1.00
C96    C     0.49396   0.78056   0.05166   0.00000  Uiso   1.00
C97    C     0.42477   0.90484   0.99924   0.00000  Uiso   1.00
C98    C     0.75220   0.58887   0.26923   0.00000  Uiso   1.00
C99    C     0.75179   0.54944   0.36658   0.00000  Uiso   1.00
C100   C     0.84867   0.55885   0.47185   0.00000  Uiso   1.00
C101   C     0.98478   0.55478   0.66259   0.00000  Uiso   1.00
C102   C     0.71229   0.55967   0.06465   0.00000  Uiso   1.00
C103   C     0.67836   0.49567   0.99000   0.00000  Uiso   1.00
C104   C     0.74165   0.48049   0.92304   0.00000  Uiso   1.00
C105   C     0.81581   0.43109   0.79613   0.00000  Uiso   1.00
C106   C     0.82813   0.67365   0.15950   0.00000  Uiso   1.00
C107   C     0.71382   0.71866   0.12012   0.00000  Uiso   1.00
C108   C     0.69955   0.79761   0.09357   0.00000  Uiso   1.00
C109   C     0.58797   0.82779   0.05919   0.00000  Uiso   1.00
C110   C     0.84604   0.63601   0.27676   0.00000  Uiso   1.00
C111   C     0.94294   0.64547   0.38190   0.00000  Uiso   1.00
C112   C     0.94268   0.60608   0.47939   0.00000  Uiso   1.00
C113   C     0.80613   0.60682   0.07216   0.00000  Uiso   1.00
C114   C     0.86950   0.59172   0.00532   0.00000  Uiso   1.00
C115   C     0.83567   0.52772   0.93058   0.00000  Uiso   1.00
H116   H     0.58230   0.55015   0.13981   0.00000  Uiso   1.00
H117   H     0.43580   0.66507   0.07245   0.00000  Uiso   1.00
H118   H     0.67916   0.51295   0.36073   0.00000  Uiso   1.00
H119   H     0.60573   0.45920   0.98421   0.00000  Uiso   1.00
H120   H     0.31477   0.81328   0.00113   0.00000  Uiso   1.00
H121   H     0.82793   0.49251   0.60898   0.00000  Uiso   1.00
H122   H     0.67309   0.37917   0.81500   0.00000  Uiso   1.00
H123   H     0.90119   0.71036   0.16536   0.00000  Uiso   1.00
H124   H     0.77219   0.83408   0.09940   0.00000  Uiso   1.00
H125   H     0.01555   0.68196   0.38769   0.00000  Uiso   1.00
H126   H     0.94212   0.62821   0.01116   0.00000  Uiso   1.00
H127   H     0.58780   0.95046   0.02301   0.00000  Uiso   1.00
H128   H     0.10095   0.62968   0.63086   0.00000  Uiso   1.00
H129   H     0.94611   0.51634   0.83688   0.00000  Uiso   1.00
O130   O     0.36068   0.96037   0.96826   0.00000  Uiso   1.00
O131   O     0.03392   0.53952   0.76572   0.00000  Uiso   1.00
O132   O     0.83078   0.39082   0.72404   0.00000  Uiso   1.00
N133   N     0.39673   0.82859   0.01531   0.00000  Uiso   1.00
N134   N     0.87649   0.52869   0.58362   0.00000  Uiso   1.00
N135   N     0.73175   0.42271   0.84134   0.00000  Uiso   1.00
N136   N     0.54364   0.90240   0.02708   0.00000  Uiso   1.00
N137   N     0.02340   0.60251   0.59539   0.00000  Uiso   1.00
N138   N     0.87866   0.49653   0.85311   0.00000  Uiso   1.00
C139   C     0.34464   0.08685   0.35434   0.00000  Uiso   1.00
C140   C     0.38002   0.17151   0.38741   0.00000  Uiso   1.00
C141   C     0.49160   0.20157   0.42175   0.00000  Uiso   1.00
C142   C     0.50604   0.28056   0.44834   0.00000  Uiso   1.00
C143   C     0.57523   0.40484   0.50076   0.00000  Uiso   1.00
C144   C     0.24780   0.08887   0.23077   0.00000  Uiso   1.00
C145   C     0.24821   0.04944   0.13342   0.00000  Uiso   1.00
C146   C     0.15133   0.05885   0.02815   0.00000  Uiso   1.00
C147   C     0.01522   0.05478   0.83741   0.00000  Uiso   1.00
C148   C     0.28771   0.05967   0.43535   0.00000  Uiso   1.00
C149   C     0.32164   0.99567   0.51000   0.00000  Uiso   1.00
C150   C     0.25835   0.98049   0.57696   0.00000  Uiso   1.00
C151   C     0.18419   0.93109   0.70387   0.00000  Uiso   1.00
C152   C     0.17187   0.17365   0.34050   0.00000  Uiso   1.00
C153   C     0.28618   0.21866   0.37988   0.00000  Uiso   1.00
C154   C     0.30045   0.29761   0.40643   0.00000  Uiso   1.00
C155   C     0.41203   0.32779   0.44081   0.00000  Uiso   1.00
C156   C     0.15396   0.13601   0.22324   0.00000  Uiso   1.00
C157   C     0.05706   0.14547   0.11810   0.00000  Uiso   1.00
C158   C     0.05732   0.10608   0.02061   0.00000  Uiso   1.00
C159   C     0.19387   0.10682   0.42784   0.00000  Uiso   1.00
C160   C     0.13050   0.09172   0.49468   0.00000  Uiso   1.00
C161   C     0.16433   0.02772   0.56942   0.00000  Uiso   1.00
H162   H     0.41770   0.05015   0.36019   0.00000  Uiso   1.00
H163   H     0.56420   0.16507   0.42755   0.00000  Uiso   1.00
H164   H     0.32084   0.01295   0.13927   0.00000  Uiso   1.00
H165   H     0.39427   0.95920   0.51579   0.00000  Uiso   1.00
H166   H     0.68523   0.31328   0.49887   0.00000  Uiso   1.00
H167   H     0.17207   0.99251   0.89102   0.00000  Uiso   1.00
H168   H     0.32691   0.87917   0.68500   0.00000  Uiso   1.00
H169   H     0.09881   0.21036   0.33464   0.00000  Uiso   1.00
H170   H     0.22781   0.33408   0.40060   0.00000  Uiso   1.00
H171   H     0.98445   0.18196   0.11231   0.00000  Uiso   1.00
H172   H     0.05788   0.12821   0.48884   0.00000  Uiso   1.00
H173   H     0.41220   0.45046   0.47699   0.00000  Uiso   1.00
H174   H     0.89905   0.12968   0.86914   0.00000  Uiso   1.00
H175   H     0.05389   0.01634   0.66312   0.00000  Uiso   1.00
O176   O     0.63932   0.46037   0.53174   0.00000  Uiso   1.00
O177   O     0.96608   0.03952   0.73428   0.00000  Uiso   1.00
O178   O     0.16922   0.89082   0.77596   0.00000  Uiso   1.00
N179   N     0.60327   0.32859   0.48469   0.00000  Uiso   1.00
N180   N     0.12351   0.02869   0.91638   0.00000  Uiso   1.00
N181   N     0.26825   0.92271   0.65866   0.00000  Uiso   1.00
N182   N     0.45636   0.40240   0.47292   0.00000  Uiso   1.00
N183   N     0.97660   0.10251   0.90461   0.00000  Uiso   1.00
N184   N     0.12134   0.99653   0.64689   0.00000  Uiso   1.00
