data_job_01368
_audit_creation_date              2018-12-19
_audit_creation_method            'Materials Studio'
_symmetry_space_group_name_H-M    'P1'
_symmetry_Int_Tables_number       1
_symmetry_cell_setting            triclinic
loop_
_symmetry_equiv_pos_as_xyz
  x,y,z
_cell_length_a                    14.7490
_cell_length_b                    12.3335
_cell_length_c                    14.4409
_cell_angle_alpha                 90.0000
_cell_angle_beta                  65.9898
_cell_angle_gamma                 90.0000
loop_
_atom_site_label
_atom_site_type_symbol
_atom_site_fract_x
_atom_site_fract_y
_atom_site_fract_z
_atom_site_U_iso_or_equiv
_atom_site_adp_type
_atom_site_occupancy
C1     C     0.20921   0.73533   0.10696   0.00000  Uiso   1.00
C2     C     0.11221   0.73263   0.09290   0.00000  Uiso   1.00
C3     C     0.01907   0.75832   0.16630   0.00000  Uiso   1.00
C4     C     0.93958   0.75079   0.13850   0.00000  Uiso   1.00
C5     C     0.78694   0.75144   0.13155   0.00000  Uiso   1.00
C6     C     0.25385   0.62215   0.07982   0.00000  Uiso   1.00
C7     C     0.27982   0.55496   0.14221   0.00000  Uiso   1.00
C8     C     0.31958   0.45444   0.10338   0.00000  Uiso   1.00
C9     C     0.38691   0.28360   0.07609   0.00000  Uiso   1.00
C10    C     0.27831   0.81072   0.02488   0.00000  Uiso   1.00
C11    C     0.32487   0.90206   0.04107   0.00000  Uiso   1.00
C12    C     0.38524   0.96028   0.95599   0.00000  Uiso   1.00
C13    C     0.49055   0.08220   0.84340   0.00000  Uiso   1.00
C14    C     0.23365   0.67628   0.92706   0.00000  Uiso   1.00
C15    C     0.12549   0.70056   0.99519   0.00000  Uiso   1.00
C16    C     0.04611   0.69300   0.96726   0.00000  Uiso   1.00
C17    C     0.95288   0.71867   0.04061   0.00000  Uiso   1.00
C18    C     0.26713   0.59008   0.98210   0.00000  Uiso   1.00
C19    C     0.30686   0.48964   0.94317   0.00000  Uiso   1.00
C20    C     0.33288   0.42231   0.00549   0.00000  Uiso   1.00
C21    C     0.29159   0.77865   0.92716   0.00000  Uiso   1.00
C22    C     0.35191   0.83673   0.84203   0.00000  Uiso   1.00
C23    C     0.39854   0.92814   0.85809   0.00000  Uiso   1.00
H24    H     0.19888   0.76029   0.18304   0.00000  Uiso   1.00
H25    H     0.00883   0.78313   0.24192   0.00000  Uiso   1.00
H26    H     0.26955   0.57981   0.21782   0.00000  Uiso   1.00
H27    H     0.31458   0.92685   0.11670   0.00000  Uiso   1.00
H28    H     0.80398   0.79427   0.26412   0.00000  Uiso   1.00
H29    H     0.35374   0.36557   0.21330   0.00000  Uiso   1.00
H30    H     0.44872   0.09737   0.00007   0.00000  Uiso   1.00
H31    H     0.24399   0.65131   0.85098   0.00000  Uiso   1.00
H32    H     0.05641   0.66817   0.89163   0.00000  Uiso   1.00
H33    H     0.31713   0.46485   0.86754   0.00000  Uiso   1.00
H34    H     0.36216   0.81189   0.76642   0.00000  Uiso   1.00
H35    H     0.84259   0.70096   0.97982   0.00000  Uiso   1.00
H36    H     0.39237   0.27227   0.92900   0.00000  Uiso   1.00
H37    H     0.48733   0.00407   0.71577   0.00000  Uiso   1.00
O38    O     0.69907   0.76064   0.15472   0.00000  Uiso   1.00
O39    O     0.42037   0.19822   0.08804   0.00000  Uiso   1.00
O40    O     0.54496   0.15832   0.80829   0.00000  Uiso   1.00
N41    N     0.83881   0.77001   0.19162   0.00000  Uiso   1.00
N42    N     0.35280   0.36920   0.14412   0.00000  Uiso   1.00
N43    N     0.44161   0.05336   0.94476   0.00000  Uiso   1.00
N44    N     0.85959   0.71981   0.03864   0.00000  Uiso   1.00
N45    N     0.37358   0.31900   0.99114   0.00000  Uiso   1.00
N46    N     0.46239   0.00315   0.79178   0.00000  Uiso   1.00
C47    C     0.79079   0.23533   0.39304   0.00000  Uiso   1.00
C48    C     0.88779   0.23263   0.40710   0.00000  Uiso   1.00
C49    C     0.98093   0.25832   0.33370   0.00000  Uiso   1.00
C50    C     0.06042   0.25079   0.36150   0.00000  Uiso   1.00
C51    C     0.21306   0.25144   0.36845   0.00000  Uiso   1.00
C52    C     0.74615   0.12215   0.42018   0.00000  Uiso   1.00
C53    C     0.72018   0.05496   0.35779   0.00000  Uiso   1.00
C54    C     0.68042   0.95444   0.39662   0.00000  Uiso   1.00
C55    C     0.61309   0.78360   0.42391   0.00000  Uiso   1.00
C56    C     0.72169   0.31072   0.47512   0.00000  Uiso   1.00
C57    C     0.67513   0.40206   0.45893   0.00000  Uiso   1.00
C58    C     0.61476   0.46028   0.54401   0.00000  Uiso   1.00
C59    C     0.50945   0.58220   0.65660   0.00000  Uiso   1.00
C60    C     0.76635   0.17628   0.57294   0.00000  Uiso   1.00
C61    C     0.87451   0.20056   0.50481   0.00000  Uiso   1.00
C62    C     0.95389   0.19300   0.53274   0.00000  Uiso   1.00
C63    C     0.04712   0.21867   0.45939   0.00000  Uiso   1.00
C64    C     0.73287   0.09008   0.51790   0.00000  Uiso   1.00
C65    C     0.69314   0.98964   0.55683   0.00000  Uiso   1.00
C66    C     0.66712   0.92231   0.49451   0.00000  Uiso   1.00
C67    C     0.70841   0.27865   0.57284   0.00000  Uiso   1.00
C68    C     0.64809   0.33673   0.65797   0.00000  Uiso   1.00
C69    C     0.60146   0.42814   0.64191   0.00000  Uiso   1.00
H70    H     0.80112   0.26029   0.31696   0.00000  Uiso   1.00
H71    H     0.99117   0.28313   0.25808   0.00000  Uiso   1.00
H72    H     0.73045   0.07981   0.28218   0.00000  Uiso   1.00
H73    H     0.68542   0.42685   0.38330   0.00000  Uiso   1.00
H74    H     0.19602   0.29427   0.23588   0.00000  Uiso   1.00
H75    H     0.64626   0.86557   0.28670   0.00000  Uiso   1.00
H76    H     0.55128   0.59737   0.49993   0.00000  Uiso   1.00
H77    H     0.75601   0.15131   0.64902   0.00000  Uiso   1.00
H78    H     0.94359   0.16817   0.60837   0.00000  Uiso   1.00
H79    H     0.68287   0.96485   0.63246   0.00000  Uiso   1.00
H80    H     0.63784   0.31189   0.73358   0.00000  Uiso   1.00
H81    H     0.15741   0.20096   0.52018   0.00000  Uiso   1.00
H82    H     0.60763   0.77227   0.57100   0.00000  Uiso   1.00
H83    H     0.51267   0.50407   0.78423   0.00000  Uiso   1.00
O84    O     0.30093   0.26064   0.34528   0.00000  Uiso   1.00
O85    O     0.57963   0.69822   0.41196   0.00000  Uiso   1.00
O86    O     0.45504   0.65832   0.69171   0.00000  Uiso   1.00
N87    N     0.16119   0.27001   0.30838   0.00000  Uiso   1.00
N88    N     0.64720   0.86920   0.35588   0.00000  Uiso   1.00
N89    N     0.55839   0.55336   0.55524   0.00000  Uiso   1.00
N90    N     0.14041   0.21981   0.46136   0.00000  Uiso   1.00
N91    N     0.62642   0.81900   0.50886   0.00000  Uiso   1.00
N92    N     0.53761   0.50315   0.70822   0.00000  Uiso   1.00
C93    C     0.79079   0.26467   0.89304   0.00000  Uiso   1.00
C94    C     0.88779   0.26737   0.90710   0.00000  Uiso   1.00
C95    C     0.98093   0.24168   0.83370   0.00000  Uiso   1.00
C96    C     0.06042   0.24921   0.86150   0.00000  Uiso   1.00
C97    C     0.21306   0.24856   0.86845   0.00000  Uiso   1.00
C98    C     0.74615   0.37785   0.92018   0.00000  Uiso   1.00
C99    C     0.72018   0.44504   0.85779   0.00000  Uiso   1.00
C100   C     0.68042   0.54556   0.89662   0.00000  Uiso   1.00
C101   C     0.61309   0.71640   0.92391   0.00000  Uiso   1.00
C102   C     0.72169   0.18928   0.97512   0.00000  Uiso   1.00
C103   C     0.67513   0.09794   0.95893   0.00000  Uiso   1.00
C104   C     0.61476   0.03972   0.04401   0.00000  Uiso   1.00
C105   C     0.50945   0.91780   0.15660   0.00000  Uiso   1.00
C106   C     0.76635   0.32372   0.07294   0.00000  Uiso   1.00
C107   C     0.87451   0.29944   0.00481   0.00000  Uiso   1.00
C108   C     0.95389   0.30700   0.03274   0.00000  Uiso   1.00
C109   C     0.04712   0.28133   0.95939   0.00000  Uiso   1.00
C110   C     0.73287   0.40992   0.01790   0.00000  Uiso   1.00
C111   C     0.69314   0.51036   0.05683   0.00000  Uiso   1.00
C112   C     0.66712   0.57769   0.99451   0.00000  Uiso   1.00
C113   C     0.70841   0.22135   0.07284   0.00000  Uiso   1.00
C114   C     0.64809   0.16327   0.15797   0.00000  Uiso   1.00
C115   C     0.60146   0.07186   0.14191   0.00000  Uiso   1.00
H116   H     0.80112   0.23971   0.81696   0.00000  Uiso   1.00
H117   H     0.99117   0.21687   0.75808   0.00000  Uiso   1.00
H118   H     0.73045   0.42019   0.78218   0.00000  Uiso   1.00
H119   H     0.68542   0.07315   0.88330   0.00000  Uiso   1.00
H120   H     0.19602   0.20573   0.73588   0.00000  Uiso   1.00
H121   H     0.64626   0.63443   0.78670   0.00000  Uiso   1.00
H122   H     0.55128   0.90263   0.99993   0.00000  Uiso   1.00
H123   H     0.75601   0.34869   0.14902   0.00000  Uiso   1.00
H124   H     0.94359   0.33183   0.10837   0.00000  Uiso   1.00
H125   H     0.68287   0.53515   0.13246   0.00000  Uiso   1.00
H126   H     0.63784   0.18811   0.23358   0.00000  Uiso   1.00
H127   H     0.15741   0.29904   0.02018   0.00000  Uiso   1.00
H128   H     0.60763   0.72773   0.07100   0.00000  Uiso   1.00
H129   H     0.51267   0.99593   0.28423   0.00000  Uiso   1.00
O130   O     0.30093   0.23936   0.84528   0.00000  Uiso   1.00
O131   O     0.57963   0.80178   0.91196   0.00000  Uiso   1.00
O132   O     0.45504   0.84168   0.19171   0.00000  Uiso   1.00
N133   N     0.16119   0.22999   0.80838   0.00000  Uiso   1.00
N134   N     0.64720   0.63080   0.85588   0.00000  Uiso   1.00
N135   N     0.55839   0.94664   0.05524   0.00000  Uiso   1.00
N136   N     0.14041   0.28019   0.96136   0.00000  Uiso   1.00
N137   N     0.62642   0.68100   0.00886   0.00000  Uiso   1.00
N138   N     0.53761   0.99685   0.20822   0.00000  Uiso   1.00
C139   C     0.20921   0.76467   0.60696   0.00000  Uiso   1.00
C140   C     0.11221   0.76737   0.59290   0.00000  Uiso   1.00
C141   C     0.01907   0.74168   0.66630   0.00000  Uiso   1.00
C142   C     0.93958   0.74921   0.63850   0.00000  Uiso   1.00
C143   C     0.78694   0.74856   0.63155   0.00000  Uiso   1.00
C144   C     0.25385   0.87785   0.57982   0.00000  Uiso   1.00
C145   C     0.27982   0.94504   0.64221   0.00000  Uiso   1.00
C146   C     0.31958   0.04556   0.60338   0.00000  Uiso   1.00
C147   C     0.38691   0.21640   0.57609   0.00000  Uiso   1.00
C148   C     0.27831   0.68928   0.52488   0.00000  Uiso   1.00
C149   C     0.32487   0.59794   0.54107   0.00000  Uiso   1.00
C150   C     0.38524   0.53972   0.45599   0.00000  Uiso   1.00
C151   C     0.49055   0.41780   0.34340   0.00000  Uiso   1.00
C152   C     0.23365   0.82372   0.42706   0.00000  Uiso   1.00
C153   C     0.12549   0.79944   0.49519   0.00000  Uiso   1.00
C154   C     0.04611   0.80700   0.46726   0.00000  Uiso   1.00
C155   C     0.95288   0.78133   0.54061   0.00000  Uiso   1.00
C156   C     0.26713   0.90992   0.48210   0.00000  Uiso   1.00
C157   C     0.30686   0.01036   0.44317   0.00000  Uiso   1.00
C158   C     0.33288   0.07769   0.50549   0.00000  Uiso   1.00
C159   C     0.29159   0.72135   0.42716   0.00000  Uiso   1.00
C160   C     0.35191   0.66327   0.34203   0.00000  Uiso   1.00
C161   C     0.39854   0.57186   0.35809   0.00000  Uiso   1.00
H162   H     0.19888   0.73971   0.68304   0.00000  Uiso   1.00
H163   H     0.00883   0.71687   0.74192   0.00000  Uiso   1.00
H164   H     0.26955   0.92019   0.71782   0.00000  Uiso   1.00
H165   H     0.31458   0.57315   0.61670   0.00000  Uiso   1.00
H166   H     0.80398   0.70573   0.76412   0.00000  Uiso   1.00
H167   H     0.35374   0.13443   0.71330   0.00000  Uiso   1.00
H168   H     0.44872   0.40263   0.50007   0.00000  Uiso   1.00
H169   H     0.24399   0.84869   0.35098   0.00000  Uiso   1.00
H170   H     0.05641   0.83183   0.39163   0.00000  Uiso   1.00
H171   H     0.31713   0.03515   0.36754   0.00000  Uiso   1.00
H172   H     0.36216   0.68811   0.26642   0.00000  Uiso   1.00
H173   H     0.84259   0.79904   0.47982   0.00000  Uiso   1.00
H174   H     0.39237   0.22773   0.42900   0.00000  Uiso   1.00
H175   H     0.48733   0.49593   0.21577   0.00000  Uiso   1.00
O176   O     0.69907   0.73936   0.65472   0.00000  Uiso   1.00
O177   O     0.42037   0.30178   0.58804   0.00000  Uiso   1.00
O178   O     0.54496   0.34168   0.30829   0.00000  Uiso   1.00
N179   N     0.83881   0.72999   0.69162   0.00000  Uiso   1.00
N180   N     0.35280   0.13080   0.64412   0.00000  Uiso   1.00
N181   N     0.44161   0.44664   0.44476   0.00000  Uiso   1.00
N182   N     0.85959   0.78019   0.53864   0.00000  Uiso   1.00
N183   N     0.37358   0.18100   0.49114   0.00000  Uiso   1.00
N184   N     0.46239   0.49685   0.29178   0.00000  Uiso   1.00
