data_job_03815
_audit_creation_date              2018-12-19
_audit_creation_method            'Materials Studio'
_symmetry_space_group_name_H-M    'P1'
_symmetry_Int_Tables_number       1
_symmetry_cell_setting            triclinic
loop_
_symmetry_equiv_pos_as_xyz
  x,y,z
_cell_length_a                    20.5839
_cell_length_b                    21.9657
_cell_length_c                    13.3631
_cell_angle_alpha                 90.0000
_cell_angle_beta                  100.6370
_cell_angle_gamma                 90.0000
loop_
_atom_site_label
_atom_site_type_symbol
_atom_site_fract_x
_atom_site_fract_y
_atom_site_fract_z
_atom_site_U_iso_or_equiv
_atom_site_adp_type
_atom_site_occupancy
C1     C     0.65826   0.77123   0.08855   0.00000  Uiso   1.00
C2     C     0.63166   0.82534   0.02192   0.00000  Uiso   1.00
C3     C     0.65616   0.84626   0.93819   0.00000  Uiso   1.00
C4     C     0.62499   0.89643   0.88731   0.00000  Uiso   1.00
C5     C     0.59187   0.97618   0.77905   0.00000  Uiso   1.00
C6     C     0.67546   0.79565   0.19704   0.00000  Uiso   1.00
C7     C     0.73679   0.79159   0.26054   0.00000  Uiso   1.00
C8     C     0.74248   0.81676   0.35708   0.00000  Uiso   1.00
C9     C     0.77735   0.85037   0.52072   0.00000  Uiso   1.00
C10    C     0.59987   0.72827   0.08681   0.00000  Uiso   1.00
C11    C     0.59765   0.66755   0.05765   0.00000  Uiso   1.00
C12    C     0.53970   0.63599   0.06140   0.00000  Uiso   1.00
C13    C     0.45722   0.56499   0.05388   0.00000  Uiso   1.00
C14    C     0.55932   0.82313   0.14709   0.00000  Uiso   1.00
C15    C     0.57792   0.85353   0.05372   0.00000  Uiso   1.00
C16    C     0.54670   0.90369   0.00295   0.00000  Uiso   1.00
C17    C     0.57115   0.92467   0.91915   0.00000  Uiso   1.00
C18    C     0.62172   0.82384   0.22884   0.00000  Uiso   1.00
C19    C     0.62732   0.84902   0.32530   0.00000  Uiso   1.00
C20    C     0.68864   0.84500   0.38893   0.00000  Uiso   1.00
C21    C     0.54613   0.75646   0.11860   0.00000  Uiso   1.00
C22    C     0.48818   0.72498   0.12241   0.00000  Uiso   1.00
C23    C     0.48587   0.66423   0.09325   0.00000  Uiso   1.00
H24    H     0.70010   0.74928   0.06380   0.00000  Uiso   1.00
H25    H     0.69776   0.82443   0.91361   0.00000  Uiso   1.00
H26    H     0.77836   0.76976   0.23592   0.00000  Uiso   1.00
H27    H     0.63924   0.64575   0.03305   0.00000  Uiso   1.00
H28    H     0.67147   0.92019   0.76114   0.00000  Uiso   1.00
H29    H     0.84143   0.80491   0.44075   0.00000  Uiso   1.00
H30    H     0.54807   0.54340   0.01297   0.00000  Uiso   1.00
H31    H     0.51748   0.84508   0.17184   0.00000  Uiso   1.00
H32    H     0.50511   0.92549   0.02757   0.00000  Uiso   1.00
H33    H     0.58572   0.87083   0.34988   0.00000  Uiso   1.00
H34    H     0.44660   0.74681   0.14701   0.00000  Uiso   1.00
H35    H     0.51511   0.00223   0.85364   0.00000  Uiso   1.00
H36    H     0.68508   0.88694   0.53326   0.00000  Uiso   1.00
H37    H     0.39171   0.62543   0.10547   0.00000  Uiso   1.00
O38    O     0.58846   0.01239   0.71056   0.00000  Uiso   1.00
O39    O     0.81144   0.86113   0.60219   0.00000  Uiso   1.00
O40    O     0.42656   0.51804   0.04094   0.00000  Uiso   1.00
N41    N     0.63636   0.92846   0.80270   0.00000  Uiso   1.00
N42    N     0.79527   0.82068   0.43809   0.00000  Uiso   1.00
N43    N     0.52101   0.57619   0.03817   0.00000  Uiso   1.00
N44    N     0.55222   0.97260   0.85247   0.00000  Uiso   1.00
N45    N     0.71113   0.86482   0.48786   0.00000  Uiso   1.00
N46    N     0.43687   0.62033   0.08794   0.00000  Uiso   1.00
C47    C     0.15826   0.27123   0.08855   0.00000  Uiso   1.00
C48    C     0.13166   0.32534   0.02192   0.00000  Uiso   1.00
C49    C     0.15616   0.34626   0.93819   0.00000  Uiso   1.00
C50    C     0.12499   0.39643   0.88731   0.00000  Uiso   1.00
C51    C     0.09187   0.47618   0.77905   0.00000  Uiso   1.00
C52    C     0.17546   0.29565   0.19704   0.00000  Uiso   1.00
C53    C     0.23679   0.29159   0.26054   0.00000  Uiso   1.00
C54    C     0.24248   0.31676   0.35708   0.00000  Uiso   1.00
C55    C     0.27735   0.35037   0.52072   0.00000  Uiso   1.00
C56    C     0.09987   0.22827   0.08681   0.00000  Uiso   1.00
C57    C     0.09765   0.16755   0.05765   0.00000  Uiso   1.00
C58    C     0.03970   0.13599   0.06140   0.00000  Uiso   1.00
C59    C     0.95722   0.06499   0.05388   0.00000  Uiso   1.00
C60    C     0.05932   0.32313   0.14709   0.00000  Uiso   1.00
C61    C     0.07792   0.35353   0.05372   0.00000  Uiso   1.00
C62    C     0.04670   0.40369   0.00295   0.00000  Uiso   1.00
C63    C     0.07115   0.42467   0.91915   0.00000  Uiso   1.00
C64    C     0.12172   0.32384   0.22884   0.00000  Uiso   1.00
C65    C     0.12732   0.34902   0.32530   0.00000  Uiso   1.00
C66    C     0.18864   0.34500   0.38893   0.00000  Uiso   1.00
C67    C     0.04613   0.25646   0.11860   0.00000  Uiso   1.00
C68    C     0.98818   0.22498   0.12241   0.00000  Uiso   1.00
C69    C     0.98587   0.16423   0.09325   0.00000  Uiso   1.00
H70    H     0.20010   0.24928   0.06380   0.00000  Uiso   1.00
H71    H     0.19776   0.32443   0.91361   0.00000  Uiso   1.00
H72    H     0.27836   0.26976   0.23592   0.00000  Uiso   1.00
H73    H     0.13924   0.14575   0.03305   0.00000  Uiso   1.00
H74    H     0.17147   0.42019   0.76114   0.00000  Uiso   1.00
H75    H     0.34143   0.30491   0.44075   0.00000  Uiso   1.00
H76    H     0.04807   0.04340   0.01297   0.00000  Uiso   1.00
H77    H     0.01748   0.34508   0.17184   0.00000  Uiso   1.00
H78    H     0.00511   0.42549   0.02757   0.00000  Uiso   1.00
H79    H     0.08572   0.37083   0.34988   0.00000  Uiso   1.00
H80    H     0.94660   0.24681   0.14701   0.00000  Uiso   1.00
H81    H     0.01511   0.50223   0.85364   0.00000  Uiso   1.00
H82    H     0.18508   0.38694   0.53326   0.00000  Uiso   1.00
H83    H     0.89171   0.12543   0.10547   0.00000  Uiso   1.00
O84    O     0.08846   0.51239   0.71056   0.00000  Uiso   1.00
O85    O     0.31144   0.36113   0.60219   0.00000  Uiso   1.00
O86    O     0.92656   0.01804   0.04094   0.00000  Uiso   1.00
N87    N     0.13636   0.42846   0.80270   0.00000  Uiso   1.00
N88    N     0.29527   0.32068   0.43809   0.00000  Uiso   1.00
N89    N     0.02101   0.07619   0.03817   0.00000  Uiso   1.00
N90    N     0.05222   0.47260   0.85247   0.00000  Uiso   1.00
N91    N     0.21113   0.36482   0.48786   0.00000  Uiso   1.00
N92    N     0.93687   0.12033   0.08794   0.00000  Uiso   1.00
C93    C     0.34174   0.77123   0.41145   0.00000  Uiso   1.00
C94    C     0.36834   0.82534   0.47808   0.00000  Uiso   1.00
C95    C     0.34384   0.84626   0.56181   0.00000  Uiso   1.00
C96    C     0.37501   0.89643   0.61269   0.00000  Uiso   1.00
C97    C     0.40813   0.97618   0.72095   0.00000  Uiso   1.00
C98    C     0.32454   0.79565   0.30296   0.00000  Uiso   1.00
C99    C     0.26321   0.79159   0.23946   0.00000  Uiso   1.00
C100   C     0.25752   0.81676   0.14292   0.00000  Uiso   1.00
C101   C     0.22265   0.85037   0.97928   0.00000  Uiso   1.00
C102   C     0.40013   0.72827   0.41319   0.00000  Uiso   1.00
C103   C     0.40235   0.66755   0.44235   0.00000  Uiso   1.00
C104   C     0.46030   0.63599   0.43860   0.00000  Uiso   1.00
C105   C     0.54278   0.56499   0.44612   0.00000  Uiso   1.00
C106   C     0.44068   0.82313   0.35291   0.00000  Uiso   1.00
C107   C     0.42208   0.85353   0.44628   0.00000  Uiso   1.00
C108   C     0.45330   0.90369   0.49705   0.00000  Uiso   1.00
C109   C     0.42885   0.92467   0.58085   0.00000  Uiso   1.00
C110   C     0.37828   0.82384   0.27116   0.00000  Uiso   1.00
C111   C     0.37268   0.84902   0.17470   0.00000  Uiso   1.00
C112   C     0.31136   0.84500   0.11107   0.00000  Uiso   1.00
C113   C     0.45387   0.75646   0.38140   0.00000  Uiso   1.00
C114   C     0.51182   0.72498   0.37759   0.00000  Uiso   1.00
C115   C     0.51413   0.66423   0.40675   0.00000  Uiso   1.00
H116   H     0.29990   0.74928   0.43620   0.00000  Uiso   1.00
H117   H     0.30224   0.82443   0.58639   0.00000  Uiso   1.00
H118   H     0.22164   0.76976   0.26408   0.00000  Uiso   1.00
H119   H     0.36076   0.64575   0.46695   0.00000  Uiso   1.00
H120   H     0.32853   0.92019   0.73886   0.00000  Uiso   1.00
H121   H     0.15857   0.80491   0.05925   0.00000  Uiso   1.00
H122   H     0.45193   0.54340   0.48703   0.00000  Uiso   1.00
H123   H     0.48252   0.84508   0.32816   0.00000  Uiso   1.00
H124   H     0.49489   0.92549   0.47243   0.00000  Uiso   1.00
H125   H     0.41428   0.87083   0.15012   0.00000  Uiso   1.00
H126   H     0.55340   0.74681   0.35299   0.00000  Uiso   1.00
H127   H     0.48489   0.00223   0.64636   0.00000  Uiso   1.00
H128   H     0.31492   0.88694   0.96674   0.00000  Uiso   1.00
H129   H     0.60829   0.62543   0.39453   0.00000  Uiso   1.00
O130   O     0.41154   0.01239   0.78944   0.00000  Uiso   1.00
O131   O     0.18856   0.86113   0.89781   0.00000  Uiso   1.00
O132   O     0.57344   0.51804   0.45906   0.00000  Uiso   1.00
N133   N     0.36364   0.92846   0.69730   0.00000  Uiso   1.00
N134   N     0.20473   0.82068   0.06191   0.00000  Uiso   1.00
N135   N     0.47899   0.57619   0.46183   0.00000  Uiso   1.00
N136   N     0.44778   0.97260   0.64753   0.00000  Uiso   1.00
N137   N     0.28887   0.86482   0.01214   0.00000  Uiso   1.00
N138   N     0.56313   0.62033   0.41206   0.00000  Uiso   1.00
C139   C     0.84174   0.27123   0.41145   0.00000  Uiso   1.00
C140   C     0.86834   0.32534   0.47808   0.00000  Uiso   1.00
C141   C     0.84384   0.34626   0.56181   0.00000  Uiso   1.00
C142   C     0.87501   0.39643   0.61269   0.00000  Uiso   1.00
C143   C     0.90813   0.47618   0.72095   0.00000  Uiso   1.00
C144   C     0.82454   0.29565   0.30296   0.00000  Uiso   1.00
C145   C     0.76321   0.29159   0.23946   0.00000  Uiso   1.00
C146   C     0.75752   0.31676   0.14292   0.00000  Uiso   1.00
C147   C     0.72265   0.35037   0.97928   0.00000  Uiso   1.00
C148   C     0.90013   0.22827   0.41319   0.00000  Uiso   1.00
C149   C     0.90235   0.16755   0.44235   0.00000  Uiso   1.00
C150   C     0.96030   0.13599   0.43860   0.00000  Uiso   1.00
C151   C     0.04278   0.06499   0.44612   0.00000  Uiso   1.00
C152   C     0.94068   0.32313   0.35291   0.00000  Uiso   1.00
C153   C     0.92208   0.35353   0.44628   0.00000  Uiso   1.00
C154   C     0.95330   0.40369   0.49705   0.00000  Uiso   1.00
C155   C     0.92885   0.42467   0.58085   0.00000  Uiso   1.00
C156   C     0.87828   0.32384   0.27116   0.00000  Uiso   1.00
C157   C     0.87268   0.34902   0.17470   0.00000  Uiso   1.00
C158   C     0.81136   0.34500   0.11107   0.00000  Uiso   1.00
C159   C     0.95387   0.25646   0.38140   0.00000  Uiso   1.00
C160   C     0.01182   0.22498   0.37759   0.00000  Uiso   1.00
C161   C     0.01413   0.16423   0.40675   0.00000  Uiso   1.00
H162   H     0.79990   0.24928   0.43620   0.00000  Uiso   1.00
H163   H     0.80224   0.32443   0.58639   0.00000  Uiso   1.00
H164   H     0.72164   0.26976   0.26408   0.00000  Uiso   1.00
H165   H     0.86076   0.14575   0.46695   0.00000  Uiso   1.00
H166   H     0.82853   0.42019   0.73886   0.00000  Uiso   1.00
H167   H     0.65857   0.30491   0.05925   0.00000  Uiso   1.00
H168   H     0.95193   0.04340   0.48703   0.00000  Uiso   1.00
H169   H     0.98252   0.34508   0.32816   0.00000  Uiso   1.00
H170   H     0.99489   0.42549   0.47243   0.00000  Uiso   1.00
H171   H     0.91428   0.37083   0.15012   0.00000  Uiso   1.00
H172   H     0.05340   0.24681   0.35299   0.00000  Uiso   1.00
H173   H     0.98489   0.50223   0.64636   0.00000  Uiso   1.00
H174   H     0.81492   0.38694   0.96674   0.00000  Uiso   1.00
H175   H     0.10829   0.12543   0.39453   0.00000  Uiso   1.00
O176   O     0.91154   0.51239   0.78944   0.00000  Uiso   1.00
O177   O     0.68856   0.36113   0.89781   0.00000  Uiso   1.00
O178   O     0.07344   0.01804   0.45906   0.00000  Uiso   1.00
N179   N     0.86364   0.42846   0.69730   0.00000  Uiso   1.00
N180   N     0.70473   0.32068   0.06191   0.00000  Uiso   1.00
N181   N     0.97899   0.07619   0.46183   0.00000  Uiso   1.00
N182   N     0.94778   0.47260   0.64753   0.00000  Uiso   1.00
N183   N     0.78887   0.36482   0.01214   0.00000  Uiso   1.00
N184   N     0.06313   0.12033   0.41206   0.00000  Uiso   1.00
C185   C     0.34174   0.22877   0.91145   0.00000  Uiso   1.00
C186   C     0.36834   0.17466   0.97808   0.00000  Uiso   1.00
C187   C     0.34384   0.15374   0.06181   0.00000  Uiso   1.00
C188   C     0.37501   0.10357   0.11269   0.00000  Uiso   1.00
C189   C     0.40813   0.02382   0.22095   0.00000  Uiso   1.00
C190   C     0.32454   0.20435   0.80296   0.00000  Uiso   1.00
C191   C     0.26321   0.20841   0.73946   0.00000  Uiso   1.00
C192   C     0.25752   0.18324   0.64292   0.00000  Uiso   1.00
C193   C     0.22265   0.14963   0.47928   0.00000  Uiso   1.00
C194   C     0.40013   0.27173   0.91319   0.00000  Uiso   1.00
C195   C     0.40235   0.33245   0.94235   0.00000  Uiso   1.00
C196   C     0.46030   0.36401   0.93860   0.00000  Uiso   1.00
C197   C     0.54278   0.43501   0.94612   0.00000  Uiso   1.00
C198   C     0.44068   0.17687   0.85291   0.00000  Uiso   1.00
C199   C     0.42208   0.14647   0.94628   0.00000  Uiso   1.00
C200   C     0.45330   0.09631   0.99705   0.00000  Uiso   1.00
C201   C     0.42885   0.07533   0.08085   0.00000  Uiso   1.00
C202   C     0.37828   0.17616   0.77116   0.00000  Uiso   1.00
C203   C     0.37268   0.15098   0.67470   0.00000  Uiso   1.00
C204   C     0.31136   0.15500   0.61107   0.00000  Uiso   1.00
C205   C     0.45387   0.24354   0.88140   0.00000  Uiso   1.00
C206   C     0.51182   0.27502   0.87759   0.00000  Uiso   1.00
C207   C     0.51413   0.33577   0.90675   0.00000  Uiso   1.00
H208   H     0.29990   0.25072   0.93620   0.00000  Uiso   1.00
H209   H     0.30224   0.17557   0.08639   0.00000  Uiso   1.00
H210   H     0.22164   0.23024   0.76408   0.00000  Uiso   1.00
H211   H     0.36076   0.35425   0.96695   0.00000  Uiso   1.00
H212   H     0.32853   0.07981   0.23886   0.00000  Uiso   1.00
H213   H     0.15857   0.19509   0.55925   0.00000  Uiso   1.00
H214   H     0.45193   0.45660   0.98703   0.00000  Uiso   1.00
H215   H     0.48252   0.15492   0.82816   0.00000  Uiso   1.00
H216   H     0.49489   0.07451   0.97243   0.00000  Uiso   1.00
H217   H     0.41428   0.12917   0.65012   0.00000  Uiso   1.00
H218   H     0.55340   0.25319   0.85299   0.00000  Uiso   1.00
H219   H     0.48489   0.99777   0.14636   0.00000  Uiso   1.00
H220   H     0.31492   0.11306   0.46674   0.00000  Uiso   1.00
H221   H     0.60829   0.37457   0.89453   0.00000  Uiso   1.00
O222   O     0.41154   0.98761   0.28944   0.00000  Uiso   1.00
O223   O     0.18856   0.13887   0.39781   0.00000  Uiso   1.00
O224   O     0.57344   0.48196   0.95906   0.00000  Uiso   1.00
N225   N     0.36364   0.07154   0.19730   0.00000  Uiso   1.00
N226   N     0.20473   0.17932   0.56191   0.00000  Uiso   1.00
N227   N     0.47899   0.42381   0.96183   0.00000  Uiso   1.00
N228   N     0.44778   0.02740   0.14753   0.00000  Uiso   1.00
N229   N     0.28887   0.13518   0.51214   0.00000  Uiso   1.00
N230   N     0.56313   0.37967   0.91206   0.00000  Uiso   1.00
C231   C     0.84174   0.72877   0.91145   0.00000  Uiso   1.00
C232   C     0.86834   0.67466   0.97808   0.00000  Uiso   1.00
C233   C     0.84384   0.65374   0.06181   0.00000  Uiso   1.00
C234   C     0.87501   0.60357   0.11269   0.00000  Uiso   1.00
C235   C     0.90813   0.52382   0.22095   0.00000  Uiso   1.00
C236   C     0.82454   0.70435   0.80296   0.00000  Uiso   1.00
C237   C     0.76321   0.70841   0.73946   0.00000  Uiso   1.00
C238   C     0.75752   0.68324   0.64292   0.00000  Uiso   1.00
C239   C     0.72265   0.64963   0.47928   0.00000  Uiso   1.00
C240   C     0.90013   0.77173   0.91319   0.00000  Uiso   1.00
C241   C     0.90235   0.83245   0.94235   0.00000  Uiso   1.00
C242   C     0.96030   0.86401   0.93860   0.00000  Uiso   1.00
C243   C     0.04278   0.93501   0.94612   0.00000  Uiso   1.00
C244   C     0.94068   0.67687   0.85291   0.00000  Uiso   1.00
C245   C     0.92208   0.64647   0.94628   0.00000  Uiso   1.00
C246   C     0.95330   0.59631   0.99705   0.00000  Uiso   1.00
C247   C     0.92885   0.57533   0.08085   0.00000  Uiso   1.00
C248   C     0.87828   0.67616   0.77116   0.00000  Uiso   1.00
C249   C     0.87268   0.65098   0.67470   0.00000  Uiso   1.00
C250   C     0.81136   0.65500   0.61107   0.00000  Uiso   1.00
C251   C     0.95387   0.74354   0.88140   0.00000  Uiso   1.00
C252   C     0.01182   0.77502   0.87759   0.00000  Uiso   1.00
C253   C     0.01413   0.83577   0.90675   0.00000  Uiso   1.00
H254   H     0.79990   0.75072   0.93620   0.00000  Uiso   1.00
H255   H     0.80224   0.67557   0.08639   0.00000  Uiso   1.00
H256   H     0.72164   0.73024   0.76408   0.00000  Uiso   1.00
H257   H     0.86076   0.85425   0.96695   0.00000  Uiso   1.00
H258   H     0.82853   0.57981   0.23886   0.00000  Uiso   1.00
H259   H     0.65857   0.69509   0.55925   0.00000  Uiso   1.00
H260   H     0.95193   0.95660   0.98703   0.00000  Uiso   1.00
H261   H     0.98252   0.65492   0.82816   0.00000  Uiso   1.00
H262   H     0.99489   0.57451   0.97243   0.00000  Uiso   1.00
H263   H     0.91428   0.62917   0.65012   0.00000  Uiso   1.00
H264   H     0.05340   0.75319   0.85299   0.00000  Uiso   1.00
H265   H     0.98489   0.49777   0.14636   0.00000  Uiso   1.00
H266   H     0.81492   0.61306   0.46674   0.00000  Uiso   1.00
H267   H     0.10829   0.87457   0.89453   0.00000  Uiso   1.00
O268   O     0.91154   0.48761   0.28944   0.00000  Uiso   1.00
O269   O     0.68856   0.63887   0.39781   0.00000  Uiso   1.00
O270   O     0.07344   0.98196   0.95906   0.00000  Uiso   1.00
N271   N     0.86364   0.57154   0.19730   0.00000  Uiso   1.00
N272   N     0.70473   0.67932   0.56191   0.00000  Uiso   1.00
N273   N     0.97899   0.92381   0.96183   0.00000  Uiso   1.00
N274   N     0.94778   0.52740   0.14753   0.00000  Uiso   1.00
N275   N     0.78887   0.63518   0.51214   0.00000  Uiso   1.00
N276   N     0.06313   0.87967   0.91206   0.00000  Uiso   1.00
C277   C     0.65826   0.22877   0.58855   0.00000  Uiso   1.00
C278   C     0.63166   0.17466   0.52192   0.00000  Uiso   1.00
C279   C     0.65616   0.15374   0.43819   0.00000  Uiso   1.00
C280   C     0.62499   0.10357   0.38731   0.00000  Uiso   1.00
C281   C     0.59187   0.02382   0.27905   0.00000  Uiso   1.00
C282   C     0.67546   0.20435   0.69704   0.00000  Uiso   1.00
C283   C     0.73679   0.20841   0.76054   0.00000  Uiso   1.00
C284   C     0.74248   0.18324   0.85708   0.00000  Uiso   1.00
C285   C     0.77735   0.14963   0.02072   0.00000  Uiso   1.00
C286   C     0.59987   0.27173   0.58681   0.00000  Uiso   1.00
C287   C     0.59765   0.33245   0.55765   0.00000  Uiso   1.00
C288   C     0.53970   0.36401   0.56140   0.00000  Uiso   1.00
C289   C     0.45722   0.43501   0.55388   0.00000  Uiso   1.00
C290   C     0.55932   0.17687   0.64709   0.00000  Uiso   1.00
C291   C     0.57792   0.14647   0.55372   0.00000  Uiso   1.00
C292   C     0.54670   0.09631   0.50295   0.00000  Uiso   1.00
C293   C     0.57115   0.07533   0.41915   0.00000  Uiso   1.00
C294   C     0.62172   0.17616   0.72884   0.00000  Uiso   1.00
C295   C     0.62732   0.15098   0.82530   0.00000  Uiso   1.00
C296   C     0.68864   0.15500   0.88893   0.00000  Uiso   1.00
C297   C     0.54613   0.24354   0.61860   0.00000  Uiso   1.00
C298   C     0.48818   0.27502   0.62241   0.00000  Uiso   1.00
C299   C     0.48587   0.33577   0.59325   0.00000  Uiso   1.00
H300   H     0.70010   0.25072   0.56380   0.00000  Uiso   1.00
H301   H     0.69776   0.17557   0.41361   0.00000  Uiso   1.00
H302   H     0.77836   0.23024   0.73592   0.00000  Uiso   1.00
H303   H     0.63924   0.35425   0.53305   0.00000  Uiso   1.00
H304   H     0.67147   0.07981   0.26114   0.00000  Uiso   1.00
H305   H     0.84143   0.19509   0.94075   0.00000  Uiso   1.00
H306   H     0.54807   0.45660   0.51297   0.00000  Uiso   1.00
H307   H     0.51748   0.15492   0.67184   0.00000  Uiso   1.00
H308   H     0.50511   0.07451   0.52757   0.00000  Uiso   1.00
H309   H     0.58572   0.12917   0.84988   0.00000  Uiso   1.00
H310   H     0.44660   0.25319   0.64701   0.00000  Uiso   1.00
H311   H     0.51511   0.99777   0.35364   0.00000  Uiso   1.00
H312   H     0.68508   0.11306   0.03326   0.00000  Uiso   1.00
H313   H     0.39171   0.37457   0.60547   0.00000  Uiso   1.00
O314   O     0.58846   0.98761   0.21056   0.00000  Uiso   1.00
O315   O     0.81144   0.13887   0.10219   0.00000  Uiso   1.00
O316   O     0.42656   0.48196   0.54094   0.00000  Uiso   1.00
N317   N     0.63636   0.07154   0.30270   0.00000  Uiso   1.00
N318   N     0.79527   0.17932   0.93809   0.00000  Uiso   1.00
N319   N     0.52101   0.42381   0.53817   0.00000  Uiso   1.00
N320   N     0.55222   0.02740   0.35247   0.00000  Uiso   1.00
N321   N     0.71113   0.13518   0.98786   0.00000  Uiso   1.00
N322   N     0.43687   0.37967   0.58794   0.00000  Uiso   1.00
C323   C     0.15826   0.72877   0.58855   0.00000  Uiso   1.00
C324   C     0.13166   0.67466   0.52192   0.00000  Uiso   1.00
C325   C     0.15616   0.65374   0.43819   0.00000  Uiso   1.00
C326   C     0.12499   0.60357   0.38731   0.00000  Uiso   1.00
C327   C     0.09187   0.52382   0.27905   0.00000  Uiso   1.00
C328   C     0.17546   0.70435   0.69704   0.00000  Uiso   1.00
C329   C     0.23679   0.70841   0.76054   0.00000  Uiso   1.00
C330   C     0.24248   0.68324   0.85708   0.00000  Uiso   1.00
C331   C     0.27735   0.64963   0.02072   0.00000  Uiso   1.00
C332   C     0.09987   0.77173   0.58681   0.00000  Uiso   1.00
C333   C     0.09765   0.83245   0.55765   0.00000  Uiso   1.00
C334   C     0.03970   0.86401   0.56140   0.00000  Uiso   1.00
C335   C     0.95722   0.93501   0.55388   0.00000  Uiso   1.00
C336   C     0.05932   0.67687   0.64709   0.00000  Uiso   1.00
C337   C     0.07792   0.64647   0.55372   0.00000  Uiso   1.00
C338   C     0.04670   0.59631   0.50295   0.00000  Uiso   1.00
C339   C     0.07115   0.57533   0.41915   0.00000  Uiso   1.00
C340   C     0.12172   0.67616   0.72884   0.00000  Uiso   1.00
C341   C     0.12732   0.65098   0.82530   0.00000  Uiso   1.00
C342   C     0.18864   0.65500   0.88893   0.00000  Uiso   1.00
C343   C     0.04613   0.74354   0.61860   0.00000  Uiso   1.00
C344   C     0.98818   0.77502   0.62241   0.00000  Uiso   1.00
C345   C     0.98587   0.83577   0.59325   0.00000  Uiso   1.00
H346   H     0.20010   0.75072   0.56380   0.00000  Uiso   1.00
H347   H     0.19776   0.67557   0.41361   0.00000  Uiso   1.00
H348   H     0.27836   0.73024   0.73592   0.00000  Uiso   1.00
H349   H     0.13924   0.85425   0.53305   0.00000  Uiso   1.00
H350   H     0.17147   0.57981   0.26114   0.00000  Uiso   1.00
H351   H     0.34143   0.69509   0.94075   0.00000  Uiso   1.00
H352   H     0.04807   0.95660   0.51297   0.00000  Uiso   1.00
H353   H     0.01748   0.65492   0.67184   0.00000  Uiso   1.00
H354   H     0.00511   0.57451   0.52757   0.00000  Uiso   1.00
H355   H     0.08572   0.62917   0.84988   0.00000  Uiso   1.00
H356   H     0.94660   0.75319   0.64701   0.00000  Uiso   1.00
H357   H     0.01511   0.49777   0.35364   0.00000  Uiso   1.00
H358   H     0.18508   0.61306   0.03326   0.00000  Uiso   1.00
H359   H     0.89171   0.87457   0.60547   0.00000  Uiso   1.00
O360   O     0.08846   0.48761   0.21056   0.00000  Uiso   1.00
O361   O     0.31144   0.63887   0.10219   0.00000  Uiso   1.00
O362   O     0.92656   0.98196   0.54094   0.00000  Uiso   1.00
N363   N     0.13636   0.57154   0.30270   0.00000  Uiso   1.00
N364   N     0.29527   0.67932   0.93809   0.00000  Uiso   1.00
N365   N     0.02101   0.92381   0.53817   0.00000  Uiso   1.00
N366   N     0.05222   0.52740   0.35247   0.00000  Uiso   1.00
N367   N     0.21113   0.63518   0.98786   0.00000  Uiso   1.00
N368   N     0.93687   0.87967   0.58794   0.00000  Uiso   1.00
