data_job_01800
_audit_creation_date              2018-12-19
_audit_creation_method            'Materials Studio'
_symmetry_space_group_name_H-M    'P1'
_symmetry_Int_Tables_number       1
_symmetry_cell_setting            triclinic
loop_
_symmetry_equiv_pos_as_xyz
  x,y,z
_cell_length_a                    9.3751
_cell_length_b                    12.5149
_cell_length_c                    12.8526
_cell_angle_alpha                 109.9449
_cell_angle_beta                  96.7694
_cell_angle_gamma                 78.3450
loop_
_atom_site_label
_atom_site_type_symbol
_atom_site_fract_x
_atom_site_fract_y
_atom_site_fract_z
_atom_site_U_iso_or_equiv
_atom_site_adp_type
_atom_site_occupancy
C1     C     0.68344   0.18484   0.88737   0.00000  Uiso   1.00
C2     C     0.84657   0.18768   0.90084   0.00000  Uiso   1.00
C3     C     0.93177   0.20143   0.99888   0.00000  Uiso   1.00
C4     C     0.07884   0.20172   0.99397   0.00000  Uiso   1.00
C5     C     0.32306   0.20816   0.03003   0.00000  Uiso   1.00
C6     C     0.61361   0.27950   0.83843   0.00000  Uiso   1.00
C7     C     0.50294   0.37043   0.88399   0.00000  Uiso   1.00
C8     C     0.45389   0.44800   0.82653   0.00000  Uiso   1.00
C9     C     0.33637   0.59694   0.76564   0.00000  Uiso   1.00
C10    C     0.66529   0.07094   0.79738   0.00000  Uiso   1.00
C11    C     0.59803   0.98654   0.80842   0.00000  Uiso   1.00
C12    C     0.59247   0.88852   0.71640   0.00000  Uiso   1.00
C13    C     0.55518   0.71365   0.59179   0.00000  Uiso   1.00
C14    C     0.79311   0.16089   0.70430   0.00000  Uiso   1.00
C15    C     0.90613   0.17467   0.80140   0.00000  Uiso   1.00
C16    C     0.05311   0.17493   0.79634   0.00000  Uiso   1.00
C17    C     0.13852   0.18868   0.89436   0.00000  Uiso   1.00
C18    C     0.67317   0.26649   0.73899   0.00000  Uiso   1.00
C19    C     0.62427   0.34393   0.68144   0.00000  Uiso   1.00
C20    C     0.51356   0.43496   0.72691   0.00000  Uiso   1.00
C21    C     0.72486   0.05793   0.69795   0.00000  Uiso   1.00
C22    C     0.71938   0.96003   0.60588   0.00000  Uiso   1.00
C23    C     0.65214   0.87549   0.61678   0.00000  Uiso   1.00
H24    H     0.63706   0.19498   0.96478   0.00000  Uiso   1.00
H25    H     0.88563   0.21151   0.07582   0.00000  Uiso   1.00
H26    H     0.45686   0.38047   0.96093   0.00000  Uiso   1.00
H27    H     0.55195   0.99664   0.88539   0.00000  Uiso   1.00
H28    H     0.18748   0.22415   0.15508   0.00000  Uiso   1.00
H29    H     0.28335   0.58039   0.91282   0.00000  Uiso   1.00
H30    H     0.48386   0.77100   0.75351   0.00000  Uiso   1.00
H31    H     0.83948   0.15076   0.62688   0.00000  Uiso   1.00
H32    H     0.09917   0.16486   0.71938   0.00000  Uiso   1.00
H33    H     0.67039   0.33383   0.60449   0.00000  Uiso   1.00
H34    H     0.76548   0.94999   0.52895   0.00000  Uiso   1.00
H35    H     0.36079   0.18629   0.86578   0.00000  Uiso   1.00
H36    H     0.45665   0.54253   0.62352   0.00000  Uiso   1.00
H37    H     0.65718   0.73314   0.46421   0.00000  Uiso   1.00
O38    O     0.44131   0.21533   0.07738   0.00000  Uiso   1.00
O39    O     0.25510   0.68270   0.75954   0.00000  Uiso   1.00
O40    O     0.51818   0.62079   0.55053   0.00000  Uiso   1.00
N41    N     0.19264   0.21328   0.07430   0.00000  Uiso   1.00
N42    N     0.34734   0.54636   0.84781   0.00000  Uiso   1.00
N43    N     0.53477   0.78965   0.69886   0.00000  Uiso   1.00
N44    N     0.28590   0.19290   0.91863   0.00000  Uiso   1.00
N45    N     0.44060   0.52598   0.69214   0.00000  Uiso   1.00
N46    N     0.62803   0.76928   0.54319   0.00000  Uiso   1.00
C47    C     0.31656   0.81516   0.11263   0.00000  Uiso   1.00
C48    C     0.15343   0.81232   0.09916   0.00000  Uiso   1.00
C49    C     0.06823   0.79857   0.00112   0.00000  Uiso   1.00
C50    C     0.92116   0.79828   0.00603   0.00000  Uiso   1.00
C51    C     0.67694   0.79184   0.96997   0.00000  Uiso   1.00
C52    C     0.38639   0.72050   0.16157   0.00000  Uiso   1.00
C53    C     0.49706   0.62957   0.11601   0.00000  Uiso   1.00
C54    C     0.54611   0.55200   0.17347   0.00000  Uiso   1.00
C55    C     0.66363   0.40306   0.23436   0.00000  Uiso   1.00
C56    C     0.33471   0.92906   0.20262   0.00000  Uiso   1.00
C57    C     0.40197   0.01346   0.19158   0.00000  Uiso   1.00
C58    C     0.40753   0.11148   0.28360   0.00000  Uiso   1.00
C59    C     0.44482   0.28635   0.40821   0.00000  Uiso   1.00
C60    C     0.20689   0.83911   0.29570   0.00000  Uiso   1.00
C61    C     0.09387   0.82533   0.19860   0.00000  Uiso   1.00
C62    C     0.94689   0.82507   0.20366   0.00000  Uiso   1.00
C63    C     0.86148   0.81132   0.10564   0.00000  Uiso   1.00
C64    C     0.32683   0.73351   0.26101   0.00000  Uiso   1.00
C65    C     0.37573   0.65607   0.31856   0.00000  Uiso   1.00
C66    C     0.48644   0.56504   0.27309   0.00000  Uiso   1.00
C67    C     0.27514   0.94207   0.30205   0.00000  Uiso   1.00
C68    C     0.28062   0.03997   0.39412   0.00000  Uiso   1.00
C69    C     0.34786   0.12451   0.38322   0.00000  Uiso   1.00
H70    H     0.36294   0.80502   0.03522   0.00000  Uiso   1.00
H71    H     0.11437   0.78849   0.92418   0.00000  Uiso   1.00
H72    H     0.54314   0.61953   0.03907   0.00000  Uiso   1.00
H73    H     0.44805   0.00336   0.11461   0.00000  Uiso   1.00
H74    H     0.81252   0.77585   0.84492   0.00000  Uiso   1.00
H75    H     0.71665   0.41961   0.08718   0.00000  Uiso   1.00
H76    H     0.51614   0.22900   0.24649   0.00000  Uiso   1.00
H77    H     0.16052   0.84924   0.37312   0.00000  Uiso   1.00
H78    H     0.90083   0.83514   0.28062   0.00000  Uiso   1.00
H79    H     0.32961   0.66617   0.39551   0.00000  Uiso   1.00
H80    H     0.23452   0.05001   0.47105   0.00000  Uiso   1.00
H81    H     0.63921   0.81371   0.13422   0.00000  Uiso   1.00
H82    H     0.54335   0.45747   0.37648   0.00000  Uiso   1.00
H83    H     0.34282   0.26686   0.53579   0.00000  Uiso   1.00
O84    O     0.55869   0.78467   0.92262   0.00000  Uiso   1.00
O85    O     0.74490   0.31730   0.24046   0.00000  Uiso   1.00
O86    O     0.48182   0.37921   0.44947   0.00000  Uiso   1.00
N87    N     0.80736   0.78672   0.92570   0.00000  Uiso   1.00
N88    N     0.65266   0.45364   0.15219   0.00000  Uiso   1.00
N89    N     0.46523   0.21035   0.30114   0.00000  Uiso   1.00
N90    N     0.71410   0.80710   0.08137   0.00000  Uiso   1.00
N91    N     0.55940   0.47402   0.30786   0.00000  Uiso   1.00
N92    N     0.37197   0.23072   0.45681   0.00000  Uiso   1.00
