data_job_02201
_audit_creation_date              2018-12-19
_audit_creation_method            'Materials Studio'
_symmetry_space_group_name_H-M    'P1'
_symmetry_Int_Tables_number       1
_symmetry_cell_setting            triclinic
loop_
_symmetry_equiv_pos_as_xyz
  x,y,z
_cell_length_a                    22.7211
_cell_length_b                    22.8516
_cell_length_c                    11.1387
_cell_angle_alpha                 90.0000
_cell_angle_beta                  90.0000
_cell_angle_gamma                 90.0000
loop_
_atom_site_label
_atom_site_type_symbol
_atom_site_fract_x
_atom_site_fract_y
_atom_site_fract_z
_atom_site_U_iso_or_equiv
_atom_site_adp_type
_atom_site_occupancy
C1     C     0.91789   0.14158   0.63230   0.00000  Uiso   1.00
C2     C     0.89786   0.07789   0.63339   0.00000  Uiso   1.00
C3     C     0.88948   0.04292   0.53298   0.00000  Uiso   1.00
C4     C     0.87102   0.98583   0.55289   0.00000  Uiso   1.00
C5     C     0.84137   0.89018   0.53692   0.00000  Uiso   1.00
C6     C     0.87066   0.17585   0.69951   0.00000  Uiso   1.00
C7     C     0.83943   0.22325   0.65468   0.00000  Uiso   1.00
C8     C     0.79808   0.24862   0.73027   0.00000  Uiso   1.00
C9     C     0.72623   0.30510   0.81697   0.00000  Uiso   1.00
C10    C     0.97288   0.14412   0.71060   0.00000  Uiso   1.00
C11    C     0.02759   0.16486   0.67512   0.00000  Uiso   1.00
C12    C     0.07230   0.16352   0.76005   0.00000  Uiso   1.00
C13    C     0.15916   0.17073   0.86398   0.00000  Uiso   1.00
C14    C     0.89999   0.10236   0.84624   0.00000  Uiso   1.00
C15    C     0.88814   0.05659   0.74960   0.00000  Uiso   1.00
C16    C     0.86968   0.99953   0.76968   0.00000  Uiso   1.00
C17    C     0.86128   0.96448   0.66931   0.00000  Uiso   1.00
C18    C     0.86094   0.15455   0.81571   0.00000  Uiso   1.00
C19    C     0.81963   0.17986   0.89139   0.00000  Uiso   1.00
C20    C     0.78834   0.22729   0.84669   0.00000  Uiso   1.00
C21    C     0.96316   0.12282   0.82681   0.00000  Uiso   1.00
C22    C     0.00779   0.12146   0.91182   0.00000  Uiso   1.00
C23    C     0.06256   0.14219   0.87647   0.00000  Uiso   1.00
H24    H     0.92546   0.15817   0.54183   0.00000  Uiso   1.00
H25    H     0.89701   0.05942   0.44306   0.00000  Uiso   1.00
H26    H     0.84697   0.23973   0.56475   0.00000  Uiso   1.00
H27    H     0.03510   0.18134   0.58518   0.00000  Uiso   1.00
H28    H     0.86116   0.94056   0.38480   0.00000  Uiso   1.00
H29    H     0.75566   0.32076   0.64141   0.00000  Uiso   1.00
H30    H     0.15237   0.19763   0.68449   0.00000  Uiso   1.00
H31    H     0.89243   0.08578   0.93672   0.00000  Uiso   1.00
H32    H     0.86216   0.98306   0.85962   0.00000  Uiso   1.00
H33    H     0.81212   0.16337   0.98131   0.00000  Uiso   1.00
H34    H     0.00025   0.10498   0.00174   0.00000  Uiso   1.00
H35    H     0.83287   0.87859   0.72290   0.00000  Uiso   1.00
H36    H     0.72738   0.25879   0.97951   0.00000  Uiso   1.00
H37    H     0.12409   0.13565   0.02259   0.00000  Uiso   1.00
O38    O     0.82769   0.84332   0.49600   0.00000  Uiso   1.00
O39    O     0.68929   0.34213   0.83268   0.00000  Uiso   1.00
O40    O     0.20976   0.18058   0.88919   0.00000  Uiso   1.00
N41    N     0.85867   0.94007   0.47495   0.00000  Uiso   1.00
N42    N     0.76002   0.29553   0.71486   0.00000  Uiso   1.00
N43    N     0.13091   0.18042   0.75515   0.00000  Uiso   1.00
N44    N     0.84345   0.90672   0.65688   0.00000  Uiso   1.00
N45    N     0.74481   0.26218   0.89679   0.00000  Uiso   1.00
N46    N     0.11570   0.14707   0.93708   0.00000  Uiso   1.00
C47    C     0.58211   0.85842   0.13230   0.00000  Uiso   1.00
C48    C     0.60214   0.92211   0.13339   0.00000  Uiso   1.00
C49    C     0.61052   0.95708   0.03298   0.00000  Uiso   1.00
C50    C     0.62898   0.01417   0.05289   0.00000  Uiso   1.00
C51    C     0.65863   0.10982   0.03692   0.00000  Uiso   1.00
C52    C     0.62934   0.82415   0.19951   0.00000  Uiso   1.00
C53    C     0.66057   0.77675   0.15468   0.00000  Uiso   1.00
C54    C     0.70192   0.75138   0.23027   0.00000  Uiso   1.00
C55    C     0.77377   0.69490   0.31697   0.00000  Uiso   1.00
C56    C     0.52712   0.85588   0.21060   0.00000  Uiso   1.00
C57    C     0.47241   0.83514   0.17512   0.00000  Uiso   1.00
C58    C     0.42770   0.83648   0.26005   0.00000  Uiso   1.00
C59    C     0.34084   0.82927   0.36398   0.00000  Uiso   1.00
C60    C     0.60001   0.89764   0.34624   0.00000  Uiso   1.00
C61    C     0.61186   0.94341   0.24960   0.00000  Uiso   1.00
C62    C     0.63032   0.00047   0.26968   0.00000  Uiso   1.00
C63    C     0.63872   0.03552   0.16931   0.00000  Uiso   1.00
C64    C     0.63906   0.84545   0.31571   0.00000  Uiso   1.00
C65    C     0.68037   0.82014   0.39139   0.00000  Uiso   1.00
C66    C     0.71166   0.77271   0.34669   0.00000  Uiso   1.00
C67    C     0.53684   0.87718   0.32681   0.00000  Uiso   1.00
C68    C     0.49221   0.87854   0.41182   0.00000  Uiso   1.00
C69    C     0.43744   0.85781   0.37647   0.00000  Uiso   1.00
H70    H     0.57454   0.84183   0.04183   0.00000  Uiso   1.00
H71    H     0.60299   0.94058   0.94306   0.00000  Uiso   1.00
H72    H     0.65303   0.76027   0.06475   0.00000  Uiso   1.00
H73    H     0.46490   0.81866   0.08518   0.00000  Uiso   1.00
H74    H     0.63884   0.05944   0.88480   0.00000  Uiso   1.00
H75    H     0.74434   0.67924   0.14141   0.00000  Uiso   1.00
H76    H     0.34763   0.80237   0.18449   0.00000  Uiso   1.00
H77    H     0.60757   0.91422   0.43672   0.00000  Uiso   1.00
H78    H     0.63784   0.01694   0.35962   0.00000  Uiso   1.00
H79    H     0.68788   0.83663   0.48131   0.00000  Uiso   1.00
H80    H     0.49975   0.89502   0.50174   0.00000  Uiso   1.00
H81    H     0.66713   0.12141   0.22290   0.00000  Uiso   1.00
H82    H     0.77262   0.74121   0.47951   0.00000  Uiso   1.00
H83    H     0.37591   0.86435   0.52259   0.00000  Uiso   1.00
O84    O     0.67231   0.15668   0.99600   0.00000  Uiso   1.00
O85    O     0.81071   0.65787   0.33268   0.00000  Uiso   1.00
O86    O     0.29024   0.81942   0.38919   0.00000  Uiso   1.00
N87    N     0.64133   0.05993   0.97495   0.00000  Uiso   1.00
N88    N     0.73998   0.70447   0.21486   0.00000  Uiso   1.00
N89    N     0.36909   0.81958   0.25515   0.00000  Uiso   1.00
N90    N     0.65655   0.09328   0.15688   0.00000  Uiso   1.00
N91    N     0.75519   0.73782   0.39679   0.00000  Uiso   1.00
N92    N     0.38430   0.85293   0.43708   0.00000  Uiso   1.00
C93    C     0.08211   0.64158   0.86770   0.00000  Uiso   1.00
C94    C     0.10214   0.57789   0.86661   0.00000  Uiso   1.00
C95    C     0.11052   0.54292   0.96702   0.00000  Uiso   1.00
C96    C     0.12898   0.48583   0.94711   0.00000  Uiso   1.00
C97    C     0.15863   0.39018   0.96308   0.00000  Uiso   1.00
C98    C     0.12934   0.67585   0.80049   0.00000  Uiso   1.00
C99    C     0.16057   0.72325   0.84532   0.00000  Uiso   1.00
C100   C     0.20192   0.74862   0.76973   0.00000  Uiso   1.00
C101   C     0.27377   0.80510   0.68303   0.00000  Uiso   1.00
C102   C     0.02712   0.64412   0.78940   0.00000  Uiso   1.00
C103   C     0.97241   0.66486   0.82488   0.00000  Uiso   1.00
C104   C     0.92770   0.66352   0.73995   0.00000  Uiso   1.00
C105   C     0.84084   0.67073   0.63602   0.00000  Uiso   1.00
C106   C     0.10001   0.60236   0.65376   0.00000  Uiso   1.00
C107   C     0.11186   0.55659   0.75040   0.00000  Uiso   1.00
C108   C     0.13032   0.49953   0.73032   0.00000  Uiso   1.00
C109   C     0.13872   0.46448   0.83069   0.00000  Uiso   1.00
C110   C     0.13906   0.65455   0.68429   0.00000  Uiso   1.00
C111   C     0.18037   0.67986   0.60861   0.00000  Uiso   1.00
C112   C     0.21166   0.72729   0.65331   0.00000  Uiso   1.00
C113   C     0.03684   0.62282   0.67319   0.00000  Uiso   1.00
C114   C     0.99221   0.62146   0.58818   0.00000  Uiso   1.00
C115   C     0.93744   0.64219   0.62353   0.00000  Uiso   1.00
H116   H     0.07454   0.65817   0.95817   0.00000  Uiso   1.00
H117   H     0.10299   0.55942   0.05694   0.00000  Uiso   1.00
H118   H     0.15303   0.73973   0.93525   0.00000  Uiso   1.00
H119   H     0.96490   0.68134   0.91482   0.00000  Uiso   1.00
H120   H     0.13884   0.44056   0.11520   0.00000  Uiso   1.00
H121   H     0.24434   0.82076   0.85859   0.00000  Uiso   1.00
H122   H     0.84763   0.69763   0.81551   0.00000  Uiso   1.00
H123   H     0.10757   0.58578   0.56328   0.00000  Uiso   1.00
H124   H     0.13784   0.48306   0.64038   0.00000  Uiso   1.00
H125   H     0.18788   0.66337   0.51869   0.00000  Uiso   1.00
H126   H     0.99975   0.60498   0.49826   0.00000  Uiso   1.00
H127   H     0.16713   0.37859   0.77710   0.00000  Uiso   1.00
H128   H     0.27262   0.75879   0.52049   0.00000  Uiso   1.00
H129   H     0.87591   0.63565   0.47741   0.00000  Uiso   1.00
O130   O     0.17231   0.34332   0.00400   0.00000  Uiso   1.00
O131   O     0.31071   0.84213   0.66732   0.00000  Uiso   1.00
O132   O     0.79024   0.68058   0.61081   0.00000  Uiso   1.00
N133   N     0.14133   0.44007   0.02505   0.00000  Uiso   1.00
N134   N     0.23998   0.79553   0.78514   0.00000  Uiso   1.00
N135   N     0.86909   0.68042   0.74485   0.00000  Uiso   1.00
N136   N     0.15655   0.40672   0.84312   0.00000  Uiso   1.00
N137   N     0.25519   0.76218   0.60321   0.00000  Uiso   1.00
N138   N     0.88430   0.64707   0.56292   0.00000  Uiso   1.00
C139   C     0.41789   0.35842   0.36770   0.00000  Uiso   1.00
C140   C     0.39786   0.42211   0.36661   0.00000  Uiso   1.00
C141   C     0.38948   0.45708   0.46702   0.00000  Uiso   1.00
C142   C     0.37102   0.51417   0.44711   0.00000  Uiso   1.00
C143   C     0.34137   0.60982   0.46308   0.00000  Uiso   1.00
C144   C     0.37066   0.32415   0.30049   0.00000  Uiso   1.00
C145   C     0.33943   0.27675   0.34532   0.00000  Uiso   1.00
C146   C     0.29808   0.25138   0.26973   0.00000  Uiso   1.00
C147   C     0.22623   0.19490   0.18303   0.00000  Uiso   1.00
C148   C     0.47288   0.35588   0.28940   0.00000  Uiso   1.00
C149   C     0.52759   0.33514   0.32488   0.00000  Uiso   1.00
C150   C     0.57230   0.33648   0.23995   0.00000  Uiso   1.00
C151   C     0.65916   0.32927   0.13602   0.00000  Uiso   1.00
C152   C     0.39999   0.39764   0.15376   0.00000  Uiso   1.00
C153   C     0.38814   0.44341   0.25040   0.00000  Uiso   1.00
C154   C     0.36968   0.50047   0.23032   0.00000  Uiso   1.00
C155   C     0.36128   0.53552   0.33069   0.00000  Uiso   1.00
C156   C     0.36094   0.34545   0.18429   0.00000  Uiso   1.00
C157   C     0.31963   0.32014   0.10861   0.00000  Uiso   1.00
C158   C     0.28834   0.27271   0.15331   0.00000  Uiso   1.00
C159   C     0.46316   0.37718   0.17319   0.00000  Uiso   1.00
C160   C     0.50779   0.37854   0.08818   0.00000  Uiso   1.00
C161   C     0.56256   0.35781   0.12353   0.00000  Uiso   1.00
H162   H     0.42546   0.34183   0.45817   0.00000  Uiso   1.00
H163   H     0.39701   0.44058   0.55694   0.00000  Uiso   1.00
H164   H     0.34697   0.26027   0.43525   0.00000  Uiso   1.00
H165   H     0.53510   0.31866   0.41482   0.00000  Uiso   1.00
H166   H     0.36116   0.55944   0.61520   0.00000  Uiso   1.00
H167   H     0.25566   0.17924   0.35859   0.00000  Uiso   1.00
H168   H     0.65237   0.30237   0.31551   0.00000  Uiso   1.00
H169   H     0.39243   0.41422   0.06328   0.00000  Uiso   1.00
H170   H     0.36216   0.51694   0.14038   0.00000  Uiso   1.00
H171   H     0.31212   0.33663   0.01869   0.00000  Uiso   1.00
H172   H     0.50025   0.39502   0.99826   0.00000  Uiso   1.00
H173   H     0.33287   0.62141   0.27710   0.00000  Uiso   1.00
H174   H     0.22738   0.24121   0.02049   0.00000  Uiso   1.00
H175   H     0.62409   0.36435   0.97741   0.00000  Uiso   1.00
O176   O     0.32769   0.65668   0.50400   0.00000  Uiso   1.00
O177   O     0.18929   0.15787   0.16732   0.00000  Uiso   1.00
O178   O     0.70976   0.31942   0.11081   0.00000  Uiso   1.00
N179   N     0.35867   0.55993   0.52505   0.00000  Uiso   1.00
N180   N     0.26002   0.20447   0.28514   0.00000  Uiso   1.00
N181   N     0.63091   0.31958   0.24485   0.00000  Uiso   1.00
N182   N     0.34345   0.59328   0.34312   0.00000  Uiso   1.00
N183   N     0.24481   0.23782   0.10321   0.00000  Uiso   1.00
N184   N     0.61570   0.35293   0.06292   0.00000  Uiso   1.00
C185   C     0.08211   0.85842   0.36770   0.00000  Uiso   1.00
C186   C     0.10214   0.92211   0.36661   0.00000  Uiso   1.00
C187   C     0.11052   0.95708   0.46702   0.00000  Uiso   1.00
C188   C     0.12898   0.01417   0.44711   0.00000  Uiso   1.00
C189   C     0.15863   0.10982   0.46308   0.00000  Uiso   1.00
C190   C     0.12934   0.82415   0.30049   0.00000  Uiso   1.00
C191   C     0.16057   0.77675   0.34532   0.00000  Uiso   1.00
C192   C     0.20192   0.75138   0.26973   0.00000  Uiso   1.00
C193   C     0.27377   0.69490   0.18303   0.00000  Uiso   1.00
C194   C     0.02712   0.85588   0.28940   0.00000  Uiso   1.00
C195   C     0.97241   0.83514   0.32488   0.00000  Uiso   1.00
C196   C     0.92770   0.83648   0.23995   0.00000  Uiso   1.00
C197   C     0.84084   0.82927   0.13602   0.00000  Uiso   1.00
C198   C     0.10001   0.89764   0.15376   0.00000  Uiso   1.00
C199   C     0.11186   0.94341   0.25040   0.00000  Uiso   1.00
C200   C     0.13032   0.00047   0.23032   0.00000  Uiso   1.00
C201   C     0.13872   0.03552   0.33069   0.00000  Uiso   1.00
C202   C     0.13906   0.84545   0.18429   0.00000  Uiso   1.00
C203   C     0.18037   0.82014   0.10861   0.00000  Uiso   1.00
C204   C     0.21166   0.77271   0.15331   0.00000  Uiso   1.00
C205   C     0.03684   0.87718   0.17319   0.00000  Uiso   1.00
C206   C     0.99221   0.87854   0.08818   0.00000  Uiso   1.00
C207   C     0.93744   0.85781   0.12353   0.00000  Uiso   1.00
H208   H     0.07454   0.84183   0.45817   0.00000  Uiso   1.00
H209   H     0.10299   0.94058   0.55694   0.00000  Uiso   1.00
H210   H     0.15303   0.76027   0.43525   0.00000  Uiso   1.00
H211   H     0.96490   0.81866   0.41482   0.00000  Uiso   1.00
H212   H     0.13884   0.05944   0.61520   0.00000  Uiso   1.00
H213   H     0.24434   0.67924   0.35859   0.00000  Uiso   1.00
H214   H     0.84763   0.80237   0.31551   0.00000  Uiso   1.00
H215   H     0.10757   0.91422   0.06328   0.00000  Uiso   1.00
H216   H     0.13784   0.01694   0.14038   0.00000  Uiso   1.00
H217   H     0.18788   0.83663   0.01869   0.00000  Uiso   1.00
H218   H     0.99975   0.89502   0.99826   0.00000  Uiso   1.00
H219   H     0.16713   0.12141   0.27710   0.00000  Uiso   1.00
H220   H     0.27262   0.74121   0.02049   0.00000  Uiso   1.00
H221   H     0.87591   0.86435   0.97741   0.00000  Uiso   1.00
O222   O     0.17231   0.15668   0.50400   0.00000  Uiso   1.00
O223   O     0.31071   0.65787   0.16732   0.00000  Uiso   1.00
O224   O     0.79024   0.81942   0.11081   0.00000  Uiso   1.00
N225   N     0.14133   0.05993   0.52505   0.00000  Uiso   1.00
N226   N     0.23998   0.70447   0.28514   0.00000  Uiso   1.00
N227   N     0.86909   0.81958   0.24485   0.00000  Uiso   1.00
N228   N     0.15655   0.09328   0.34312   0.00000  Uiso   1.00
N229   N     0.25519   0.73782   0.10321   0.00000  Uiso   1.00
N230   N     0.88430   0.85293   0.06292   0.00000  Uiso   1.00
C231   C     0.41789   0.14158   0.86770   0.00000  Uiso   1.00
C232   C     0.39786   0.07789   0.86661   0.00000  Uiso   1.00
C233   C     0.38948   0.04292   0.96702   0.00000  Uiso   1.00
C234   C     0.37102   0.98583   0.94711   0.00000  Uiso   1.00
C235   C     0.34137   0.89018   0.96308   0.00000  Uiso   1.00
C236   C     0.37066   0.17585   0.80049   0.00000  Uiso   1.00
C237   C     0.33943   0.22325   0.84532   0.00000  Uiso   1.00
C238   C     0.29808   0.24862   0.76973   0.00000  Uiso   1.00
C239   C     0.22623   0.30510   0.68303   0.00000  Uiso   1.00
C240   C     0.47288   0.14412   0.78940   0.00000  Uiso   1.00
C241   C     0.52759   0.16486   0.82488   0.00000  Uiso   1.00
C242   C     0.57230   0.16352   0.73995   0.00000  Uiso   1.00
C243   C     0.65916   0.17073   0.63602   0.00000  Uiso   1.00
C244   C     0.39999   0.10236   0.65376   0.00000  Uiso   1.00
C245   C     0.38814   0.05659   0.75040   0.00000  Uiso   1.00
C246   C     0.36968   0.99953   0.73032   0.00000  Uiso   1.00
C247   C     0.36128   0.96448   0.83069   0.00000  Uiso   1.00
C248   C     0.36094   0.15455   0.68429   0.00000  Uiso   1.00
C249   C     0.31963   0.17986   0.60861   0.00000  Uiso   1.00
C250   C     0.28834   0.22729   0.65331   0.00000  Uiso   1.00
C251   C     0.46316   0.12282   0.67319   0.00000  Uiso   1.00
C252   C     0.50779   0.12146   0.58818   0.00000  Uiso   1.00
C253   C     0.56256   0.14219   0.62353   0.00000  Uiso   1.00
H254   H     0.42546   0.15817   0.95817   0.00000  Uiso   1.00
H255   H     0.39701   0.05942   0.05694   0.00000  Uiso   1.00
H256   H     0.34697   0.23973   0.93525   0.00000  Uiso   1.00
H257   H     0.53510   0.18134   0.91482   0.00000  Uiso   1.00
H258   H     0.36116   0.94056   0.11520   0.00000  Uiso   1.00
H259   H     0.25566   0.32076   0.85859   0.00000  Uiso   1.00
H260   H     0.65237   0.19763   0.81551   0.00000  Uiso   1.00
H261   H     0.39243   0.08578   0.56328   0.00000  Uiso   1.00
H262   H     0.36216   0.98306   0.64038   0.00000  Uiso   1.00
H263   H     0.31212   0.16337   0.51869   0.00000  Uiso   1.00
H264   H     0.50025   0.10498   0.49826   0.00000  Uiso   1.00
H265   H     0.33287   0.87859   0.77710   0.00000  Uiso   1.00
H266   H     0.22738   0.25879   0.52049   0.00000  Uiso   1.00
H267   H     0.62409   0.13565   0.47741   0.00000  Uiso   1.00
O268   O     0.32769   0.84332   0.00400   0.00000  Uiso   1.00
O269   O     0.18929   0.34213   0.66732   0.00000  Uiso   1.00
O270   O     0.70976   0.18058   0.61081   0.00000  Uiso   1.00
N271   N     0.35867   0.94007   0.02505   0.00000  Uiso   1.00
N272   N     0.26002   0.29553   0.78514   0.00000  Uiso   1.00
N273   N     0.63091   0.18042   0.74485   0.00000  Uiso   1.00
N274   N     0.34345   0.90672   0.84312   0.00000  Uiso   1.00
N275   N     0.24481   0.26218   0.60321   0.00000  Uiso   1.00
N276   N     0.61570   0.14707   0.56292   0.00000  Uiso   1.00
C277   C     0.91789   0.35842   0.13230   0.00000  Uiso   1.00
C278   C     0.89786   0.42211   0.13339   0.00000  Uiso   1.00
C279   C     0.88948   0.45708   0.03298   0.00000  Uiso   1.00
C280   C     0.87102   0.51417   0.05289   0.00000  Uiso   1.00
C281   C     0.84137   0.60982   0.03692   0.00000  Uiso   1.00
C282   C     0.87066   0.32415   0.19951   0.00000  Uiso   1.00
C283   C     0.83943   0.27675   0.15468   0.00000  Uiso   1.00
C284   C     0.79808   0.25138   0.23027   0.00000  Uiso   1.00
C285   C     0.72623   0.19490   0.31697   0.00000  Uiso   1.00
C286   C     0.97288   0.35588   0.21060   0.00000  Uiso   1.00
C287   C     0.02759   0.33514   0.17512   0.00000  Uiso   1.00
C288   C     0.07230   0.33648   0.26005   0.00000  Uiso   1.00
C289   C     0.15916   0.32927   0.36398   0.00000  Uiso   1.00
C290   C     0.89999   0.39764   0.34624   0.00000  Uiso   1.00
C291   C     0.88814   0.44341   0.24960   0.00000  Uiso   1.00
C292   C     0.86968   0.50047   0.26968   0.00000  Uiso   1.00
C293   C     0.86128   0.53552   0.16931   0.00000  Uiso   1.00
C294   C     0.86094   0.34545   0.31571   0.00000  Uiso   1.00
C295   C     0.81963   0.32014   0.39139   0.00000  Uiso   1.00
C296   C     0.78834   0.27271   0.34669   0.00000  Uiso   1.00
C297   C     0.96316   0.37718   0.32681   0.00000  Uiso   1.00
C298   C     0.00779   0.37854   0.41182   0.00000  Uiso   1.00
C299   C     0.06256   0.35781   0.37647   0.00000  Uiso   1.00
H300   H     0.92546   0.34183   0.04183   0.00000  Uiso   1.00
H301   H     0.89701   0.44058   0.94306   0.00000  Uiso   1.00
H302   H     0.84697   0.26027   0.06475   0.00000  Uiso   1.00
H303   H     0.03510   0.31866   0.08518   0.00000  Uiso   1.00
H304   H     0.86116   0.55944   0.88480   0.00000  Uiso   1.00
H305   H     0.75566   0.17924   0.14141   0.00000  Uiso   1.00
H306   H     0.15237   0.30237   0.18449   0.00000  Uiso   1.00
H307   H     0.89243   0.41422   0.43672   0.00000  Uiso   1.00
H308   H     0.86216   0.51694   0.35962   0.00000  Uiso   1.00
H309   H     0.81212   0.33663   0.48131   0.00000  Uiso   1.00
H310   H     0.00025   0.39502   0.50174   0.00000  Uiso   1.00
H311   H     0.83287   0.62141   0.22290   0.00000  Uiso   1.00
H312   H     0.72738   0.24121   0.47951   0.00000  Uiso   1.00
H313   H     0.12409   0.36435   0.52259   0.00000  Uiso   1.00
O314   O     0.82769   0.65668   0.99600   0.00000  Uiso   1.00
O315   O     0.68929   0.15787   0.33268   0.00000  Uiso   1.00
O316   O     0.20976   0.31942   0.38919   0.00000  Uiso   1.00
N317   N     0.85867   0.55993   0.97495   0.00000  Uiso   1.00
N318   N     0.76002   0.20447   0.21486   0.00000  Uiso   1.00
N319   N     0.13091   0.31958   0.25515   0.00000  Uiso   1.00
N320   N     0.84345   0.59328   0.15688   0.00000  Uiso   1.00
N321   N     0.74481   0.23782   0.39679   0.00000  Uiso   1.00
N322   N     0.11570   0.35293   0.43708   0.00000  Uiso   1.00
C323   C     0.58211   0.64158   0.63230   0.00000  Uiso   1.00
C324   C     0.60214   0.57789   0.63339   0.00000  Uiso   1.00
C325   C     0.61052   0.54292   0.53298   0.00000  Uiso   1.00
C326   C     0.62898   0.48583   0.55289   0.00000  Uiso   1.00
C327   C     0.65863   0.39018   0.53692   0.00000  Uiso   1.00
C328   C     0.62934   0.67585   0.69951   0.00000  Uiso   1.00
C329   C     0.66057   0.72325   0.65468   0.00000  Uiso   1.00
C330   C     0.70192   0.74862   0.73027   0.00000  Uiso   1.00
C331   C     0.77377   0.80510   0.81697   0.00000  Uiso   1.00
C332   C     0.52712   0.64412   0.71060   0.00000  Uiso   1.00
C333   C     0.47241   0.66486   0.67512   0.00000  Uiso   1.00
C334   C     0.42770   0.66352   0.76005   0.00000  Uiso   1.00
C335   C     0.34084   0.67073   0.86398   0.00000  Uiso   1.00
C336   C     0.60001   0.60236   0.84624   0.00000  Uiso   1.00
C337   C     0.61186   0.55659   0.74960   0.00000  Uiso   1.00
C338   C     0.63032   0.49953   0.76968   0.00000  Uiso   1.00
C339   C     0.63872   0.46448   0.66931   0.00000  Uiso   1.00
C340   C     0.63906   0.65455   0.81571   0.00000  Uiso   1.00
C341   C     0.68037   0.67986   0.89139   0.00000  Uiso   1.00
C342   C     0.71166   0.72729   0.84669   0.00000  Uiso   1.00
C343   C     0.53684   0.62282   0.82681   0.00000  Uiso   1.00
C344   C     0.49221   0.62146   0.91182   0.00000  Uiso   1.00
C345   C     0.43744   0.64219   0.87647   0.00000  Uiso   1.00
H346   H     0.57454   0.65817   0.54183   0.00000  Uiso   1.00
H347   H     0.60299   0.55942   0.44306   0.00000  Uiso   1.00
H348   H     0.65303   0.73973   0.56475   0.00000  Uiso   1.00
H349   H     0.46490   0.68134   0.58518   0.00000  Uiso   1.00
H350   H     0.63884   0.44056   0.38480   0.00000  Uiso   1.00
H351   H     0.74434   0.82076   0.64141   0.00000  Uiso   1.00
H352   H     0.34763   0.69763   0.68449   0.00000  Uiso   1.00
H353   H     0.60757   0.58578   0.93672   0.00000  Uiso   1.00
H354   H     0.63784   0.48306   0.85962   0.00000  Uiso   1.00
H355   H     0.68788   0.66337   0.98131   0.00000  Uiso   1.00
H356   H     0.49975   0.60498   0.00174   0.00000  Uiso   1.00
H357   H     0.66713   0.37859   0.72290   0.00000  Uiso   1.00
H358   H     0.77262   0.75879   0.97951   0.00000  Uiso   1.00
H359   H     0.37591   0.63565   0.02259   0.00000  Uiso   1.00
O360   O     0.67231   0.34332   0.49600   0.00000  Uiso   1.00
O361   O     0.81071   0.84213   0.83268   0.00000  Uiso   1.00
O362   O     0.29024   0.68058   0.88919   0.00000  Uiso   1.00
N363   N     0.64133   0.44007   0.47495   0.00000  Uiso   1.00
N364   N     0.73998   0.79553   0.71486   0.00000  Uiso   1.00
N365   N     0.36909   0.68042   0.75515   0.00000  Uiso   1.00
N366   N     0.65655   0.40672   0.65688   0.00000  Uiso   1.00
N367   N     0.75519   0.76218   0.89679   0.00000  Uiso   1.00
N368   N     0.38430   0.64707   0.93708   0.00000  Uiso   1.00
