data_job_02725
_audit_creation_date              2018-12-19
_audit_creation_method            'Materials Studio'
_symmetry_space_group_name_H-M    'P1'
_symmetry_Int_Tables_number       1
_symmetry_cell_setting            triclinic
loop_
_symmetry_equiv_pos_as_xyz
  x,y,z
_cell_length_a                    22.6558
_cell_length_b                    10.1943
_cell_length_c                    41.4110
_cell_angle_alpha                 90.0000
_cell_angle_beta                  90.0000
_cell_angle_gamma                 90.0000
loop_
_atom_site_label
_atom_site_type_symbol
_atom_site_fract_x
_atom_site_fract_y
_atom_site_fract_z
_atom_site_U_iso_or_equiv
_atom_site_adp_type
_atom_site_occupancy
C1     C     0.98708   0.18786   0.82760   0.00000  Uiso   1.00
C2     C     0.05079   0.21476   0.81774   0.00000  Uiso   1.00
C3     C     0.07156   0.32963   0.80380   0.00000  Uiso   1.00
C4     C     0.13134   0.33497   0.79655   0.00000  Uiso   1.00
C5     C     0.22454   0.39281   0.78024   0.00000  Uiso   1.00
C6     C     0.96894   0.06310   0.80987   0.00000  Uiso   1.00
C7     C     0.92088   0.05046   0.78933   0.00000  Uiso   1.00
C8     C     0.91175   0.92813   0.77546   0.00000  Uiso   1.00
C9     C     0.87785   0.75049   0.74695   0.00000  Uiso   1.00
C10    C     0.98896   0.15222   0.86335   0.00000  Uiso   1.00
C11    C     0.95773   0.21450   0.88776   0.00000  Uiso   1.00
C12    C     0.96545   0.16718   0.91892   0.00000  Uiso   1.00
C13    C     0.96264   0.12792   0.97344   0.00000  Uiso   1.00
C14    C     0.05632   0.99307   0.83951   0.00000  Uiso   1.00
C15    C     0.08840   0.10895   0.82421   0.00000  Uiso   1.00
C16    C     0.14817   0.11412   0.81698   0.00000  Uiso   1.00
C17    C     0.16902   0.22899   0.80303   0.00000  Uiso   1.00
C18    C     0.00654   0.95730   0.81634   0.00000  Uiso   1.00
C19    C     0.99749   0.83495   0.80250   0.00000  Uiso   1.00
C20    C     0.94943   0.82214   0.78194   0.00000  Uiso   1.00
C21    C     0.02657   0.04642   0.86982   0.00000  Uiso   1.00
C22    C     0.03434   0.99899   0.90094   0.00000  Uiso   1.00
C23    C     0.00313   0.06118   0.92540   0.00000  Uiso   1.00
H24    H     0.95779   0.27022   0.82256   0.00000  Uiso   1.00
H25    H     0.04243   0.41148   0.79879   0.00000  Uiso   1.00
H26    H     0.89178   0.13235   0.78433   0.00000  Uiso   1.00
H27    H     0.92863   0.29637   0.88275   0.00000  Uiso   1.00
H28    H     0.15285   0.52142   0.77529   0.00000  Uiso   1.00
H29    H     0.83517   0.93285   0.74479   0.00000  Uiso   1.00
H30    H     0.91287   0.27870   0.95233   0.00000  Uiso   1.00
H31    H     0.08560   0.91069   0.84455   0.00000  Uiso   1.00
H32    H     0.17726   0.03223   0.82199   0.00000  Uiso   1.00
H33    H     0.02660   0.75310   0.80752   0.00000  Uiso   1.00
H34    H     0.06345   0.91711   0.90594   0.00000  Uiso   1.00
H35    H     0.26228   0.21360   0.79411   0.00000  Uiso   1.00
H36    H     0.94460   0.62503   0.76361   0.00000  Uiso   1.00
H37    H     0.02230   0.97088   0.97115   0.00000  Uiso   1.00
O38    O     0.26555   0.45393   0.76945   0.00000  Uiso   1.00
O39    O     0.84876   0.68175   0.72944   0.00000  Uiso   1.00
O40    O     0.95071   0.13550   0.00173   0.00000  Uiso   1.00
N41    N     0.16603   0.43231   0.78282   0.00000  Uiso   1.00
N42    N     0.86902   0.88203   0.75430   0.00000  Uiso   1.00
N43    N     0.94166   0.20535   0.94833   0.00000  Uiso   1.00
N44    N     0.22492   0.26667   0.79295   0.00000  Uiso   1.00
N45    N     0.92791   0.71640   0.76443   0.00000  Uiso   1.00
N46    N     0.00054   0.03972   0.95846   0.00000  Uiso   1.00
C47    C     0.51292   0.31214   0.32760   0.00000  Uiso   1.00
C48    C     0.44921   0.28524   0.31774   0.00000  Uiso   1.00
C49    C     0.42844   0.17037   0.30380   0.00000  Uiso   1.00
C50    C     0.36866   0.16503   0.29655   0.00000  Uiso   1.00
C51    C     0.27546   0.10719   0.28024   0.00000  Uiso   1.00
C52    C     0.53106   0.43690   0.30987   0.00000  Uiso   1.00
C53    C     0.57912   0.44954   0.28933   0.00000  Uiso   1.00
C54    C     0.58825   0.57187   0.27546   0.00000  Uiso   1.00
C55    C     0.62215   0.74951   0.24695   0.00000  Uiso   1.00
C56    C     0.51104   0.34778   0.36335   0.00000  Uiso   1.00
C57    C     0.54227   0.28550   0.38776   0.00000  Uiso   1.00
C58    C     0.53455   0.33282   0.41892   0.00000  Uiso   1.00
C59    C     0.53736   0.37208   0.47344   0.00000  Uiso   1.00
C60    C     0.44368   0.50693   0.33951   0.00000  Uiso   1.00
C61    C     0.41160   0.39105   0.32421   0.00000  Uiso   1.00
C62    C     0.35183   0.38588   0.31698   0.00000  Uiso   1.00
C63    C     0.33098   0.27101   0.30303   0.00000  Uiso   1.00
C64    C     0.49346   0.54270   0.31634   0.00000  Uiso   1.00
C65    C     0.50251   0.66505   0.30250   0.00000  Uiso   1.00
C66    C     0.55057   0.67786   0.28194   0.00000  Uiso   1.00
C67    C     0.47343   0.45358   0.36982   0.00000  Uiso   1.00
C68    C     0.46566   0.50101   0.40094   0.00000  Uiso   1.00
C69    C     0.49687   0.43882   0.42540   0.00000  Uiso   1.00
H70    H     0.54221   0.22978   0.32256   0.00000  Uiso   1.00
H71    H     0.45757   0.08852   0.29879   0.00000  Uiso   1.00
H72    H     0.60822   0.36765   0.28433   0.00000  Uiso   1.00
H73    H     0.57137   0.20363   0.38275   0.00000  Uiso   1.00
H74    H     0.34715   0.97858   0.27529   0.00000  Uiso   1.00
H75    H     0.66483   0.56715   0.24479   0.00000  Uiso   1.00
H76    H     0.58713   0.22130   0.45233   0.00000  Uiso   1.00
H77    H     0.41440   0.58931   0.34455   0.00000  Uiso   1.00
H78    H     0.32274   0.46777   0.32199   0.00000  Uiso   1.00
H79    H     0.47340   0.74690   0.30752   0.00000  Uiso   1.00
H80    H     0.43655   0.58289   0.40594   0.00000  Uiso   1.00
H81    H     0.23772   0.28640   0.29411   0.00000  Uiso   1.00
H82    H     0.55540   0.87497   0.26361   0.00000  Uiso   1.00
H83    H     0.47770   0.52912   0.47115   0.00000  Uiso   1.00
O84    O     0.23445   0.04607   0.26945   0.00000  Uiso   1.00
O85    O     0.65124   0.81825   0.22944   0.00000  Uiso   1.00
O86    O     0.54929   0.36450   0.50173   0.00000  Uiso   1.00
N87    N     0.33397   0.06769   0.28282   0.00000  Uiso   1.00
N88    N     0.63098   0.61797   0.25430   0.00000  Uiso   1.00
N89    N     0.55834   0.29465   0.44833   0.00000  Uiso   1.00
N90    N     0.27508   0.23333   0.29295   0.00000  Uiso   1.00
N91    N     0.57209   0.78360   0.26443   0.00000  Uiso   1.00
N92    N     0.49946   0.46028   0.45846   0.00000  Uiso   1.00
C93    C     0.01292   0.18786   0.67240   0.00000  Uiso   1.00
C94    C     0.94921   0.21476   0.68226   0.00000  Uiso   1.00
C95    C     0.92844   0.32963   0.69620   0.00000  Uiso   1.00
C96    C     0.86866   0.33497   0.70345   0.00000  Uiso   1.00
C97    C     0.77546   0.39281   0.71976   0.00000  Uiso   1.00
C98    C     0.03106   0.06310   0.69013   0.00000  Uiso   1.00
C99    C     0.07912   0.05046   0.71067   0.00000  Uiso   1.00
C100   C     0.08825   0.92813   0.72454   0.00000  Uiso   1.00
C101   C     0.12215   0.75049   0.75305   0.00000  Uiso   1.00
C102   C     0.01104   0.15222   0.63665   0.00000  Uiso   1.00
C103   C     0.04227   0.21450   0.61224   0.00000  Uiso   1.00
C104   C     0.03455   0.16718   0.58108   0.00000  Uiso   1.00
C105   C     0.03736   0.12792   0.52656   0.00000  Uiso   1.00
C106   C     0.94368   0.99307   0.66049   0.00000  Uiso   1.00
C107   C     0.91160   0.10895   0.67579   0.00000  Uiso   1.00
C108   C     0.85183   0.11412   0.68302   0.00000  Uiso   1.00
C109   C     0.83098   0.22899   0.69697   0.00000  Uiso   1.00
C110   C     0.99346   0.95730   0.68366   0.00000  Uiso   1.00
C111   C     0.00251   0.83495   0.69750   0.00000  Uiso   1.00
C112   C     0.05057   0.82214   0.71806   0.00000  Uiso   1.00
C113   C     0.97343   0.04642   0.63018   0.00000  Uiso   1.00
C114   C     0.96566   0.99899   0.59906   0.00000  Uiso   1.00
C115   C     0.99687   0.06118   0.57460   0.00000  Uiso   1.00
H116   H     0.04221   0.27022   0.67744   0.00000  Uiso   1.00
H117   H     0.95757   0.41148   0.70121   0.00000  Uiso   1.00
H118   H     0.10822   0.13235   0.71567   0.00000  Uiso   1.00
H119   H     0.07137   0.29637   0.61725   0.00000  Uiso   1.00
H120   H     0.84715   0.52142   0.72471   0.00000  Uiso   1.00
H121   H     0.16483   0.93285   0.75521   0.00000  Uiso   1.00
H122   H     0.08713   0.27870   0.54767   0.00000  Uiso   1.00
H123   H     0.91440   0.91069   0.65545   0.00000  Uiso   1.00
H124   H     0.82274   0.03223   0.67801   0.00000  Uiso   1.00
H125   H     0.97340   0.75310   0.69248   0.00000  Uiso   1.00
H126   H     0.93655   0.91711   0.59406   0.00000  Uiso   1.00
H127   H     0.73772   0.21360   0.70589   0.00000  Uiso   1.00
H128   H     0.05540   0.62503   0.73639   0.00000  Uiso   1.00
H129   H     0.97770   0.97088   0.52885   0.00000  Uiso   1.00
O130   O     0.73445   0.45393   0.73055   0.00000  Uiso   1.00
O131   O     0.15124   0.68175   0.77056   0.00000  Uiso   1.00
O132   O     0.04929   0.13550   0.49827   0.00000  Uiso   1.00
N133   N     0.83397   0.43231   0.71718   0.00000  Uiso   1.00
N134   N     0.13098   0.88203   0.74570   0.00000  Uiso   1.00
N135   N     0.05834   0.20535   0.55167   0.00000  Uiso   1.00
N136   N     0.77508   0.26667   0.70705   0.00000  Uiso   1.00
N137   N     0.07209   0.71640   0.73557   0.00000  Uiso   1.00
N138   N     0.99946   0.03972   0.54154   0.00000  Uiso   1.00
C139   C     0.48708   0.31214   0.17240   0.00000  Uiso   1.00
C140   C     0.55079   0.28524   0.18226   0.00000  Uiso   1.00
C141   C     0.57156   0.17037   0.19620   0.00000  Uiso   1.00
C142   C     0.63134   0.16503   0.20345   0.00000  Uiso   1.00
C143   C     0.72454   0.10719   0.21976   0.00000  Uiso   1.00
C144   C     0.46894   0.43690   0.19013   0.00000  Uiso   1.00
C145   C     0.42088   0.44954   0.21067   0.00000  Uiso   1.00
C146   C     0.41175   0.57187   0.22454   0.00000  Uiso   1.00
C147   C     0.37785   0.74951   0.25305   0.00000  Uiso   1.00
C148   C     0.48896   0.34778   0.13665   0.00000  Uiso   1.00
C149   C     0.45773   0.28550   0.11224   0.00000  Uiso   1.00
C150   C     0.46545   0.33282   0.08108   0.00000  Uiso   1.00
C151   C     0.46264   0.37208   0.02656   0.00000  Uiso   1.00
C152   C     0.55632   0.50693   0.16049   0.00000  Uiso   1.00
C153   C     0.58840   0.39105   0.17579   0.00000  Uiso   1.00
C154   C     0.64817   0.38588   0.18302   0.00000  Uiso   1.00
C155   C     0.66902   0.27101   0.19697   0.00000  Uiso   1.00
C156   C     0.50654   0.54270   0.18366   0.00000  Uiso   1.00
C157   C     0.49749   0.66505   0.19750   0.00000  Uiso   1.00
C158   C     0.44943   0.67786   0.21806   0.00000  Uiso   1.00
C159   C     0.52657   0.45358   0.13018   0.00000  Uiso   1.00
C160   C     0.53434   0.50101   0.09906   0.00000  Uiso   1.00
C161   C     0.50313   0.43882   0.07460   0.00000  Uiso   1.00
H162   H     0.45779   0.22978   0.17744   0.00000  Uiso   1.00
H163   H     0.54243   0.08852   0.20121   0.00000  Uiso   1.00
H164   H     0.39178   0.36765   0.21567   0.00000  Uiso   1.00
H165   H     0.42863   0.20363   0.11725   0.00000  Uiso   1.00
H166   H     0.65285   0.97858   0.22471   0.00000  Uiso   1.00
H167   H     0.33517   0.56715   0.25521   0.00000  Uiso   1.00
H168   H     0.41287   0.22130   0.04767   0.00000  Uiso   1.00
H169   H     0.58560   0.58931   0.15545   0.00000  Uiso   1.00
H170   H     0.67726   0.46777   0.17801   0.00000  Uiso   1.00
H171   H     0.52660   0.74690   0.19248   0.00000  Uiso   1.00
H172   H     0.56345   0.58289   0.09406   0.00000  Uiso   1.00
H173   H     0.76228   0.28640   0.20589   0.00000  Uiso   1.00
H174   H     0.44460   0.87497   0.23639   0.00000  Uiso   1.00
H175   H     0.52230   0.52912   0.02885   0.00000  Uiso   1.00
O176   O     0.76555   0.04607   0.23055   0.00000  Uiso   1.00
O177   O     0.34876   0.81825   0.27056   0.00000  Uiso   1.00
O178   O     0.45071   0.36450   0.99827   0.00000  Uiso   1.00
N179   N     0.66603   0.06769   0.21718   0.00000  Uiso   1.00
N180   N     0.36902   0.61797   0.24570   0.00000  Uiso   1.00
N181   N     0.44166   0.29465   0.05167   0.00000  Uiso   1.00
N182   N     0.72492   0.23333   0.20705   0.00000  Uiso   1.00
N183   N     0.42791   0.78360   0.23557   0.00000  Uiso   1.00
N184   N     0.50054   0.46028   0.04154   0.00000  Uiso   1.00
C185   C     0.01292   0.81214   0.17240   0.00000  Uiso   1.00
C186   C     0.94921   0.78524   0.18226   0.00000  Uiso   1.00
C187   C     0.92844   0.67037   0.19620   0.00000  Uiso   1.00
C188   C     0.86866   0.66503   0.20345   0.00000  Uiso   1.00
C189   C     0.77546   0.60719   0.21976   0.00000  Uiso   1.00
C190   C     0.03106   0.93690   0.19013   0.00000  Uiso   1.00
C191   C     0.07912   0.94954   0.21067   0.00000  Uiso   1.00
C192   C     0.08825   0.07187   0.22454   0.00000  Uiso   1.00
C193   C     0.12215   0.24951   0.25305   0.00000  Uiso   1.00
C194   C     0.01104   0.84778   0.13665   0.00000  Uiso   1.00
C195   C     0.04227   0.78550   0.11224   0.00000  Uiso   1.00
C196   C     0.03455   0.83282   0.08108   0.00000  Uiso   1.00
C197   C     0.03736   0.87208   0.02656   0.00000  Uiso   1.00
C198   C     0.94368   0.00693   0.16049   0.00000  Uiso   1.00
C199   C     0.91160   0.89105   0.17579   0.00000  Uiso   1.00
C200   C     0.85183   0.88588   0.18302   0.00000  Uiso   1.00
C201   C     0.83098   0.77101   0.19697   0.00000  Uiso   1.00
C202   C     0.99346   0.04270   0.18366   0.00000  Uiso   1.00
C203   C     0.00251   0.16505   0.19750   0.00000  Uiso   1.00
C204   C     0.05057   0.17786   0.21806   0.00000  Uiso   1.00
C205   C     0.97343   0.95358   0.13018   0.00000  Uiso   1.00
C206   C     0.96566   0.00101   0.09906   0.00000  Uiso   1.00
C207   C     0.99687   0.93882   0.07460   0.00000  Uiso   1.00
H208   H     0.04221   0.72978   0.17744   0.00000  Uiso   1.00
H209   H     0.95757   0.58852   0.20121   0.00000  Uiso   1.00
H210   H     0.10822   0.86765   0.21567   0.00000  Uiso   1.00
H211   H     0.07137   0.70363   0.11725   0.00000  Uiso   1.00
H212   H     0.84715   0.47858   0.22471   0.00000  Uiso   1.00
H213   H     0.16483   0.06715   0.25521   0.00000  Uiso   1.00
H214   H     0.08713   0.72130   0.04767   0.00000  Uiso   1.00
H215   H     0.91440   0.08931   0.15545   0.00000  Uiso   1.00
H216   H     0.82274   0.96777   0.17801   0.00000  Uiso   1.00
H217   H     0.97340   0.24690   0.19248   0.00000  Uiso   1.00
H218   H     0.93655   0.08289   0.09406   0.00000  Uiso   1.00
H219   H     0.73772   0.78640   0.20589   0.00000  Uiso   1.00
H220   H     0.05540   0.37497   0.23639   0.00000  Uiso   1.00
H221   H     0.97770   0.02912   0.02885   0.00000  Uiso   1.00
O222   O     0.73445   0.54607   0.23055   0.00000  Uiso   1.00
O223   O     0.15124   0.31825   0.27056   0.00000  Uiso   1.00
O224   O     0.04929   0.86450   0.99827   0.00000  Uiso   1.00
N225   N     0.83397   0.56769   0.21718   0.00000  Uiso   1.00
N226   N     0.13098   0.11797   0.24570   0.00000  Uiso   1.00
N227   N     0.05834   0.79465   0.05167   0.00000  Uiso   1.00
N228   N     0.77508   0.73333   0.20705   0.00000  Uiso   1.00
N229   N     0.07209   0.28360   0.23557   0.00000  Uiso   1.00
N230   N     0.99946   0.96028   0.04154   0.00000  Uiso   1.00
C231   C     0.48708   0.68786   0.67240   0.00000  Uiso   1.00
C232   C     0.55079   0.71476   0.68226   0.00000  Uiso   1.00
C233   C     0.57156   0.82963   0.69620   0.00000  Uiso   1.00
C234   C     0.63134   0.83497   0.70345   0.00000  Uiso   1.00
C235   C     0.72454   0.89281   0.71976   0.00000  Uiso   1.00
C236   C     0.46894   0.56310   0.69013   0.00000  Uiso   1.00
C237   C     0.42088   0.55046   0.71067   0.00000  Uiso   1.00
C238   C     0.41175   0.42813   0.72454   0.00000  Uiso   1.00
C239   C     0.37785   0.25049   0.75305   0.00000  Uiso   1.00
C240   C     0.48896   0.65222   0.63665   0.00000  Uiso   1.00
C241   C     0.45773   0.71450   0.61224   0.00000  Uiso   1.00
C242   C     0.46545   0.66718   0.58108   0.00000  Uiso   1.00
C243   C     0.46264   0.62792   0.52656   0.00000  Uiso   1.00
C244   C     0.55632   0.49307   0.66049   0.00000  Uiso   1.00
C245   C     0.58840   0.60895   0.67579   0.00000  Uiso   1.00
C246   C     0.64817   0.61412   0.68302   0.00000  Uiso   1.00
C247   C     0.66902   0.72899   0.69697   0.00000  Uiso   1.00
C248   C     0.50654   0.45730   0.68366   0.00000  Uiso   1.00
C249   C     0.49749   0.33495   0.69750   0.00000  Uiso   1.00
C250   C     0.44943   0.32214   0.71806   0.00000  Uiso   1.00
C251   C     0.52657   0.54642   0.63018   0.00000  Uiso   1.00
C252   C     0.53434   0.49899   0.59906   0.00000  Uiso   1.00
C253   C     0.50313   0.56118   0.57460   0.00000  Uiso   1.00
H254   H     0.45779   0.77022   0.67744   0.00000  Uiso   1.00
H255   H     0.54243   0.91148   0.70121   0.00000  Uiso   1.00
H256   H     0.39178   0.63235   0.71567   0.00000  Uiso   1.00
H257   H     0.42863   0.79637   0.61725   0.00000  Uiso   1.00
H258   H     0.65285   0.02142   0.72471   0.00000  Uiso   1.00
H259   H     0.33517   0.43285   0.75521   0.00000  Uiso   1.00
H260   H     0.41287   0.77870   0.54767   0.00000  Uiso   1.00
H261   H     0.58560   0.41069   0.65545   0.00000  Uiso   1.00
H262   H     0.67726   0.53223   0.67801   0.00000  Uiso   1.00
H263   H     0.52660   0.25310   0.69248   0.00000  Uiso   1.00
H264   H     0.56345   0.41711   0.59406   0.00000  Uiso   1.00
H265   H     0.76228   0.71360   0.70589   0.00000  Uiso   1.00
H266   H     0.44460   0.12503   0.73639   0.00000  Uiso   1.00
H267   H     0.52230   0.47088   0.52885   0.00000  Uiso   1.00
O268   O     0.76555   0.95393   0.73055   0.00000  Uiso   1.00
O269   O     0.34876   0.18175   0.77056   0.00000  Uiso   1.00
O270   O     0.45071   0.63550   0.49827   0.00000  Uiso   1.00
N271   N     0.66603   0.93231   0.71718   0.00000  Uiso   1.00
N272   N     0.36902   0.38203   0.74570   0.00000  Uiso   1.00
N273   N     0.44166   0.70535   0.55167   0.00000  Uiso   1.00
N274   N     0.72492   0.76667   0.70705   0.00000  Uiso   1.00
N275   N     0.42791   0.21640   0.73557   0.00000  Uiso   1.00
N276   N     0.50054   0.53972   0.54154   0.00000  Uiso   1.00
C277   C     0.98708   0.81214   0.32760   0.00000  Uiso   1.00
C278   C     0.05079   0.78524   0.31774   0.00000  Uiso   1.00
C279   C     0.07156   0.67037   0.30380   0.00000  Uiso   1.00
C280   C     0.13134   0.66503   0.29655   0.00000  Uiso   1.00
C281   C     0.22454   0.60719   0.28024   0.00000  Uiso   1.00
C282   C     0.96894   0.93690   0.30987   0.00000  Uiso   1.00
C283   C     0.92088   0.94954   0.28933   0.00000  Uiso   1.00
C284   C     0.91175   0.07187   0.27546   0.00000  Uiso   1.00
C285   C     0.87785   0.24951   0.24695   0.00000  Uiso   1.00
C286   C     0.98896   0.84778   0.36335   0.00000  Uiso   1.00
C287   C     0.95773   0.78550   0.38776   0.00000  Uiso   1.00
C288   C     0.96545   0.83282   0.41892   0.00000  Uiso   1.00
C289   C     0.96264   0.87208   0.47344   0.00000  Uiso   1.00
C290   C     0.05632   0.00693   0.33951   0.00000  Uiso   1.00
C291   C     0.08840   0.89105   0.32421   0.00000  Uiso   1.00
C292   C     0.14817   0.88588   0.31698   0.00000  Uiso   1.00
C293   C     0.16902   0.77101   0.30303   0.00000  Uiso   1.00
C294   C     0.00654   0.04270   0.31634   0.00000  Uiso   1.00
C295   C     0.99749   0.16505   0.30250   0.00000  Uiso   1.00
C296   C     0.94943   0.17786   0.28194   0.00000  Uiso   1.00
C297   C     0.02657   0.95358   0.36982   0.00000  Uiso   1.00
C298   C     0.03434   0.00101   0.40094   0.00000  Uiso   1.00
C299   C     0.00313   0.93882   0.42540   0.00000  Uiso   1.00
H300   H     0.95779   0.72978   0.32256   0.00000  Uiso   1.00
H301   H     0.04243   0.58852   0.29879   0.00000  Uiso   1.00
H302   H     0.89178   0.86765   0.28433   0.00000  Uiso   1.00
H303   H     0.92863   0.70363   0.38275   0.00000  Uiso   1.00
H304   H     0.15285   0.47858   0.27529   0.00000  Uiso   1.00
H305   H     0.83517   0.06715   0.24479   0.00000  Uiso   1.00
H306   H     0.91287   0.72130   0.45233   0.00000  Uiso   1.00
H307   H     0.08560   0.08931   0.34455   0.00000  Uiso   1.00
H308   H     0.17726   0.96777   0.32199   0.00000  Uiso   1.00
H309   H     0.02660   0.24690   0.30752   0.00000  Uiso   1.00
H310   H     0.06345   0.08289   0.40594   0.00000  Uiso   1.00
H311   H     0.26228   0.78640   0.29411   0.00000  Uiso   1.00
H312   H     0.94460   0.37497   0.26361   0.00000  Uiso   1.00
H313   H     0.02230   0.02912   0.47115   0.00000  Uiso   1.00
O314   O     0.26555   0.54607   0.26945   0.00000  Uiso   1.00
O315   O     0.84876   0.31825   0.22944   0.00000  Uiso   1.00
O316   O     0.95071   0.86450   0.50173   0.00000  Uiso   1.00
N317   N     0.16603   0.56769   0.28282   0.00000  Uiso   1.00
N318   N     0.86902   0.11797   0.25430   0.00000  Uiso   1.00
N319   N     0.94166   0.79465   0.44833   0.00000  Uiso   1.00
N320   N     0.22492   0.73333   0.29295   0.00000  Uiso   1.00
N321   N     0.92791   0.28360   0.26443   0.00000  Uiso   1.00
N322   N     0.00054   0.96028   0.45846   0.00000  Uiso   1.00
C323   C     0.51292   0.68786   0.82760   0.00000  Uiso   1.00
C324   C     0.44921   0.71476   0.81774   0.00000  Uiso   1.00
C325   C     0.42844   0.82963   0.80380   0.00000  Uiso   1.00
C326   C     0.36866   0.83497   0.79655   0.00000  Uiso   1.00
C327   C     0.27546   0.89281   0.78024   0.00000  Uiso   1.00
C328   C     0.53106   0.56310   0.80987   0.00000  Uiso   1.00
C329   C     0.57912   0.55046   0.78933   0.00000  Uiso   1.00
C330   C     0.58825   0.42813   0.77546   0.00000  Uiso   1.00
C331   C     0.62215   0.25049   0.74695   0.00000  Uiso   1.00
C332   C     0.51104   0.65222   0.86335   0.00000  Uiso   1.00
C333   C     0.54227   0.71450   0.88776   0.00000  Uiso   1.00
C334   C     0.53455   0.66718   0.91892   0.00000  Uiso   1.00
C335   C     0.53736   0.62792   0.97344   0.00000  Uiso   1.00
C336   C     0.44368   0.49307   0.83951   0.00000  Uiso   1.00
C337   C     0.41160   0.60895   0.82421   0.00000  Uiso   1.00
C338   C     0.35183   0.61412   0.81698   0.00000  Uiso   1.00
C339   C     0.33098   0.72899   0.80303   0.00000  Uiso   1.00
C340   C     0.49346   0.45730   0.81634   0.00000  Uiso   1.00
C341   C     0.50251   0.33495   0.80250   0.00000  Uiso   1.00
C342   C     0.55057   0.32214   0.78194   0.00000  Uiso   1.00
C343   C     0.47343   0.54642   0.86982   0.00000  Uiso   1.00
C344   C     0.46566   0.49899   0.90094   0.00000  Uiso   1.00
C345   C     0.49687   0.56118   0.92540   0.00000  Uiso   1.00
H346   H     0.54221   0.77022   0.82256   0.00000  Uiso   1.00
H347   H     0.45757   0.91148   0.79879   0.00000  Uiso   1.00
H348   H     0.60822   0.63235   0.78433   0.00000  Uiso   1.00
H349   H     0.57137   0.79637   0.88275   0.00000  Uiso   1.00
H350   H     0.34715   0.02142   0.77529   0.00000  Uiso   1.00
H351   H     0.66483   0.43285   0.74479   0.00000  Uiso   1.00
H352   H     0.58713   0.77870   0.95233   0.00000  Uiso   1.00
H353   H     0.41440   0.41069   0.84455   0.00000  Uiso   1.00
H354   H     0.32274   0.53223   0.82199   0.00000  Uiso   1.00
H355   H     0.47340   0.25310   0.80752   0.00000  Uiso   1.00
H356   H     0.43655   0.41711   0.90594   0.00000  Uiso   1.00
H357   H     0.23772   0.71360   0.79411   0.00000  Uiso   1.00
H358   H     0.55540   0.12503   0.76361   0.00000  Uiso   1.00
H359   H     0.47770   0.47088   0.97115   0.00000  Uiso   1.00
O360   O     0.23445   0.95393   0.76945   0.00000  Uiso   1.00
O361   O     0.65124   0.18175   0.72944   0.00000  Uiso   1.00
O362   O     0.54929   0.63550   0.00173   0.00000  Uiso   1.00
N363   N     0.33397   0.93231   0.78282   0.00000  Uiso   1.00
N364   N     0.63098   0.38203   0.75430   0.00000  Uiso   1.00
N365   N     0.55834   0.70535   0.94833   0.00000  Uiso   1.00
N366   N     0.27508   0.76667   0.79295   0.00000  Uiso   1.00
N367   N     0.57209   0.21640   0.76443   0.00000  Uiso   1.00
N368   N     0.49946   0.53972   0.95846   0.00000  Uiso   1.00
