data_job_06808
_audit_creation_date              2018-12-19
_audit_creation_method            'Materials Studio'
_symmetry_space_group_name_H-M    'P1'
_symmetry_Int_Tables_number       1
_symmetry_cell_setting            triclinic
loop_
_symmetry_equiv_pos_as_xyz
  x,y,z
_cell_length_a                    19.2847
_cell_length_b                    21.2030
_cell_length_c                    19.7704
_cell_angle_alpha                 104.4870
_cell_angle_beta                  89.5773
_cell_angle_gamma                 94.0820
loop_
_atom_site_label
_atom_site_type_symbol
_atom_site_fract_x
_atom_site_fract_y
_atom_site_fract_z
_atom_site_U_iso_or_equiv
_atom_site_adp_type
_atom_site_occupancy
C1     C     0.22477   0.22481   0.50804   0.00000  Uiso   1.00
C2     C     0.18857   0.16168   0.51852   0.00000  Uiso   1.00
C3     C     0.16728   0.10720   0.46579   0.00000  Uiso   1.00
C4     C     0.13508   0.05432   0.48615   0.00000  Uiso   1.00
C5     C     0.08045   0.95606   0.49168   0.00000  Uiso   1.00
C6     C     0.17993   0.27938   0.54471   0.00000  Uiso   1.00
C7     C     0.15140   0.32387   0.51401   0.00000  Uiso   1.00
C8     C     0.11194   0.37007   0.55642   0.00000  Uiso   1.00
C9     C     0.04394   0.45458   0.60263   0.00000  Uiso   1.00
C10    C     0.29254   0.23541   0.54992   0.00000  Uiso   1.00
C11    C     0.35868   0.24294   0.52360   0.00000  Uiso   1.00
C12    C     0.41403   0.25214   0.57040   0.00000  Uiso   1.00
C13    C     0.52086   0.26837   0.62469   0.00000  Uiso   1.00
C14    C     0.20543   0.22778   0.63795   0.00000  Uiso   1.00
C15    C     0.17807   0.16330   0.58908   0.00000  Uiso   1.00
C16    C     0.14589   0.11049   0.60952   0.00000  Uiso   1.00
C17    C     0.12457   0.05593   0.55683   0.00000  Uiso   1.00
C18    C     0.16943   0.28100   0.61527   0.00000  Uiso   1.00
C19    C     0.13001   0.32716   0.65773   0.00000  Uiso   1.00
C20    C     0.10142   0.37169   0.62710   0.00000  Uiso   1.00
C21    C     0.28204   0.23702   0.62048   0.00000  Uiso   1.00
C22    C     0.33729   0.24622   0.66733   0.00000  Uiso   1.00
C23    C     0.40351   0.25376   0.64109   0.00000  Uiso   1.00
H24    H     0.23294   0.22356   0.45310   0.00000  Uiso   1.00
H25    H     0.17541   0.10597   0.41119   0.00000  Uiso   1.00
H26    H     0.15954   0.32261   0.45940   0.00000  Uiso   1.00
H27    H     0.36679   0.24168   0.46899   0.00000  Uiso   1.00
H28    H     0.10698   0.97632   0.39584   0.00000  Uiso   1.00
H29    H     0.07353   0.43313   0.49750   0.00000  Uiso   1.00
H30    H     0.51056   0.26249   0.51772   0.00000  Uiso   1.00
H31    H     0.19726   0.22904   0.69289   0.00000  Uiso   1.00
H32    H     0.13777   0.11175   0.66413   0.00000  Uiso   1.00
H33    H     0.12190   0.32839   0.71234   0.00000  Uiso   1.00
H34    H     0.32915   0.24747   0.72193   0.00000  Uiso   1.00
H35    H     0.07643   0.98102   0.60113   0.00000  Uiso   1.00
H36    H     0.04298   0.43783   0.70279   0.00000  Uiso   1.00
H37    H     0.48000   0.26718   0.72302   0.00000  Uiso   1.00
O38    O     0.05320   0.90142   0.47524   0.00000  Uiso   1.00
O39    O     0.00932   0.50074   0.60862   0.00000  Uiso   1.00
O40    O     0.58269   0.27686   0.63515   0.00000  Uiso   1.00
N41    N     0.10797   0.99352   0.44810   0.00000  Uiso   1.00
N42    N     0.07668   0.42060   0.54314   0.00000  Uiso   1.00
N43    N     0.48526   0.26108   0.56205   0.00000  Uiso   1.00
N44    N     0.09153   0.99604   0.55857   0.00000  Uiso   1.00
N45    N     0.06024   0.42313   0.65361   0.00000  Uiso   1.00
N46    N     0.46882   0.26361   0.67252   0.00000  Uiso   1.00
C47    C     0.45330   0.10198   0.37224   0.00000  Uiso   1.00
C48    C     0.49258   0.04339   0.33510   0.00000  Uiso   1.00
C49    C     0.47390   0.00042   0.27155   0.00000  Uiso   1.00
C50    C     0.51666   0.94991   0.24635   0.00000  Uiso   1.00
C51    C     0.56861   0.86002   0.18306   0.00000  Uiso   1.00
C52    C     0.43647   0.09229   0.44461   0.00000  Uiso   1.00
C53    C     0.37060   0.09044   0.47313   0.00000  Uiso   1.00
C54    C     0.36613   0.08110   0.54012   0.00000  Uiso   1.00
C55    C     0.33096   0.06717   0.64686   0.00000  Uiso   1.00
C56    C     0.50565   0.16115   0.38379   0.00000  Uiso   1.00
C57    C     0.49796   0.21721   0.36120   0.00000  Uiso   1.00
C58    C     0.55173   0.26585   0.37700   0.00000  Uiso   1.00
C59    C     0.62399   0.35884   0.38931   0.00000  Uiso   1.00
C60    C     0.56245   0.08870   0.44050   0.00000  Uiso   1.00
C61    C     0.55187   0.03618   0.37218   0.00000  Uiso   1.00
C62    C     0.59467   0.98573   0.34707   0.00000  Uiso   1.00
C63    C     0.57605   0.94269   0.28349   0.00000  Uiso   1.00
C64    C     0.49575   0.08508   0.48169   0.00000  Uiso   1.00
C65    C     0.49137   0.07574   0.54865   0.00000  Uiso   1.00
C66    C     0.42552   0.07387   0.57726   0.00000  Uiso   1.00
C67    C     0.56494   0.15394   0.42087   0.00000  Uiso   1.00
C68    C     0.61873   0.20251   0.43671   0.00000  Uiso   1.00
C69    C     0.61112   0.25863   0.41414   0.00000  Uiso   1.00
H70    H     0.40714   0.10759   0.34338   0.00000  Uiso   1.00
H71    H     0.42801   0.00601   0.24288   0.00000  Uiso   1.00
H72    H     0.32474   0.09603   0.44443   0.00000  Uiso   1.00
H73    H     0.45207   0.22277   0.33251   0.00000  Uiso   1.00
H74    H     0.47728   0.89020   0.14781   0.00000  Uiso   1.00
H75    H     0.25952   0.08001   0.57281   0.00000  Uiso   1.00
H76    H     0.52803   0.34729   0.33680   0.00000  Uiso   1.00
H77    H     0.60861   0.08309   0.46937   0.00000  Uiso   1.00
H78    H     0.64054   0.98016   0.37577   0.00000  Uiso   1.00
H79    H     0.53726   0.07017   0.57733   0.00000  Uiso   1.00
H80    H     0.66460   0.19691   0.46540   0.00000  Uiso   1.00
H81    H     0.64977   0.86921   0.25567   0.00000  Uiso   1.00
H82    H     0.43201   0.05903   0.68067   0.00000  Uiso   1.00
H83    H     0.70053   0.32630   0.44466   0.00000  Uiso   1.00
O84    O     0.58088   0.81242   0.13791   0.00000  Uiso   1.00
O85    O     0.29519   0.06147   0.69549   0.00000  Uiso   1.00
O86    O     0.64748   0.41212   0.38585   0.00000  Uiso   1.00
N87    N     0.51350   0.89939   0.18603   0.00000  Uiso   1.00
N88    N     0.30991   0.07685   0.58338   0.00000  Uiso   1.00
N89    N     0.56094   0.32673   0.36274   0.00000  Uiso   1.00
N90    N     0.60632   0.88810   0.24407   0.00000  Uiso   1.00
N91    N     0.40272   0.06555   0.64142   0.00000  Uiso   1.00
N92    N     0.65376   0.31544   0.42078   0.00000  Uiso   1.00
C93    C     0.35837   0.39532   0.31264   0.00000  Uiso   1.00
C94    C     0.28117   0.39866   0.29895   0.00000  Uiso   1.00
C95    C     0.22687   0.36846   0.32835   0.00000  Uiso   1.00
C96    C     0.15988   0.37744   0.30914   0.00000  Uiso   1.00
C97    C     0.04186   0.37683   0.29499   0.00000  Uiso   1.00
C98    C     0.39057   0.36917   0.24134   0.00000  Uiso   1.00
C99    C     0.42826   0.31418   0.22230   0.00000  Uiso   1.00
C100   C     0.45337   0.29835   0.15460   0.00000  Uiso   1.00
C101   C     0.50524   0.25198   0.05102   0.00000  Uiso   1.00
C102   C     0.38802   0.46587   0.33843   0.00000  Uiso   1.00
C103   C     0.42359   0.49219   0.40103   0.00000  Uiso   1.00
C104   C     0.44658   0.55777   0.41507   0.00000  Uiso   1.00
C105   C     0.49449   0.66155   0.46225   0.00000  Uiso   1.00
C106   C     0.33597   0.46497   0.22625   0.00000  Uiso   1.00
C107   C     0.26900   0.43648   0.25202   0.00000  Uiso   1.00
C108   C     0.20208   0.44551   0.23277   0.00000  Uiso   1.00
C109   C     0.14769   0.41534   0.26213   0.00000  Uiso   1.00
C110   C     0.37840   0.40699   0.19441   0.00000  Uiso   1.00
C111   C     0.40347   0.39123   0.12672   0.00000  Uiso   1.00
C112   C     0.44119   0.33624   0.10759   0.00000  Uiso   1.00
C113   C     0.37585   0.50370   0.29151   0.00000  Uiso   1.00
C114   C     0.39880   0.56924   0.30545   0.00000  Uiso   1.00
C115   C     0.43439   0.59566   0.36806   0.00000  Uiso   1.00
H116   H     0.36785   0.36587   0.34917   0.00000  Uiso   1.00
H117   H     0.23631   0.33919   0.36465   0.00000  Uiso   1.00
H118   H     0.43767   0.28492   0.25863   0.00000  Uiso   1.00
H119   H     0.43300   0.46291   0.43733   0.00000  Uiso   1.00
H120   H     0.08510   0.32627   0.36111   0.00000  Uiso   1.00
H121   H     0.50971   0.21186   0.13755   0.00000  Uiso   1.00
H122   H     0.49987   0.58717   0.51438   0.00000  Uiso   1.00
H123   H     0.32649   0.49442   0.18972   0.00000  Uiso   1.00
H124   H     0.19268   0.47479   0.19645   0.00000  Uiso   1.00
H125   H     0.39405   0.42052   0.09043   0.00000  Uiso   1.00
H126   H     0.38937   0.59850   0.26913   0.00000  Uiso   1.00
H127   H     0.04969   0.43632   0.22459   0.00000  Uiso   1.00
H128   H     0.47431   0.32191   0.00104   0.00000  Uiso   1.00
H129   H     0.46446   0.69722   0.37786   0.00000  Uiso   1.00
O130   O     0.98012   0.36604   0.30013   0.00000  Uiso   1.00
O131   O     0.53720   0.21595   0.00685   0.00000  Uiso   1.00
O132   O     0.52428   0.70835   0.50124   0.00000  Uiso   1.00
N133   N     0.09513   0.35487   0.32806   0.00000  Uiso   1.00
N134   N     0.49211   0.24790   0.11905   0.00000  Uiso   1.00
N135   N     0.48292   0.59878   0.47134   0.00000  Uiso   1.00
N136   N     0.07608   0.41409   0.25460   0.00000  Uiso   1.00
N137   N     0.47306   0.30712   0.04559   0.00000  Uiso   1.00
N138   N     0.46386   0.65800   0.39788   0.00000  Uiso   1.00
C139   C     0.79562   0.98035   0.88605   0.00000  Uiso   1.00
C140   C     0.74583   0.03271   0.88446   0.00000  Uiso   1.00
C141   C     0.72713   0.05232   0.82562   0.00000  Uiso   1.00
C142   C     0.68085   0.10097   0.83506   0.00000  Uiso   1.00
C143   C     0.60755   0.17800   0.82256   0.00000  Uiso   1.00
C144   C     0.75519   0.93047   0.91773   0.00000  Uiso   1.00
C145   C     0.74437   0.86411   0.88685   0.00000  Uiso   1.00
C146   C     0.70599   0.82669   0.92430   0.00000  Uiso   1.00
C147   C     0.64727   0.74498   0.96347   0.00000  Uiso   1.00
C148   C     0.85231   0.01318   0.93916   0.00000  Uiso   1.00
C149   C     0.92316   0.01635   0.92631   0.00000  Uiso   1.00
C150   C     0.96655   0.04855   0.98182   0.00000  Uiso   1.00
C151   C     0.05862   0.09525   0.05426   0.00000  Uiso   1.00
C152   C     0.74670   0.03189   0.00747   0.00000  Uiso   1.00
C153   C     0.71925   0.06070   0.95041   0.00000  Uiso   1.00
C154   C     0.67300   0.10934   0.95995   0.00000  Uiso   1.00
C155   C     0.65423   0.12902   0.90113   0.00000  Uiso   1.00
C156   C     0.72862   0.95846   0.98367   0.00000  Uiso   1.00
C157   C     0.69024   0.92113   0.02118   0.00000  Uiso   1.00
C158   C     0.67937   0.85474   0.99037   0.00000  Uiso   1.00
C159   C     0.82574   0.04117   0.00511   0.00000  Uiso   1.00
C160   C     0.86903   0.07337   0.06065   0.00000  Uiso   1.00
C161   C     0.93992   0.07660   0.04789   0.00000  Uiso   1.00
H162   H     0.81631   0.95855   0.83471   0.00000  Uiso   1.00
H163   H     0.74770   0.03064   0.77459   0.00000  Uiso   1.00
H164   H     0.76495   0.84246   0.83582   0.00000  Uiso   1.00
H165   H     0.94370   0.99468   0.87527   0.00000  Uiso   1.00
H166   H     0.65990   0.12289   0.73702   0.00000  Uiso   1.00
H167   H     0.69629   0.72610   0.86613   0.00000  Uiso   1.00
H168   H     0.07323   0.04708   0.94933   0.00000  Uiso   1.00
H169   H     0.72601   0.05368   0.05881   0.00000  Uiso   1.00
H170   H     0.65244   0.13100   0.01099   0.00000  Uiso   1.00
H171   H     0.66969   0.94281   0.07222   0.00000  Uiso   1.00
H172   H     0.84844   0.09503   0.11168   0.00000  Uiso   1.00
H173   H     0.58258   0.20434   0.92889   0.00000  Uiso   1.00
H174   H     0.61897   0.80755   0.05800   0.00000  Uiso   1.00
H175   H     0.99591   0.12853   0.14121   0.00000  Uiso   1.00
O176   O     0.57445   0.21274   0.79745   0.00000  Uiso   1.00
O177   O     0.62221   0.69217   0.96684   0.00000  Uiso   1.00
O178   O     0.11675   0.11329   0.07600   0.00000  Uiso   1.00
N179   N     0.65181   0.13146   0.78874   0.00000  Uiso   1.00
N180   N     0.68582   0.76049   0.90945   0.00000  Uiso   1.00
N181   N     0.03823   0.06056   0.98724   0.00000  Uiso   1.00
N182   N     0.61020   0.17529   0.89199   0.00000  Uiso   1.00
N183   N     0.64422   0.80432   0.01269   0.00000  Uiso   1.00
N184   N     0.99662   0.10439   0.09048   0.00000  Uiso   1.00
C185   C     0.05194   0.82995   0.82241   0.00000  Uiso   1.00
C186   C     0.05990   0.75659   0.80383   0.00000  Uiso   1.00
C187   C     0.02848   0.71248   0.83795   0.00000  Uiso   1.00
C188   C     0.04231   0.64742   0.81297   0.00000  Uiso   1.00
C189   C     0.04800   0.53656   0.79276   0.00000  Uiso   1.00
C190   C     0.02568   0.84530   0.75615   0.00000  Uiso   1.00
C191   C     0.96548   0.87579   0.75019   0.00000  Uiso   1.00
C192   C     0.95052   0.88542   0.68507   0.00000  Uiso   1.00
C193   C     0.90310   0.91234   0.59086   0.00000  Uiso   1.00
C194   C     0.12537   0.86253   0.83527   0.00000  Uiso   1.00
C195   C     0.14899   0.90753   0.89583   0.00000  Uiso   1.00
C196   C     0.21796   0.93167   0.89733   0.00000  Uiso   1.00
C197   C     0.32532   0.98535   0.92597   0.00000  Uiso   1.00
C198   C     0.13239   0.79284   0.71737   0.00000  Uiso   1.00
C199   C     0.10359   0.73643   0.74677   0.00000  Uiso   1.00
C200   C     0.11748   0.67142   0.72173   0.00000  Uiso   1.00
C201   C     0.08609   0.62723   0.75581   0.00000  Uiso   1.00
C202   C     0.06937   0.82515   0.69909   0.00000  Uiso   1.00
C203   C     0.05449   0.83474   0.63397   0.00000  Uiso   1.00
C204   C     0.99429   0.86523   0.62791   0.00000  Uiso   1.00
C205   C     0.16906   0.84238   0.77822   0.00000  Uiso   1.00
C206   C     0.23800   0.86647   0.77962   0.00000  Uiso   1.00
C207   C     0.26173   0.91148   0.84017   0.00000  Uiso   1.00
H208   H     0.01792   0.84564   0.86683   0.00000  Uiso   1.00
H209   H     0.99466   0.72809   0.88210   0.00000  Uiso   1.00
H210   H     0.93168   0.89139   0.79435   0.00000  Uiso   1.00
H211   H     0.11517   0.92311   0.93998   0.00000  Uiso   1.00
H212   H     0.98812   0.58888   0.87385   0.00000  Uiso   1.00
H213   H     0.85535   0.93321   0.68883   0.00000  Uiso   1.00
H214   H     0.24225   0.00011   0.99592   0.00000  Uiso   1.00
H215   H     0.16641   0.77715   0.67294   0.00000  Uiso   1.00
H216   H     0.15130   0.65584   0.67757   0.00000  Uiso   1.00
H217   H     0.08832   0.81914   0.58983   0.00000  Uiso   1.00
H218   H     0.27180   0.85086   0.73545   0.00000  Uiso   1.00
H219   H     0.11526   0.53023   0.70785   0.00000  Uiso   1.00
H220   H     0.98248   0.87457   0.52283   0.00000  Uiso   1.00
H221   H     0.36939   0.94147   0.82992   0.00000  Uiso   1.00
O222   O     0.03905   0.48099   0.79737   0.00000  Uiso   1.00
O223   O     0.86486   0.93275   0.55465   0.00000  Uiso   1.00
O224   O     0.37248   0.02051   0.95754   0.00000  Uiso   1.00
N225   N     0.02013   0.59172   0.83415   0.00000  Uiso   1.00
N226   N     0.89598   0.91365   0.66117   0.00000  Uiso   1.00
N227   N     0.25771   0.97620   0.94826   0.00000  Uiso   1.00
N228   N     0.08854   0.56017   0.74483   0.00000  Uiso   1.00
N229   N     0.96439   0.88209   0.57185   0.00000  Uiso   1.00
N230   N     0.32612   0.94465   0.85894   0.00000  Uiso   1.00
C231   C     0.78499   0.63817   0.04311   0.00000  Uiso   1.00
C232   C     0.71170   0.60985   0.05263   0.00000  Uiso   1.00
C233   C     0.66428   0.58147   0.99937   0.00000  Uiso   1.00
C234   C     0.59992   0.55847   0.01886   0.00000  Uiso   1.00
C235   C     0.48861   0.51366   0.02295   0.00000  Uiso   1.00
C236   C     0.83370   0.60253   0.07869   0.00000  Uiso   1.00
C237   C     0.88887   0.56800   0.04734   0.00000  Uiso   1.00
C238   C     0.92723   0.53885   0.08878   0.00000  Uiso   1.00
C239   C     0.00536   0.48272   0.13334   0.00000  Uiso   1.00
C240   C     0.78902   0.70873   0.08665   0.00000  Uiso   1.00
C241   C     0.80663   0.76350   0.06200   0.00000  Uiso   1.00
C242   C     0.80738   0.82377   0.11015   0.00000  Uiso   1.00
C243   C     0.81614   0.93253   0.16706   0.00000  Uiso   1.00
C244   C     0.75501   0.64780   0.17244   0.00000  Uiso   1.00
C245   C     0.69542   0.61508   0.12288   0.00000  Uiso   1.00
C246   C     0.63111   0.59211   0.14246   0.00000  Uiso   1.00
C247   C     0.58361   0.56370   0.08924   0.00000  Uiso   1.00
C248   C     0.81742   0.60775   0.14893   0.00000  Uiso   1.00
C249   C     0.85571   0.57865   0.19043   0.00000  Uiso   1.00
C250   C     0.91092   0.54408   0.15915   0.00000  Uiso   1.00
C251   C     0.77273   0.71396   0.15690   0.00000  Uiso   1.00
C252   C     0.77346   0.77415   0.20509   0.00000  Uiso   1.00
C253   C     0.79107   0.82900   0.18052   0.00000  Uiso   1.00
H254   H     0.79767   0.63410   0.98842   0.00000  Uiso   1.00
H255   H     0.67690   0.57743   0.94501   0.00000  Uiso   1.00
H256   H     0.90146   0.56397   0.99298   0.00000  Uiso   1.00
H257   H     0.81923   0.75944   0.00764   0.00000  Uiso   1.00
H258   H     0.53584   0.51687   0.92786   0.00000  Uiso   1.00
H259   H     0.00936   0.48852   0.02901   0.00000  Uiso   1.00
H260   H     0.83595   0.90071   0.05992   0.00000  Uiso   1.00
H261   H     0.74233   0.65187   0.22714   0.00000  Uiso   1.00
H262   H     0.61853   0.59617   0.19682   0.00000  Uiso   1.00
H263   H     0.84309   0.58271   0.24479   0.00000  Uiso   1.00
H264   H     0.76086   0.77818   0.25945   0.00000  Uiso   1.00
H265   H     0.48846   0.53208   0.13224   0.00000  Uiso   1.00
H266   H     0.96198   0.50372   0.23339   0.00000  Uiso   1.00
H267   H     0.78858   0.91591   0.26430   0.00000  Uiso   1.00
O268   O     0.43172   0.48749   0.00580   0.00000  Uiso   1.00
O269   O     0.05296   0.45030   0.13851   0.00000  Uiso   1.00
O270   O     0.82545   0.99108   0.17905   0.00000  Uiso   1.00
N271   N     0.54168   0.52811   0.98012   0.00000  Uiso   1.00
N272   N     0.98438   0.50159   0.07469   0.00000  Uiso   1.00
N273   N     0.82228   0.88695   0.10358   0.00000  Uiso   1.00
N274   N     0.51618   0.53629   0.09010   0.00000  Uiso   1.00
N275   N     0.95889   0.50977   0.18466   0.00000  Uiso   1.00
N276   N     0.79679   0.89513   0.21356   0.00000  Uiso   1.00
C277   C     0.76789   0.68218   0.46271   0.00000  Uiso   1.00
C278   C     0.82952   0.71111   0.42890   0.00000  Uiso   1.00
C279   C     0.83935   0.77544   0.42451   0.00000  Uiso   1.00
C280   C     0.89911   0.79231   0.39156   0.00000  Uiso   1.00
C281   C     0.98750   0.84423   0.34329   0.00000  Uiso   1.00
C282   C     0.79864   0.65305   0.51796   0.00000  Uiso   1.00
C283   C     0.78248   0.66855   0.58845   0.00000  Uiso   1.00
C284   C     0.81624   0.63652   0.63046   0.00000  Uiso   1.00
C285   C     0.85664   0.59825   0.72044   0.00000  Uiso   1.00
C286   C     0.73629   0.62451   0.40651   0.00000  Uiso   1.00
C287   C     0.66770   0.61600   0.38330   0.00000  Uiso   1.00
C288   C     0.64897   0.55994   0.33149   0.00000  Uiso   1.00
C289   C     0.59256   0.47736   0.24843   0.00000  Uiso   1.00
C290   C     0.85657   0.59774   0.41198   0.00000  Uiso   1.00
C291   C     0.87769   0.66525   0.40135   0.00000  Uiso   1.00
C292   C     0.93745   0.68202   0.36839   0.00000  Uiso   1.00
C293   C     0.94736   0.74636   0.36395   0.00000  Uiso   1.00
C294   C     0.84680   0.60718   0.49041   0.00000  Uiso   1.00
C295   C     0.88059   0.57513   0.53232   0.00000  Uiso   1.00
C296   C     0.86449   0.59058   0.60285   0.00000  Uiso   1.00
C297   C     0.78445   0.57864   0.37895   0.00000  Uiso   1.00
C298   C     0.76582   0.52258   0.32717   0.00000  Uiso   1.00
C299   C     0.69722   0.51399   0.30389   0.00000  Uiso   1.00
H300   H     0.73040   0.71788   0.48416   0.00000  Uiso   1.00
H301   H     0.80206   0.81092   0.44585   0.00000  Uiso   1.00
H302   H     0.74520   0.70403   0.60975   0.00000  Uiso   1.00
H303   H     0.63045   0.65150   0.40463   0.00000  Uiso   1.00
H304   H     0.90277   0.89385   0.39124   0.00000  Uiso   1.00
H305   H     0.78286   0.66846   0.73684   0.00000  Uiso   1.00
H306   H     0.54087   0.55768   0.30431   0.00000  Uiso   1.00
H307   H     0.89407   0.56203   0.39053   0.00000  Uiso   1.00
H308   H     0.97472   0.64652   0.34707   0.00000  Uiso   1.00
H309   H     0.91786   0.53964   0.51098   0.00000  Uiso   1.00
H310   H     0.80310   0.48710   0.30586   0.00000  Uiso   1.00
H311   H     0.04291   0.76042   0.31108   0.00000  Uiso   1.00
H312   H     0.92299   0.53503   0.65667   0.00000  Uiso   1.00
H313   H     0.68101   0.42425   0.22414   0.00000  Uiso   1.00
O314   O     0.02295   0.88553   0.32428   0.00000  Uiso   1.00
O315   O     0.86562   0.58982   0.77769   0.00000  Uiso   1.00
O316   O     0.54815   0.44448   0.21022   0.00000  Uiso   1.00
N317   N     0.92468   0.85085   0.37833   0.00000  Uiso   1.00
N318   N     0.81257   0.64013   0.70144   0.00000  Uiso   1.00
N319   N     0.58634   0.53655   0.29708   0.00000  Uiso   1.00
N320   N     0.00008   0.77905   0.33519   0.00000  Uiso   1.00
N321   N     0.88798   0.56833   0.65830   0.00000  Uiso   1.00
N322   N     0.66174   0.46475   0.25394   0.00000  Uiso   1.00
C323   C     0.51500   0.67489   0.76451   0.00000  Uiso   1.00
C324   C     0.48168   0.69712   0.83593   0.00000  Uiso   1.00
C325   C     0.49228   0.67203   0.89318   0.00000  Uiso   1.00
C326   C     0.45700   0.69896   0.95383   0.00000  Uiso   1.00
C327   C     0.41203   0.72587   0.06425   0.00000  Uiso   1.00
C328   C     0.55238   0.73583   0.74983   0.00000  Uiso   1.00
C329   C     0.62242   0.74327   0.73467   0.00000  Uiso   1.00
C330   C     0.64665   0.80279   0.72284   0.00000  Uiso   1.00
C331   C     0.71142   0.88977   0.69953   0.00000  Uiso   1.00
C332   C     0.45510   0.65508   0.71184   0.00000  Uiso   1.00
C333   C     0.44335   0.59463   0.66472   0.00000  Uiso   1.00
C334   C     0.38568   0.58617   0.62088   0.00000  Uiso   1.00
C335   C     0.29942   0.54777   0.53859   0.00000  Uiso   1.00
C336   C     0.43351   0.76734   0.77043   0.00000  Uiso   1.00
C337   C     0.43742   0.74734   0.83914   0.00000  Uiso   1.00
C338   C     0.40211   0.77432   0.89973   0.00000  Uiso   1.00
C339   C     0.41265   0.74927   0.95705   0.00000  Uiso   1.00
C340   C     0.50812   0.78604   0.75304   0.00000  Uiso   1.00
C341   C     0.53225   0.84556   0.74122   0.00000  Uiso   1.00
C342   C     0.60230   0.85310   0.72606   0.00000  Uiso   1.00
C343   C     0.41083   0.70529   0.71505   0.00000  Uiso   1.00
C344   C     0.35318   0.69692   0.67128   0.00000  Uiso   1.00
C345   C     0.34134   0.63648   0.62411   0.00000  Uiso   1.00
H346   H     0.54947   0.63579   0.76201   0.00000  Uiso   1.00
H347   H     0.52654   0.63317   0.89067   0.00000  Uiso   1.00
H348   H     0.65665   0.70440   0.73218   0.00000  Uiso   1.00
H349   H     0.47761   0.55578   0.66225   0.00000  Uiso   1.00
H350   H     0.48163   0.65242   0.03474   0.00000  Uiso   1.00
H351   H     0.75597   0.80261   0.70054   0.00000  Uiso   1.00
H352   H     0.37843   0.48922   0.55306   0.00000  Uiso   1.00
H353   H     0.39905   0.80644   0.77294   0.00000  Uiso   1.00
H354   H     0.36786   0.81318   0.90220   0.00000  Uiso   1.00
H355   H     0.49798   0.88441   0.74371   0.00000  Uiso   1.00
H356   H     0.31894   0.73580   0.67378   0.00000  Uiso   1.00
H357   H     0.35284   0.79853   0.04410   0.00000  Uiso   1.00
H358   H     0.62719   0.94871   0.70990   0.00000  Uiso   1.00
H359   H     0.24964   0.63533   0.56242   0.00000  Uiso   1.00
O360   O     0.39946   0.72684   0.12426   0.00000  Uiso   1.00
O361   O     0.75938   0.92388   0.68579   0.00000  Uiso   1.00
O362   O     0.26405   0.51272   0.49231   0.00000  Uiso   1.00
N363   N     0.45559   0.68587   0.01920   0.00000  Uiso   1.00
N364   N     0.71208   0.82629   0.70675   0.00000  Uiso   1.00
N365   N     0.35912   0.53331   0.56886   0.00000  Uiso   1.00
N366   N     0.38629   0.76449   0.02423   0.00000  Uiso   1.00
N367   N     0.64278   0.90491   0.71179   0.00000  Uiso   1.00
N368   N     0.28982   0.61193   0.57390   0.00000  Uiso   1.00
C369   C     0.92747   0.31839   0.81625   0.00000  Uiso   1.00
C370   C     0.92725   0.29629   0.88396   0.00000  Uiso   1.00
C371   C     0.97893   0.31245   0.93511   0.00000  Uiso   1.00
C372   C     0.96902   0.28733   0.99320   0.00000  Uiso   1.00
C373   C     0.97772   0.25910   0.09735   0.00000  Uiso   1.00
C374   C     0.86049   0.35245   0.81584   0.00000  Uiso   1.00
C375   C     0.85604   0.41583   0.80970   0.00000  Uiso   1.00
C376   C     0.78993   0.43798   0.81045   0.00000  Uiso   1.00
C377   C     0.69498   0.49692   0.80879   0.00000  Uiso   1.00
C378   C     0.91962   0.25619   0.75732   0.00000  Uiso   1.00
C379   C     0.96487   0.23863   0.70196   0.00000  Uiso   1.00
C380   C     0.94854   0.17975   0.65343   0.00000  Uiso   1.00
C381   C     0.94540   0.08923   0.56090   0.00000  Uiso   1.00
C382   C     0.81799   0.24505   0.82847   0.00000  Uiso   1.00
C383   C     0.86779   0.25645   0.89059   0.00000  Uiso   1.00
C384   C     0.85780   0.23130   0.94863   0.00000  Uiso   1.00
C385   C     0.90945   0.24742   0.99985   0.00000  Uiso   1.00
C386   C     0.80103   0.31261   0.82248   0.00000  Uiso   1.00
C387   C     0.73491   0.33468   0.82322   0.00000  Uiso   1.00
C388   C     0.73036   0.39807   0.81710   0.00000  Uiso   1.00
C389   C     0.86016   0.21635   0.76395   0.00000  Uiso   1.00
C390   C     0.84375   0.15748   0.71549   0.00000  Uiso   1.00
C391   C     0.88897   0.13984   0.66007   0.00000  Uiso   1.00
H392   H     0.97376   0.34941   0.81108   0.00000  Uiso   1.00
H393   H     0.02494   0.34329   0.92995   0.00000  Uiso   1.00
H394   H     0.90207   0.44664   0.80456   0.00000  Uiso   1.00
H395   H     0.01089   0.26948   0.69684   0.00000  Uiso   1.00
H396   H     0.05544   0.31895   0.06469   0.00000  Uiso   1.00
H397   H     0.79636   0.53687   0.80027   0.00000  Uiso   1.00
H398   H     0.02583   0.16328   0.57312   0.00000  Uiso   1.00
H399   H     0.77169   0.21403   0.83363   0.00000  Uiso   1.00
H400   H     0.81178   0.20047   0.95375   0.00000  Uiso   1.00
H401   H     0.68890   0.30383   0.82836   0.00000  Uiso   1.00
H402   H     0.79773   0.12666   0.72064   0.00000  Uiso   1.00
H403   H     0.88243   0.20303   0.08400   0.00000  Uiso   1.00
H404   H     0.62334   0.42096   0.81958   0.00000  Uiso   1.00
H405   H     0.85282   0.04737   0.59244   0.00000  Uiso   1.00
O406   O     0.99894   0.25453   0.15297   0.00000  Uiso   1.00
O407   O     0.65904   0.54044   0.80604   0.00000  Uiso   1.00
O408   O     0.96010   0.05030   0.50804   0.00000  Uiso   1.00
N409   N     0.00922   0.29352   0.05274   0.00000  Uiso   1.00
N410   N     0.76700   0.49727   0.80554   0.00000  Uiso   1.00
N411   N     0.98153   0.14800   0.59317   0.00000  Uiso   1.00
N412   N     0.91613   0.23114   0.06314   0.00000  Uiso   1.00
N413   N     0.67390   0.43490   0.81593   0.00000  Uiso   1.00
N414   N     0.88843   0.08563   0.60356   0.00000  Uiso   1.00
C415   C     0.18659   0.80018   0.44601   0.00000  Uiso   1.00
C416   C     0.24608   0.82182   0.49897   0.00000  Uiso   1.00
C417   C     0.24635   0.87323   0.55836   0.00000  Uiso   1.00
C418   C     0.30577   0.88523   0.60015   0.00000  Uiso   1.00
C419   C     0.38949   0.92465   0.68494   0.00000  Uiso   1.00
C420   C     0.21738   0.80246   0.37533   0.00000  Uiso   1.00
C421   C     0.19351   0.83759   0.33077   0.00000  Uiso   1.00
C422   C     0.22877   0.83329   0.26847   0.00000  Uiso   1.00
C423   C     0.26789   0.84262   0.16130   0.00000  Uiso   1.00
C424   C     0.16829   0.72821   0.44222   0.00000  Uiso   1.00
C425   C     0.10313   0.70090   0.45388   0.00000  Uiso   1.00
C426   C     0.09705   0.63407   0.44788   0.00000  Uiso   1.00
C427   C     0.05995   0.52811   0.44457   0.00000  Uiso   1.00
C428   C     0.29163   0.73007   0.41461   0.00000  Uiso   1.00
C429   C     0.30314   0.78374   0.48191   0.00000  Uiso   1.00
C430   C     0.36257   0.79566   0.52362   0.00000  Uiso   1.00
C431   C     0.36293   0.84708   0.58306   0.00000  Uiso   1.00
C432   C     0.27444   0.76438   0.35827   0.00000  Uiso   1.00
C433   C     0.30973   0.76002   0.29603   0.00000  Uiso   1.00
C434   C     0.28593   0.79514   0.25138   0.00000  Uiso   1.00
C435   C     0.22535   0.69013   0.42517   0.00000  Uiso   1.00
C436   C     0.21936   0.62333   0.41914   0.00000  Uiso   1.00
C437   C     0.15421   0.59592   0.43080   0.00000  Uiso   1.00
H438   H     0.14217   0.82983   0.45929   0.00000  Uiso   1.00
H439   H     0.20219   0.90270   0.57154   0.00000  Uiso   1.00
H440   H     0.14935   0.86705   0.34398   0.00000  Uiso   1.00
H441   H     0.05899   0.73038   0.46708   0.00000  Uiso   1.00
H442   H     0.29390   0.96670   0.68845   0.00000  Uiso   1.00
H443   H     0.18248   0.89154   0.20862   0.00000  Uiso   1.00
H444   H     0.99194   0.60333   0.46819   0.00000  Uiso   1.00
H445   H     0.33606   0.70042   0.40133   0.00000  Uiso   1.00
H446   H     0.40672   0.76618   0.51041   0.00000  Uiso   1.00
H447   H     0.35388   0.73055   0.28284   0.00000  Uiso   1.00
H448   H     0.26353   0.59387   0.40594   0.00000  Uiso   1.00
H449   H     0.45991   0.85591   0.63883   0.00000  Uiso   1.00
H450   H     0.34849   0.78074   0.15899   0.00000  Uiso   1.00
H451   H     0.15795   0.49254   0.41858   0.00000  Uiso   1.00
O452   O     0.41990   0.95692   0.73642   0.00000  Uiso   1.00
O453   O     0.27371   0.85830   0.10690   0.00000  Uiso   1.00
O454   O     0.02373   0.48018   0.44746   0.00000  Uiso   1.00
N455   N     0.32327   0.93159   0.66181   0.00000  Uiso   1.00
N456   N     0.21910   0.86133   0.21320   0.00000  Uiso   1.00
N457   N     0.04096   0.59188   0.45587   0.00000  Uiso   1.00
N458   N     0.41260   0.87198   0.63511   0.00000  Uiso   1.00
N459   N     0.30843   0.80171   0.18650   0.00000  Uiso   1.00
N460   N     0.13029   0.53226   0.42917   0.00000  Uiso   1.00
C461   C     0.88300   0.22269   0.31496   0.00000  Uiso   1.00
C462   C     0.87869   0.25191   0.39349   0.00000  Uiso   1.00
C463   C     0.89903   0.31585   0.42824   0.00000  Uiso   1.00
C464   C     0.89092   0.33307   0.50022   0.00000  Uiso   1.00
C465   C     0.88844   0.38530   0.61671   0.00000  Uiso   1.00
C466   C     0.92614   0.16365   0.30593   0.00000  Uiso   1.00
C467   C     0.98637   0.15337   0.26707   0.00000  Uiso   1.00
C468   C     0.01820   0.09629   0.26534   0.00000  Uiso   1.00
C469   C     0.08936   0.01147   0.24586   0.00000  Uiso   1.00
C470   C     0.80952   0.19556   0.29069   0.00000  Uiso   1.00
C471   C     0.77170   0.21209   0.23899   0.00000  Uiso   1.00
C472   C     0.70534   0.18185   0.22441   0.00000  Uiso   1.00
C473   C     0.59543   0.14656   0.18126   0.00000  Uiso   1.00
C474   C     0.83242   0.13958   0.38097   0.00000  Uiso   1.00
C475   C     0.85122   0.20677   0.42934   0.00000  Uiso   1.00
C476   C     0.84307   0.22389   0.50128   0.00000  Uiso   1.00
C477   C     0.86339   0.28784   0.53614   0.00000  Uiso   1.00
C478   C     0.89867   0.11851   0.34179   0.00000  Uiso   1.00
C479   C     0.93041   0.06142   0.34011   0.00000  Uiso   1.00
C480   C     0.99068   0.05106   0.30126   0.00000  Uiso   1.00
C481   C     0.78204   0.15041   0.32654   0.00000  Uiso   1.00
C482   C     0.71574   0.12014   0.31204   0.00000  Uiso   1.00
C483   C     0.67782   0.13662   0.26033   0.00000  Uiso   1.00
H484   H     0.90439   0.25784   0.28704   0.00000  Uiso   1.00
H485   H     0.92030   0.35077   0.40048   0.00000  Uiso   1.00
H486   H     0.00762   0.18831   0.23932   0.00000  Uiso   1.00
H487   H     0.79298   0.24702   0.21125   0.00000  Uiso   1.00
H488   H     0.92584   0.43388   0.54206   0.00000  Uiso   1.00
H489   H     0.10995   0.09133   0.20225   0.00000  Uiso   1.00
H490   H     0.65733   0.21513   0.14304   0.00000  Uiso   1.00
H491   H     0.81103   0.10443   0.40889   0.00000  Uiso   1.00
H492   H     0.82181   0.18895   0.52902   0.00000  Uiso   1.00
H493   H     0.90913   0.02650   0.36787   0.00000  Uiso   1.00
H494   H     0.69449   0.08521   0.33979   0.00000  Uiso   1.00
H495   H     0.84590   0.30255   0.64639   0.00000  Uiso   1.00
H496   H     0.03001   0.95999   0.30657   0.00000  Uiso   1.00
H497   H     0.57740   0.08379   0.24738   0.00000  Uiso   1.00
O498   O     0.89467   0.42657   0.67105   0.00000  Uiso   1.00
O499   O     0.13620   0.97716   0.22522   0.00000  Uiso   1.00
O500   O     0.54239   0.13958   0.14755   0.00000  Uiso   1.00
N501   N     0.90553   0.39138   0.55013   0.00000  Uiso   1.00
N502   N     0.07767   0.07112   0.23243   0.00000  Uiso   1.00
N503   N     0.65452   0.18685   0.17707   0.00000  Uiso   1.00
N504   N     0.86252   0.32071   0.60627   0.00000  Uiso   1.00
N505   N     0.03466   0.00045   0.28857   0.00000  Uiso   1.00
N506   N     0.61151   0.11617   0.23321   0.00000  Uiso   1.00
C507   C     0.30992   0.16130   0.93325   0.00000  Uiso   1.00
C508   C     0.34411   0.22265   0.91654   0.00000  Uiso   1.00
C509   C     0.40834   0.22747   0.88541   0.00000  Uiso   1.00
C510   C     0.43047   0.28788   0.87456   0.00000  Uiso   1.00
C511   C     0.48976   0.37499   0.84567   0.00000  Uiso   1.00
C512   C     0.29517   0.17976   0.01135   0.00000  Uiso   1.00
C513   C     0.31825   0.14851   0.05992   0.00000  Uiso   1.00
C514   C     0.29918   0.17282   0.12889   0.00000  Uiso   1.00
C515   C     0.28245   0.19332   0.24718   0.00000  Uiso   1.00
C516   C     0.23915   0.14916   0.89660   0.00000  Uiso   1.00
C517   C     0.21511   0.09217   0.84870   0.00000  Uiso   1.00
C518   C     0.14887   0.09071   0.82106   0.00000  Uiso   1.00
C519   C     0.04516   0.06369   0.76118   0.00000  Uiso   1.00
C520   C     0.23500   0.26004   0.96935   0.00000  Uiso   1.00
C521   C     0.30341   0.27628   0.93615   0.00000  Uiso   1.00
C522   C     0.32545   0.33671   0.92535   0.00000  Uiso   1.00
C523   C     0.38971   0.34161   0.89420   0.00000  Uiso   1.00
C524   C     0.25448   0.23339   0.03096   0.00000  Uiso   1.00
C525   C     0.23537   0.25776   0.09987   0.00000  Uiso   1.00
C526   C     0.25842   0.22655   0.14853   0.00000  Uiso   1.00
C527   C     0.19846   0.20279   0.91621   0.00000  Uiso   1.00
C528   C     0.13223   0.20142   0.88864   0.00000  Uiso   1.00
C529   C     0.10810   0.14444   0.84070   0.00000  Uiso   1.00
H530   H     0.34160   0.11955   0.91799   0.00000  Uiso   1.00
H531   H     0.43981   0.18595   0.87024   0.00000  Uiso   1.00
H532   H     0.34973   0.10700   0.04473   0.00000  Uiso   1.00
H533   H     0.24662   0.05067   0.83354   0.00000  Uiso   1.00
H534   H     0.53077   0.28323   0.82598   0.00000  Uiso   1.00
H535   H     0.34082   0.11675   0.19390   0.00000  Uiso   1.00
H536   H     0.12337   0.99797   0.74855   0.00000  Uiso   1.00
H537   H     0.20332   0.30180   0.98462   0.00000  Uiso   1.00
H538   H     0.29395   0.37821   0.94053   0.00000  Uiso   1.00
H539   H     0.20388   0.29926   0.11502   0.00000  Uiso   1.00
H540   H     0.10076   0.24293   0.90383   0.00000  Uiso   1.00
H541   H     0.41239   0.43927   0.88303   0.00000  Uiso   1.00
H542   H     0.22243   0.27279   0.25095   0.00000  Uiso   1.00
H543   H     0.00498   0.15401   0.80560   0.00000  Uiso   1.00
O544   O     0.53370   0.40823   0.82432   0.00000  Uiso   1.00
O545   O     0.28448   0.18981   0.30701   0.00000  Uiso   1.00
O546   O     0.99920   0.03397   0.72273   0.00000  Uiso   1.00
N547   N     0.49047   0.30946   0.84545   0.00000  Uiso   1.00
N548   N     0.31288   0.15382   0.18943   0.00000  Uiso   1.00
N549   N     0.10958   0.04276   0.77308   0.00000  Uiso   1.00
N550   N     0.42676   0.39343   0.87614   0.00000  Uiso   1.00
N551   N     0.24918   0.23779   0.22013   0.00000  Uiso   1.00
N552   N     0.04587   0.12673   0.80378   0.00000  Uiso   1.00
