data_job_01872
_audit_creation_date              2018-12-19
_audit_creation_method            'Materials Studio'
_symmetry_space_group_name_H-M    'P1'
_symmetry_Int_Tables_number       1
_symmetry_cell_setting            triclinic
loop_
_symmetry_equiv_pos_as_xyz
  x,y,z
_cell_length_a                    7.0618
_cell_length_b                    30.5588
_cell_length_c                    42.3162
_cell_angle_alpha                 90.0000
_cell_angle_beta                  102.9130
_cell_angle_gamma                 90.0000
loop_
_atom_site_label
_atom_site_type_symbol
_atom_site_fract_x
_atom_site_fract_y
_atom_site_fract_z
_atom_site_U_iso_or_equiv
_atom_site_adp_type
_atom_site_occupancy
C1     C     0.87858   0.70350   0.08560   0.00000  Uiso   1.00
C2     C     0.89718   0.66111   0.06752   0.00000  Uiso   1.00
C3     C     0.74418   0.63503   0.05175   0.00000  Uiso   1.00
C4     C     0.79146   0.59754   0.03664   0.00000  Uiso   1.00
C5     C     0.79093   0.53338   0.00848   0.00000  Uiso   1.00
C6     C     0.99963   0.69709   0.11994   0.00000  Uiso   1.00
C7     C     0.93275   0.70127   0.14824   0.00000  Uiso   1.00
C8     C     0.06629   0.69409   0.17725   0.00000  Uiso   1.00
C9     C     0.22485   0.68582   0.23048   0.00000  Uiso   1.00
C10    C     0.98293   0.73846   0.07017   0.00000  Uiso   1.00
C11    C     0.90203   0.77742   0.05664   0.00000  Uiso   1.00
C12    C     0.02152   0.80507   0.04376   0.00000  Uiso   1.00
C13    C     0.15414   0.86102   0.01972   0.00000  Uiso   1.00
C14    C     0.23464   0.68331   0.08681   0.00000  Uiso   1.00
C15    C     0.09059   0.65014   0.06818   0.00000  Uiso   1.00
C16    C     0.13811   0.61269   0.05309   0.00000  Uiso   1.00
C17    C     0.98520   0.58656   0.03730   0.00000  Uiso   1.00
C18    C     0.19302   0.68613   0.12060   0.00000  Uiso   1.00
C19    C     0.32669   0.67894   0.14958   0.00000  Uiso   1.00
C20    C     0.26004   0.68310   0.17792   0.00000  Uiso   1.00
C21    C     0.17633   0.72749   0.07083   0.00000  Uiso   1.00
C22    C     0.29597   0.75508   0.05798   0.00000  Uiso   1.00
C23    C     0.21527   0.79408   0.04443   0.00000  Uiso   1.00
H24    H     0.72801   0.71203   0.08508   0.00000  Uiso   1.00
H25    H     0.59453   0.64352   0.05124   0.00000  Uiso   1.00
H26    H     0.78309   0.70976   0.14772   0.00000  Uiso   1.00
H27    H     0.75237   0.78590   0.05613   0.00000  Uiso   1.00
H28    H     0.53182   0.56272   0.01403   0.00000  Uiso   1.00
H29    H     0.92943   0.70241   0.21744   0.00000  Uiso   1.00
H30    H     0.86464   0.86295   0.02432   0.00000  Uiso   1.00
H31    H     0.38521   0.67477   0.08733   0.00000  Uiso   1.00
H32    H     0.28779   0.60421   0.05361   0.00000  Uiso   1.00
H33    H     0.47634   0.67046   0.15008   0.00000  Uiso   1.00
H34    H     0.44562   0.74659   0.05850   0.00000  Uiso   1.00
H35    H     0.09450   0.53081   0.01595   0.00000  Uiso   1.00
H36    H     0.49211   0.67050   0.21937   0.00000  Uiso   1.00
H37    H     0.42732   0.83104   0.02624   0.00000  Uiso   1.00
O38    O     0.73722   0.50101   0.99277   0.00000  Uiso   1.00
O39    O     0.25886   0.68429   0.25965   0.00000  Uiso   1.00
O40    O     0.17386   0.89491   0.00627   0.00000  Uiso   1.00
N41    N     0.67762   0.56489   0.01910   0.00000  Uiso   1.00
N42    N     0.04935   0.69549   0.20928   0.00000  Uiso   1.00
N43    N     0.98879   0.84559   0.02873   0.00000  Uiso   1.00
N44    N     0.98039   0.54773   0.02013   0.00000  Uiso   1.00
N45    N     0.35212   0.67832   0.21032   0.00000  Uiso   1.00
N46    N     0.29156   0.82842   0.02977   0.00000  Uiso   1.00
C47    C     0.37858   0.20350   0.08560   0.00000  Uiso   1.00
C48    C     0.39718   0.16111   0.06752   0.00000  Uiso   1.00
C49    C     0.24418   0.13503   0.05175   0.00000  Uiso   1.00
C50    C     0.29146   0.09754   0.03664   0.00000  Uiso   1.00
C51    C     0.29093   0.03338   0.00848   0.00000  Uiso   1.00
C52    C     0.49963   0.19709   0.11994   0.00000  Uiso   1.00
C53    C     0.43275   0.20127   0.14824   0.00000  Uiso   1.00
C54    C     0.56629   0.19409   0.17725   0.00000  Uiso   1.00
C55    C     0.72485   0.18582   0.23048   0.00000  Uiso   1.00
C56    C     0.48293   0.23846   0.07017   0.00000  Uiso   1.00
C57    C     0.40203   0.27742   0.05664   0.00000  Uiso   1.00
C58    C     0.52152   0.30507   0.04376   0.00000  Uiso   1.00
C59    C     0.65414   0.36102   0.01972   0.00000  Uiso   1.00
C60    C     0.73464   0.18331   0.08681   0.00000  Uiso   1.00
C61    C     0.59059   0.15014   0.06818   0.00000  Uiso   1.00
C62    C     0.63811   0.11269   0.05309   0.00000  Uiso   1.00
C63    C     0.48520   0.08656   0.03730   0.00000  Uiso   1.00
C64    C     0.69302   0.18613   0.12060   0.00000  Uiso   1.00
C65    C     0.82669   0.17894   0.14958   0.00000  Uiso   1.00
C66    C     0.76004   0.18310   0.17792   0.00000  Uiso   1.00
C67    C     0.67633   0.22749   0.07083   0.00000  Uiso   1.00
C68    C     0.79597   0.25508   0.05798   0.00000  Uiso   1.00
C69    C     0.71527   0.29408   0.04443   0.00000  Uiso   1.00
H70    H     0.22801   0.21203   0.08508   0.00000  Uiso   1.00
H71    H     0.09453   0.14352   0.05124   0.00000  Uiso   1.00
H72    H     0.28309   0.20976   0.14772   0.00000  Uiso   1.00
H73    H     0.25237   0.28590   0.05613   0.00000  Uiso   1.00
H74    H     0.03182   0.06272   0.01403   0.00000  Uiso   1.00
H75    H     0.42943   0.20241   0.21744   0.00000  Uiso   1.00
H76    H     0.36464   0.36295   0.02432   0.00000  Uiso   1.00
H77    H     0.88521   0.17477   0.08733   0.00000  Uiso   1.00
H78    H     0.78779   0.10421   0.05361   0.00000  Uiso   1.00
H79    H     0.97634   0.17046   0.15008   0.00000  Uiso   1.00
H80    H     0.94562   0.24659   0.05850   0.00000  Uiso   1.00
H81    H     0.59450   0.03081   0.01595   0.00000  Uiso   1.00
H82    H     0.99211   0.17050   0.21937   0.00000  Uiso   1.00
H83    H     0.92732   0.33104   0.02624   0.00000  Uiso   1.00
O84    O     0.23722   0.00101   0.99277   0.00000  Uiso   1.00
O85    O     0.75886   0.18429   0.25965   0.00000  Uiso   1.00
O86    O     0.67386   0.39491   0.00627   0.00000  Uiso   1.00
N87    N     0.17762   0.06489   0.01910   0.00000  Uiso   1.00
N88    N     0.54935   0.19549   0.20928   0.00000  Uiso   1.00
N89    N     0.48879   0.34559   0.02873   0.00000  Uiso   1.00
N90    N     0.48039   0.04773   0.02013   0.00000  Uiso   1.00
N91    N     0.85212   0.17832   0.21032   0.00000  Uiso   1.00
N92    N     0.79156   0.32842   0.02977   0.00000  Uiso   1.00
C93    C     0.12142   0.70350   0.41440   0.00000  Uiso   1.00
C94    C     0.10282   0.66111   0.43248   0.00000  Uiso   1.00
C95    C     0.25582   0.63503   0.44825   0.00000  Uiso   1.00
C96    C     0.20854   0.59754   0.46336   0.00000  Uiso   1.00
C97    C     0.20907   0.53338   0.49152   0.00000  Uiso   1.00
C98    C     0.00037   0.69709   0.38006   0.00000  Uiso   1.00
C99    C     0.06725   0.70127   0.35176   0.00000  Uiso   1.00
C100   C     0.93371   0.69409   0.32275   0.00000  Uiso   1.00
C101   C     0.77515   0.68582   0.26952   0.00000  Uiso   1.00
C102   C     0.01707   0.73846   0.42983   0.00000  Uiso   1.00
C103   C     0.09797   0.77742   0.44336   0.00000  Uiso   1.00
C104   C     0.97848   0.80507   0.45624   0.00000  Uiso   1.00
C105   C     0.84586   0.86102   0.48028   0.00000  Uiso   1.00
C106   C     0.76536   0.68331   0.41319   0.00000  Uiso   1.00
C107   C     0.90941   0.65014   0.43182   0.00000  Uiso   1.00
C108   C     0.86189   0.61269   0.44691   0.00000  Uiso   1.00
C109   C     0.01480   0.58656   0.46270   0.00000  Uiso   1.00
C110   C     0.80698   0.68613   0.37940   0.00000  Uiso   1.00
C111   C     0.67331   0.67894   0.35042   0.00000  Uiso   1.00
C112   C     0.73996   0.68310   0.32208   0.00000  Uiso   1.00
C113   C     0.82367   0.72749   0.42917   0.00000  Uiso   1.00
C114   C     0.70403   0.75508   0.44202   0.00000  Uiso   1.00
C115   C     0.78473   0.79408   0.45557   0.00000  Uiso   1.00
H116   H     0.27199   0.71203   0.41492   0.00000  Uiso   1.00
H117   H     0.40547   0.64352   0.44876   0.00000  Uiso   1.00
H118   H     0.21691   0.70976   0.35228   0.00000  Uiso   1.00
H119   H     0.24763   0.78590   0.44387   0.00000  Uiso   1.00
H120   H     0.46818   0.56272   0.48597   0.00000  Uiso   1.00
H121   H     0.07057   0.70241   0.28256   0.00000  Uiso   1.00
H122   H     0.13536   0.86295   0.47568   0.00000  Uiso   1.00
H123   H     0.61479   0.67477   0.41267   0.00000  Uiso   1.00
H124   H     0.71221   0.60421   0.44639   0.00000  Uiso   1.00
H125   H     0.52366   0.67046   0.34992   0.00000  Uiso   1.00
H126   H     0.55438   0.74659   0.44150   0.00000  Uiso   1.00
H127   H     0.90550   0.53081   0.48405   0.00000  Uiso   1.00
H128   H     0.50789   0.67050   0.28063   0.00000  Uiso   1.00
H129   H     0.57268   0.83104   0.47376   0.00000  Uiso   1.00
O130   O     0.26278   0.50101   0.50723   0.00000  Uiso   1.00
O131   O     0.74114   0.68429   0.24035   0.00000  Uiso   1.00
O132   O     0.82614   0.89491   0.49373   0.00000  Uiso   1.00
N133   N     0.32238   0.56489   0.48090   0.00000  Uiso   1.00
N134   N     0.95065   0.69549   0.29072   0.00000  Uiso   1.00
N135   N     0.01121   0.84559   0.47127   0.00000  Uiso   1.00
N136   N     0.01961   0.54773   0.47987   0.00000  Uiso   1.00
N137   N     0.64788   0.67832   0.28968   0.00000  Uiso   1.00
N138   N     0.70844   0.82842   0.47023   0.00000  Uiso   1.00
C139   C     0.62142   0.20350   0.41440   0.00000  Uiso   1.00
C140   C     0.60282   0.16111   0.43248   0.00000  Uiso   1.00
C141   C     0.75582   0.13503   0.44825   0.00000  Uiso   1.00
C142   C     0.70854   0.09754   0.46336   0.00000  Uiso   1.00
C143   C     0.70907   0.03338   0.49152   0.00000  Uiso   1.00
C144   C     0.50037   0.19709   0.38006   0.00000  Uiso   1.00
C145   C     0.56725   0.20127   0.35176   0.00000  Uiso   1.00
C146   C     0.43371   0.19409   0.32275   0.00000  Uiso   1.00
C147   C     0.27515   0.18582   0.26952   0.00000  Uiso   1.00
C148   C     0.51707   0.23846   0.42983   0.00000  Uiso   1.00
C149   C     0.59797   0.27742   0.44336   0.00000  Uiso   1.00
C150   C     0.47848   0.30507   0.45624   0.00000  Uiso   1.00
C151   C     0.34586   0.36102   0.48028   0.00000  Uiso   1.00
C152   C     0.26536   0.18331   0.41319   0.00000  Uiso   1.00
C153   C     0.40941   0.15014   0.43182   0.00000  Uiso   1.00
C154   C     0.36189   0.11269   0.44691   0.00000  Uiso   1.00
C155   C     0.51480   0.08656   0.46270   0.00000  Uiso   1.00
C156   C     0.30698   0.18613   0.37940   0.00000  Uiso   1.00
C157   C     0.17331   0.17894   0.35042   0.00000  Uiso   1.00
C158   C     0.23996   0.18310   0.32208   0.00000  Uiso   1.00
C159   C     0.32367   0.22749   0.42917   0.00000  Uiso   1.00
C160   C     0.20403   0.25508   0.44202   0.00000  Uiso   1.00
C161   C     0.28473   0.29408   0.45557   0.00000  Uiso   1.00
H162   H     0.77199   0.21203   0.41492   0.00000  Uiso   1.00
H163   H     0.90547   0.14352   0.44876   0.00000  Uiso   1.00
H164   H     0.71691   0.20976   0.35228   0.00000  Uiso   1.00
H165   H     0.74763   0.28590   0.44387   0.00000  Uiso   1.00
H166   H     0.96818   0.06272   0.48597   0.00000  Uiso   1.00
H167   H     0.57057   0.20241   0.28256   0.00000  Uiso   1.00
H168   H     0.63536   0.36295   0.47568   0.00000  Uiso   1.00
H169   H     0.11479   0.17477   0.41267   0.00000  Uiso   1.00
H170   H     0.21221   0.10421   0.44639   0.00000  Uiso   1.00
H171   H     0.02366   0.17046   0.34992   0.00000  Uiso   1.00
H172   H     0.05438   0.24659   0.44150   0.00000  Uiso   1.00
H173   H     0.40550   0.03081   0.48405   0.00000  Uiso   1.00
H174   H     0.00789   0.17050   0.28063   0.00000  Uiso   1.00
H175   H     0.07268   0.33104   0.47376   0.00000  Uiso   1.00
O176   O     0.76278   0.00101   0.50723   0.00000  Uiso   1.00
O177   O     0.24114   0.18429   0.24035   0.00000  Uiso   1.00
O178   O     0.32614   0.39491   0.49373   0.00000  Uiso   1.00
N179   N     0.82238   0.06489   0.48090   0.00000  Uiso   1.00
N180   N     0.45065   0.19549   0.29072   0.00000  Uiso   1.00
N181   N     0.51121   0.34559   0.47127   0.00000  Uiso   1.00
N182   N     0.51961   0.04773   0.47987   0.00000  Uiso   1.00
N183   N     0.14788   0.17832   0.28968   0.00000  Uiso   1.00
N184   N     0.20844   0.32842   0.47023   0.00000  Uiso   1.00
C185   C     0.12142   0.29650   0.91440   0.00000  Uiso   1.00
C186   C     0.10282   0.33889   0.93248   0.00000  Uiso   1.00
C187   C     0.25582   0.36497   0.94825   0.00000  Uiso   1.00
C188   C     0.20854   0.40246   0.96336   0.00000  Uiso   1.00
C189   C     0.20907   0.46662   0.99152   0.00000  Uiso   1.00
C190   C     0.00037   0.30291   0.88006   0.00000  Uiso   1.00
C191   C     0.06725   0.29873   0.85176   0.00000  Uiso   1.00
C192   C     0.93371   0.30591   0.82275   0.00000  Uiso   1.00
C193   C     0.77515   0.31418   0.76952   0.00000  Uiso   1.00
C194   C     0.01707   0.26154   0.92983   0.00000  Uiso   1.00
C195   C     0.09797   0.22258   0.94336   0.00000  Uiso   1.00
C196   C     0.97848   0.19493   0.95624   0.00000  Uiso   1.00
C197   C     0.84586   0.13898   0.98028   0.00000  Uiso   1.00
C198   C     0.76536   0.31669   0.91319   0.00000  Uiso   1.00
C199   C     0.90941   0.34986   0.93182   0.00000  Uiso   1.00
C200   C     0.86189   0.38731   0.94691   0.00000  Uiso   1.00
C201   C     0.01480   0.41344   0.96270   0.00000  Uiso   1.00
C202   C     0.80698   0.31387   0.87940   0.00000  Uiso   1.00
C203   C     0.67331   0.32106   0.85042   0.00000  Uiso   1.00
C204   C     0.73996   0.31690   0.82208   0.00000  Uiso   1.00
C205   C     0.82367   0.27251   0.92917   0.00000  Uiso   1.00
C206   C     0.70403   0.24492   0.94202   0.00000  Uiso   1.00
C207   C     0.78473   0.20592   0.95557   0.00000  Uiso   1.00
H208   H     0.27199   0.28797   0.91492   0.00000  Uiso   1.00
H209   H     0.40547   0.35648   0.94876   0.00000  Uiso   1.00
H210   H     0.21691   0.29024   0.85228   0.00000  Uiso   1.00
H211   H     0.24763   0.21410   0.94387   0.00000  Uiso   1.00
H212   H     0.46818   0.43728   0.98597   0.00000  Uiso   1.00
H213   H     0.07057   0.29759   0.78256   0.00000  Uiso   1.00
H214   H     0.13536   0.13705   0.97568   0.00000  Uiso   1.00
H215   H     0.61479   0.32523   0.91267   0.00000  Uiso   1.00
H216   H     0.71221   0.39579   0.94639   0.00000  Uiso   1.00
H217   H     0.52366   0.32954   0.84992   0.00000  Uiso   1.00
H218   H     0.55438   0.25341   0.94150   0.00000  Uiso   1.00
H219   H     0.90550   0.46919   0.98405   0.00000  Uiso   1.00
H220   H     0.50789   0.32950   0.78063   0.00000  Uiso   1.00
H221   H     0.57268   0.16896   0.97376   0.00000  Uiso   1.00
O222   O     0.26278   0.49899   0.00723   0.00000  Uiso   1.00
O223   O     0.74114   0.31571   0.74035   0.00000  Uiso   1.00
O224   O     0.82614   0.10509   0.99373   0.00000  Uiso   1.00
N225   N     0.32238   0.43511   0.98090   0.00000  Uiso   1.00
N226   N     0.95065   0.30451   0.79072   0.00000  Uiso   1.00
N227   N     0.01121   0.15441   0.97127   0.00000  Uiso   1.00
N228   N     0.01961   0.45227   0.97987   0.00000  Uiso   1.00
N229   N     0.64788   0.32168   0.78968   0.00000  Uiso   1.00
N230   N     0.70844   0.17158   0.97023   0.00000  Uiso   1.00
C231   C     0.62142   0.79650   0.91440   0.00000  Uiso   1.00
C232   C     0.60282   0.83889   0.93248   0.00000  Uiso   1.00
C233   C     0.75582   0.86497   0.94825   0.00000  Uiso   1.00
C234   C     0.70854   0.90246   0.96336   0.00000  Uiso   1.00
C235   C     0.70907   0.96662   0.99152   0.00000  Uiso   1.00
C236   C     0.50037   0.80291   0.88006   0.00000  Uiso   1.00
C237   C     0.56725   0.79873   0.85176   0.00000  Uiso   1.00
C238   C     0.43371   0.80591   0.82275   0.00000  Uiso   1.00
C239   C     0.27515   0.81418   0.76952   0.00000  Uiso   1.00
C240   C     0.51707   0.76154   0.92983   0.00000  Uiso   1.00
C241   C     0.59797   0.72258   0.94336   0.00000  Uiso   1.00
C242   C     0.47848   0.69493   0.95624   0.00000  Uiso   1.00
C243   C     0.34586   0.63898   0.98028   0.00000  Uiso   1.00
C244   C     0.26536   0.81669   0.91319   0.00000  Uiso   1.00
C245   C     0.40941   0.84986   0.93182   0.00000  Uiso   1.00
C246   C     0.36189   0.88731   0.94691   0.00000  Uiso   1.00
C247   C     0.51480   0.91344   0.96270   0.00000  Uiso   1.00
C248   C     0.30698   0.81387   0.87940   0.00000  Uiso   1.00
C249   C     0.17331   0.82106   0.85042   0.00000  Uiso   1.00
C250   C     0.23996   0.81690   0.82208   0.00000  Uiso   1.00
C251   C     0.32367   0.77251   0.92917   0.00000  Uiso   1.00
C252   C     0.20403   0.74492   0.94202   0.00000  Uiso   1.00
C253   C     0.28473   0.70592   0.95557   0.00000  Uiso   1.00
H254   H     0.77199   0.78797   0.91492   0.00000  Uiso   1.00
H255   H     0.90547   0.85648   0.94876   0.00000  Uiso   1.00
H256   H     0.71691   0.79024   0.85228   0.00000  Uiso   1.00
H257   H     0.74763   0.71410   0.94387   0.00000  Uiso   1.00
H258   H     0.96818   0.93728   0.98597   0.00000  Uiso   1.00
H259   H     0.57057   0.79759   0.78256   0.00000  Uiso   1.00
H260   H     0.63536   0.63705   0.97568   0.00000  Uiso   1.00
H261   H     0.11479   0.82523   0.91267   0.00000  Uiso   1.00
H262   H     0.21221   0.89579   0.94639   0.00000  Uiso   1.00
H263   H     0.02366   0.82954   0.84992   0.00000  Uiso   1.00
H264   H     0.05438   0.75341   0.94150   0.00000  Uiso   1.00
H265   H     0.40550   0.96919   0.98405   0.00000  Uiso   1.00
H266   H     0.00789   0.82950   0.78063   0.00000  Uiso   1.00
H267   H     0.07268   0.66896   0.97376   0.00000  Uiso   1.00
O268   O     0.76278   0.99899   0.00723   0.00000  Uiso   1.00
O269   O     0.24114   0.81571   0.74035   0.00000  Uiso   1.00
O270   O     0.32614   0.60509   0.99373   0.00000  Uiso   1.00
N271   N     0.82238   0.93511   0.98090   0.00000  Uiso   1.00
N272   N     0.45065   0.80451   0.79072   0.00000  Uiso   1.00
N273   N     0.51121   0.65441   0.97127   0.00000  Uiso   1.00
N274   N     0.51961   0.95227   0.97987   0.00000  Uiso   1.00
N275   N     0.14788   0.82168   0.78968   0.00000  Uiso   1.00
N276   N     0.20844   0.67158   0.97023   0.00000  Uiso   1.00
C277   C     0.87858   0.29650   0.58560   0.00000  Uiso   1.00
C278   C     0.89718   0.33889   0.56752   0.00000  Uiso   1.00
C279   C     0.74418   0.36497   0.55175   0.00000  Uiso   1.00
C280   C     0.79146   0.40246   0.53664   0.00000  Uiso   1.00
C281   C     0.79093   0.46662   0.50848   0.00000  Uiso   1.00
C282   C     0.99963   0.30291   0.61994   0.00000  Uiso   1.00
C283   C     0.93275   0.29873   0.64824   0.00000  Uiso   1.00
C284   C     0.06629   0.30591   0.67725   0.00000  Uiso   1.00
C285   C     0.22485   0.31418   0.73048   0.00000  Uiso   1.00
C286   C     0.98293   0.26154   0.57017   0.00000  Uiso   1.00
C287   C     0.90203   0.22258   0.55664   0.00000  Uiso   1.00
C288   C     0.02152   0.19493   0.54376   0.00000  Uiso   1.00
C289   C     0.15414   0.13898   0.51972   0.00000  Uiso   1.00
C290   C     0.23464   0.31669   0.58681   0.00000  Uiso   1.00
C291   C     0.09059   0.34986   0.56818   0.00000  Uiso   1.00
C292   C     0.13811   0.38731   0.55309   0.00000  Uiso   1.00
C293   C     0.98520   0.41344   0.53730   0.00000  Uiso   1.00
C294   C     0.19302   0.31387   0.62060   0.00000  Uiso   1.00
C295   C     0.32669   0.32106   0.64958   0.00000  Uiso   1.00
C296   C     0.26004   0.31690   0.67792   0.00000  Uiso   1.00
C297   C     0.17633   0.27251   0.57083   0.00000  Uiso   1.00
C298   C     0.29597   0.24492   0.55798   0.00000  Uiso   1.00
C299   C     0.21527   0.20592   0.54443   0.00000  Uiso   1.00
H300   H     0.72801   0.28797   0.58508   0.00000  Uiso   1.00
H301   H     0.59453   0.35648   0.55124   0.00000  Uiso   1.00
H302   H     0.78309   0.29024   0.64772   0.00000  Uiso   1.00
H303   H     0.75237   0.21410   0.55613   0.00000  Uiso   1.00
H304   H     0.53182   0.43728   0.51403   0.00000  Uiso   1.00
H305   H     0.92943   0.29759   0.71744   0.00000  Uiso   1.00
H306   H     0.86464   0.13705   0.52432   0.00000  Uiso   1.00
H307   H     0.38521   0.32523   0.58733   0.00000  Uiso   1.00
H308   H     0.28779   0.39579   0.55361   0.00000  Uiso   1.00
H309   H     0.47634   0.32954   0.65008   0.00000  Uiso   1.00
H310   H     0.44562   0.25341   0.55850   0.00000  Uiso   1.00
H311   H     0.09450   0.46919   0.51595   0.00000  Uiso   1.00
H312   H     0.49211   0.32950   0.71937   0.00000  Uiso   1.00
H313   H     0.42732   0.16896   0.52624   0.00000  Uiso   1.00
O314   O     0.73722   0.49899   0.49277   0.00000  Uiso   1.00
O315   O     0.25886   0.31571   0.75965   0.00000  Uiso   1.00
O316   O     0.17386   0.10509   0.50627   0.00000  Uiso   1.00
N317   N     0.67762   0.43511   0.51910   0.00000  Uiso   1.00
N318   N     0.04935   0.30451   0.70928   0.00000  Uiso   1.00
N319   N     0.98879   0.15441   0.52873   0.00000  Uiso   1.00
N320   N     0.98039   0.45227   0.52013   0.00000  Uiso   1.00
N321   N     0.35212   0.32168   0.71032   0.00000  Uiso   1.00
N322   N     0.29156   0.17158   0.52977   0.00000  Uiso   1.00
C323   C     0.37858   0.79650   0.58560   0.00000  Uiso   1.00
C324   C     0.39718   0.83889   0.56752   0.00000  Uiso   1.00
C325   C     0.24418   0.86497   0.55175   0.00000  Uiso   1.00
C326   C     0.29146   0.90246   0.53664   0.00000  Uiso   1.00
C327   C     0.29093   0.96662   0.50848   0.00000  Uiso   1.00
C328   C     0.49963   0.80291   0.61994   0.00000  Uiso   1.00
C329   C     0.43275   0.79873   0.64824   0.00000  Uiso   1.00
C330   C     0.56629   0.80591   0.67725   0.00000  Uiso   1.00
C331   C     0.72485   0.81418   0.73048   0.00000  Uiso   1.00
C332   C     0.48293   0.76154   0.57017   0.00000  Uiso   1.00
C333   C     0.40203   0.72258   0.55664   0.00000  Uiso   1.00
C334   C     0.52152   0.69493   0.54376   0.00000  Uiso   1.00
C335   C     0.65414   0.63898   0.51972   0.00000  Uiso   1.00
C336   C     0.73464   0.81669   0.58681   0.00000  Uiso   1.00
C337   C     0.59059   0.84986   0.56818   0.00000  Uiso   1.00
C338   C     0.63811   0.88731   0.55309   0.00000  Uiso   1.00
C339   C     0.48520   0.91344   0.53730   0.00000  Uiso   1.00
C340   C     0.69302   0.81387   0.62060   0.00000  Uiso   1.00
C341   C     0.82669   0.82106   0.64958   0.00000  Uiso   1.00
C342   C     0.76004   0.81690   0.67792   0.00000  Uiso   1.00
C343   C     0.67633   0.77251   0.57083   0.00000  Uiso   1.00
C344   C     0.79597   0.74492   0.55798   0.00000  Uiso   1.00
C345   C     0.71527   0.70592   0.54443   0.00000  Uiso   1.00
H346   H     0.22801   0.78797   0.58508   0.00000  Uiso   1.00
H347   H     0.09453   0.85648   0.55124   0.00000  Uiso   1.00
H348   H     0.28309   0.79024   0.64772   0.00000  Uiso   1.00
H349   H     0.25237   0.71410   0.55613   0.00000  Uiso   1.00
H350   H     0.03182   0.93728   0.51403   0.00000  Uiso   1.00
H351   H     0.42943   0.79759   0.71744   0.00000  Uiso   1.00
H352   H     0.36464   0.63705   0.52432   0.00000  Uiso   1.00
H353   H     0.88521   0.82523   0.58733   0.00000  Uiso   1.00
H354   H     0.78779   0.89579   0.55361   0.00000  Uiso   1.00
H355   H     0.97634   0.82954   0.65008   0.00000  Uiso   1.00
H356   H     0.94562   0.75341   0.55850   0.00000  Uiso   1.00
H357   H     0.59450   0.96919   0.51595   0.00000  Uiso   1.00
H358   H     0.99211   0.82950   0.71937   0.00000  Uiso   1.00
H359   H     0.92732   0.66896   0.52624   0.00000  Uiso   1.00
O360   O     0.23722   0.99899   0.49277   0.00000  Uiso   1.00
O361   O     0.75886   0.81571   0.75965   0.00000  Uiso   1.00
O362   O     0.67386   0.60509   0.50627   0.00000  Uiso   1.00
N363   N     0.17762   0.93511   0.51910   0.00000  Uiso   1.00
N364   N     0.54935   0.80451   0.70928   0.00000  Uiso   1.00
N365   N     0.48879   0.65441   0.52873   0.00000  Uiso   1.00
N366   N     0.48039   0.95227   0.52013   0.00000  Uiso   1.00
N367   N     0.85212   0.82168   0.71032   0.00000  Uiso   1.00
N368   N     0.79156   0.67158   0.52977   0.00000  Uiso   1.00
