data_job_06715
_audit_creation_date              2018-12-19
_audit_creation_method            'Materials Studio'
_symmetry_space_group_name_H-M    'P1'
_symmetry_Int_Tables_number       1
_symmetry_cell_setting            triclinic
loop_
_symmetry_equiv_pos_as_xyz
  x,y,z
_cell_length_a                    22.7229
_cell_length_b                    22.9476
_cell_length_c                    21.4296
_cell_angle_alpha                 114.5960
_cell_angle_beta                  99.6338
_cell_angle_gamma                 105.8910
loop_
_atom_site_label
_atom_site_type_symbol
_atom_site_fract_x
_atom_site_fract_y
_atom_site_fract_z
_atom_site_U_iso_or_equiv
_atom_site_adp_type
_atom_site_occupancy
C1     C     0.56407   0.37616   0.76574   0.00000  Uiso   1.00
C2     C     0.53343   0.42322   0.80979   0.00000  Uiso   1.00
C3     C     0.51543   0.47061   0.79538   0.00000  Uiso   1.00
C4     C     0.48819   0.50877   0.84211   0.00000  Uiso   1.00
C5     C     0.44200   0.58324   0.90156   0.00000  Uiso   1.00
C6     C     0.62729   0.39167   0.81899   0.00000  Uiso   1.00
C7     C     0.68820   0.41251   0.81229   0.00000  Uiso   1.00
C8     C     0.73997   0.42410   0.86677   0.00000  Uiso   1.00
C9     C     0.83948   0.44953   0.94046   0.00000  Uiso   1.00
C10    C     0.52029   0.30230   0.74290   0.00000  Uiso   1.00
C11    C     0.49124   0.24799   0.67223   0.00000  Uiso   1.00
C12    C     0.45293   0.18433   0.66264   0.00000  Uiso   1.00
C13    C     0.38630   0.07100   0.61820   0.00000  Uiso   1.00
C14    C     0.54770   0.35968   0.87438   0.00000  Uiso   1.00
C15    C     0.52454   0.41427   0.86880   0.00000  Uiso   1.00
C16    C     0.49731   0.45237   0.91557   0.00000  Uiso   1.00
C17    C     0.47928   0.49980   0.90123   0.00000  Uiso   1.00
C18    C     0.61840   0.38271   0.87799   0.00000  Uiso   1.00
C19    C     0.67008   0.39427   0.93249   0.00000  Uiso   1.00
C20    C     0.73106   0.41513   0.92589   0.00000  Uiso   1.00
C21    C     0.51139   0.29334   0.80190   0.00000  Uiso   1.00
C22    C     0.47312   0.22976   0.79243   0.00000  Uiso   1.00
C23    C     0.44402   0.17537   0.72176   0.00000  Uiso   1.00
H24    H     0.57100   0.38313   0.71980   0.00000  Uiso   1.00
H25    H     0.52233   0.47753   0.74971   0.00000  Uiso   1.00
H26    H     0.69507   0.41943   0.76662   0.00000  Uiso   1.00
H27    H     0.49814   0.25494   0.62658   0.00000  Uiso   1.00
H28    H     0.46447   0.57825   0.80890   0.00000  Uiso   1.00
H29    H     0.82869   0.45573   0.84455   0.00000  Uiso   1.00
H30    H     0.41342   0.10886   0.54924   0.00000  Uiso   1.00
H31    H     0.54077   0.35270   0.92032   0.00000  Uiso   1.00
H32    H     0.49044   0.44543   0.96123   0.00000  Uiso   1.00
H33    H     0.66318   0.38734   0.97815   0.00000  Uiso   1.00
H34    H     0.46625   0.22285   0.83810   0.00000  Uiso   1.00
H35    H     0.43859   0.55220   0.98059   0.00000  Uiso   1.00
H36    H     0.80281   0.42968   0.01623   0.00000  Uiso   1.00
H37    H     0.38754   0.08282   0.72093   0.00000  Uiso   1.00
O38    O     0.41898   0.62679   0.91805   0.00000  Uiso   1.00
O39    O     0.89683   0.46603   0.96481   0.00000  Uiso   1.00
O40    O     0.35200   0.01096   0.57738   0.00000  Uiso   1.00
N41    N     0.46527   0.55938   0.84369   0.00000  Uiso   1.00
N42    N     0.80580   0.44484   0.87702   0.00000  Uiso   1.00
N43    N     0.41758   0.12055   0.60093   0.00000  Uiso   1.00
N44    N     0.45134   0.54537   0.93607   0.00000  Uiso   1.00
N45    N     0.79188   0.43083   0.96940   0.00000  Uiso   1.00
N46    N     0.40365   0.10654   0.69332   0.00000  Uiso   1.00
C47    C     0.89726   0.63471   0.49157   0.00000  Uiso   1.00
C48    C     0.91988   0.59435   0.52500   0.00000  Uiso   1.00
C49    C     0.90264   0.58536   0.58050   0.00000  Uiso   1.00
C50    C     0.92850   0.54672   0.60352   0.00000  Uiso   1.00
C51    C     0.95732   0.48843   0.66024   0.00000  Uiso   1.00
C52    C     0.95841   0.68952   0.49958   0.00000  Uiso   1.00
C53    C     0.97356   0.76054   0.53369   0.00000  Uiso   1.00
C54    C     0.03185   0.80201   0.53531   0.00000  Uiso   1.00
C55    C     0.12047   0.89146   0.55251   0.00000  Uiso   1.00
C56    C     0.86596   0.58419   0.41052   0.00000  Uiso   1.00
C57    C     0.80337   0.56667   0.36974   0.00000  Uiso   1.00
C58    C     0.78382   0.51947   0.29637   0.00000  Uiso   1.00
C59    C     0.72890   0.44539   0.17529   0.00000  Uiso   1.00
C60    C     0.97382   0.58205   0.43378   0.00000  Uiso   1.00
C61    C     0.96147   0.56575   0.49361   0.00000  Uiso   1.00
C62    C     0.98735   0.52710   0.51656   0.00000  Uiso   1.00
C63    C     0.97016   0.51806   0.57207   0.00000  Uiso   1.00
C64    C    -0.00000   0.66092   0.46819   0.00000  Uiso   1.00
C65    C     0.05827   0.70228   0.46975   0.00000  Uiso   1.00
C66    C     0.07351   0.77335   0.50386   0.00000  Uiso   1.00
C67    C     0.90754   0.55559   0.37913   0.00000  Uiso   1.00
C68    C     0.88809   0.50841   0.30581   0.00000  Uiso   1.00
C69    C     0.82549   0.49082   0.26492   0.00000  Uiso   1.00
H70    H     0.86488   0.65698   0.51601   0.00000  Uiso   1.00
H71    H     0.87046   0.60751   0.60478   0.00000  Uiso   1.00
H72    H     0.94137   0.78266   0.55797   0.00000  Uiso   1.00
H73    H     0.77121   0.58882   0.39405   0.00000  Uiso   1.00
H74    H     0.89500   0.54007   0.68937   0.00000  Uiso   1.00
H75    H     0.04450   0.90938   0.59066   0.00000  Uiso   1.00
H76    H     0.68569   0.50063   0.24500   0.00000  Uiso   1.00
H77    H     0.00620   0.55979   0.40934   0.00000  Uiso   1.00
H78    H     0.01954   0.50498   0.49226   0.00000  Uiso   1.00
H79    H     0.09044   0.68013   0.44545   0.00000  Uiso   1.00
H80    H     0.92028   0.48629   0.28153   0.00000  Uiso   1.00
H81    H     0.01600   0.45685   0.59805   0.00000  Uiso   1.00
H82    H     0.16550   0.82617   0.49933   0.00000  Uiso   1.00
H83    H     0.80668   0.41741   0.15367   0.00000  Uiso   1.00
O84    O     0.96174   0.46418   0.70020   0.00000  Uiso   1.00
O85    O     0.15787   0.94870   0.57068   0.00000  Uiso   1.00
O86    O     0.68711   0.41242   0.11718   0.00000  Uiso   1.00
N87    N     0.92164   0.52800   0.65649   0.00000  Uiso   1.00
N88    N     0.06142   0.87328   0.56421   0.00000  Uiso   1.00
N89    N     0.72596   0.49114   0.24104   0.00000  Uiso   1.00
N90    N     0.98675   0.48322   0.60735   0.00000  Uiso   1.00
N91    N     0.12653   0.82850   0.51507   0.00000  Uiso   1.00
N92    N     0.79107   0.44636   0.19190   0.00000  Uiso   1.00
C93    C     0.55141   0.75824   0.48365   0.00000  Uiso   1.00
C94    C     0.58421   0.79649   0.44754   0.00000  Uiso   1.00
C95    C     0.61551   0.77203   0.39793   0.00000  Uiso   1.00
C96    C     0.64244   0.81486   0.37115   0.00000  Uiso   1.00
C97    C     0.69405   0.86440   0.31174   0.00000  Uiso   1.00
C98    C     0.58286   0.80681   0.56508   0.00000  Uiso   1.00
C99    C     0.61302   0.79101   0.61430   0.00000  Uiso   1.00
C100   C     0.63881   0.84251   0.68647   0.00000  Uiso   1.00
C101   C     0.68828   0.90804   0.80956   0.00000  Uiso   1.00
C102   C     0.48178   0.75335   0.46619   0.00000  Uiso   1.00
C103   C     0.42695   0.69261   0.43228   0.00000  Uiso   1.00
C104   C     0.36763   0.69911   0.42120   0.00000  Uiso   1.00
C105   C     0.26017   0.68164   0.39075   0.00000  Uiso   1.00
C106   C     0.54357   0.87779   0.52429   0.00000  Uiso   1.00
C107   C     0.57995   0.86143   0.46961   0.00000  Uiso   1.00
C108   C     0.60684   0.90431   0.44289   0.00000  Uiso   1.00
C109   C     0.63817   0.87991   0.39326   0.00000  Uiso   1.00
C110   C     0.57861   0.87174   0.58715   0.00000  Uiso   1.00
C111   C     0.60435   0.92328   0.65926   0.00000  Uiso   1.00
C112   C     0.63454   0.90757   0.70858   0.00000  Uiso   1.00
C113   C     0.47752   0.81829   0.48826   0.00000  Uiso   1.00
C114   C     0.41828   0.82489   0.47724   0.00000  Uiso   1.00
C115   C     0.36337   0.76417   0.44332   0.00000  Uiso   1.00
H116   H     0.55472   0.70768   0.46647   0.00000  Uiso   1.00
H117   H     0.61880   0.72178   0.38087   0.00000  Uiso   1.00
H118   H     0.61630   0.74075   0.59721   0.00000  Uiso   1.00
H119   H     0.43026   0.64237   0.41521   0.00000  Uiso   1.00
H120   H     0.68798   0.76605   0.29572   0.00000  Uiso   1.00
H121   H     0.68270   0.80605   0.75188   0.00000  Uiso   1.00
H122   H     0.29040   0.59859   0.36810   0.00000  Uiso   1.00
H123   H     0.54025   0.92835   0.54148   0.00000  Uiso   1.00
H124   H     0.60354   0.95456   0.45998   0.00000  Uiso   1.00
H125   H     0.60104   0.97353   0.67632   0.00000  Uiso   1.00
H126   H     0.41500   0.87515   0.49433   0.00000  Uiso   1.00
H127   H     0.67560   0.95499   0.35994   0.00000  Uiso   1.00
H128   H     0.67032   0.99498   0.81610   0.00000  Uiso   1.00
H129   H     0.27801   0.78752   0.43232   0.00000  Uiso   1.00
O130   O     0.72370   0.87378   0.27289   0.00000  Uiso   1.00
O131   O     0.71676   0.92625   0.87135   0.00000  Uiso   1.00
O132   O     0.20207   0.65407   0.36784   0.00000  Uiso   1.00
N133   N     0.67637   0.80691   0.32201   0.00000  Uiso   1.00
N134   N     0.67144   0.84431   0.74849   0.00000  Uiso   1.00
N135   N     0.30467   0.65035   0.38971   0.00000  Uiso   1.00
N136   N     0.66971   0.90858   0.35656   0.00000  Uiso   1.00
N137   N     0.66478   0.94597   0.78304   0.00000  Uiso   1.00
N138   N     0.29801   0.75202   0.42426   0.00000  Uiso   1.00
C139   C     0.09381   0.27600   0.09391   0.00000  Uiso   1.00
C140   C     0.04897   0.31243   0.08393   0.00000  Uiso   1.00
C141   C     0.99369   0.30821   0.10417   0.00000  Uiso   1.00
C142   C     0.95924   0.34543   0.09042   0.00000  Uiso   1.00
C143   C     0.88657   0.39596   0.07995   0.00000  Uiso   1.00
C144   C     0.16097   0.33297   0.13764   0.00000  Uiso   1.00
C145   C     0.19987   0.34600   0.20304   0.00000  Uiso   1.00
C146   C     0.25971   0.40050   0.23449   0.00000  Uiso   1.00
C147   C     0.36095   0.48287   0.30737   0.00000  Uiso   1.00
C148   C     0.09692   0.23304   0.01876   0.00000  Uiso   1.00
C149   C     0.08198   0.16205   0.98420   0.00000  Uiso   1.00
C150   C     0.08792   0.13242   0.91557   0.00000  Uiso   1.00
C151   C     0.08971   0.05964   0.80387   0.00000  Uiso   1.00
C152   C     0.13093   0.34961   0.03349   0.00000  Uiso   1.00
C153   C     0.06913   0.35242   0.05112   0.00000  Uiso   1.00
C154   C     0.03476   0.38965   0.03732   0.00000  Uiso   1.00
C155   C     0.97944   0.38549   0.05754   0.00000  Uiso   1.00
C156   C     0.18114   0.37295   0.10483   0.00000  Uiso   1.00
C157   C     0.24094   0.42744   0.13618   0.00000  Uiso   1.00
C158   C     0.27991   0.44056   0.20161   0.00000  Uiso   1.00
C159   C     0.11709   0.27302   0.98594   0.00000  Uiso   1.00
C160   C     0.12305   0.24350   0.91735   0.00000  Uiso   1.00
C161   C     0.10812   0.17248   0.88269   0.00000  Uiso   1.00
H162   H     0.07811   0.24487   0.11947   0.00000  Uiso   1.00
H163   H     0.97811   0.27727   0.12958   0.00000  Uiso   1.00
H164   H     0.18425   0.31505   0.22842   0.00000  Uiso   1.00
H165   H     0.06638   0.13113   0.00962   0.00000  Uiso   1.00
H166   H     0.87613   0.33084   0.12634   0.00000  Uiso   1.00
H167   H     0.31082   0.41048   0.33473   0.00000  Uiso   1.00
H168   H     0.06227   0.02265   0.87335   0.00000  Uiso   1.00
H169   H     0.14663   0.38074   0.00794   0.00000  Uiso   1.00
H170   H     0.05038   0.42059   0.01193   0.00000  Uiso   1.00
H171   H     0.25652   0.45837   0.11077   0.00000  Uiso   1.00
H172   H     0.13865   0.27445   0.89197   0.00000  Uiso   1.00
H173   H     0.93479   0.44717   0.03085   0.00000  Uiso   1.00
H174   H     0.36948   0.52681   0.23925   0.00000  Uiso   1.00
H175   H     0.12092   0.13898   0.77786   0.00000  Uiso   1.00
O176   O     0.84092   0.41279   0.08325   0.00000  Uiso   1.00
O177   O     0.41121   0.51727   0.35665   0.00000  Uiso   1.00
O178   O     0.08512   0.00845   0.75133   0.00000  Uiso   1.00
N179   N     0.90314   0.35274   0.10330   0.00000  Uiso   1.00
N180   N     0.30954   0.42721   0.29815   0.00000  Uiso   1.00
N181   N     0.07718   0.06462   0.86680   0.00000  Uiso   1.00
N182   N     0.93470   0.41533   0.05192   0.00000  Uiso   1.00
N183   N     0.34110   0.48980   0.24677   0.00000  Uiso   1.00
N184   N     0.10875   0.12722   0.81542   0.00000  Uiso   1.00
C185   C     0.29290   0.94062   0.03009   0.00000  Uiso   1.00
C186   C     0.32539   0.97508   0.99073   0.00000  Uiso   1.00
C187   C     0.29697   0.99989   0.95008   0.00000  Uiso   1.00
C188   C     0.33477   0.02969   0.91837   0.00000  Uiso   1.00
C189   C     0.37550   0.08249   0.85596   0.00000  Uiso   1.00
C190   C     0.33572   0.98288   0.10923   0.00000  Uiso   1.00
C191   C     0.31599   0.01424   0.16822   0.00000  Uiso   1.00
C192   C     0.36249   0.05059   0.23627   0.00000  Uiso   1.00
C193   C     0.41925   0.11545   0.35785   0.00000  Uiso   1.00
C194   C     0.29823   0.86995   0.00125   0.00000  Uiso   1.00
C195   C     0.24698   0.80636   0.96947   0.00000  Uiso   1.00
C196   C     0.26191   0.74763   0.94662   0.00000  Uiso   1.00
C197   C     0.26047   0.63716   0.90054   0.00000  Uiso   1.00
C198   C     0.41056   0.94941   0.04605   0.00000  Uiso   1.00
C199   C     0.38930   0.97985   0.99940   0.00000  Uiso   1.00
C200   C     0.42715   0.00961   0.96774   0.00000  Uiso   1.00
C201   C     0.39879   0.03446   0.92705   0.00000  Uiso   1.00
C202   C     0.39963   0.98765   0.11790   0.00000  Uiso   1.00
C203   C     0.44617   0.02396   0.18588   0.00000  Uiso   1.00
C204   C     0.42651   0.05537   0.24495   0.00000  Uiso   1.00
C205   C     0.36214   0.87472   0.00992   0.00000  Uiso   1.00
C206   C     0.37716   0.81608   0.98712   0.00000  Uiso   1.00
C207   C     0.32594   0.75241   0.95531   0.00000  Uiso   1.00
H208   H     0.24314   0.93691   0.02335   0.00000  Uiso   1.00
H209   H     0.24751   0.99620   0.94339   0.00000  Uiso   1.00
H210   H     0.26652   0.01053   0.16150   0.00000  Uiso   1.00
H211   H     0.19753   0.80269   0.96277   0.00000  Uiso   1.00
H212   H     0.28054   0.06405   0.85859   0.00000  Uiso   1.00
H213   H     0.32063   0.09426   0.31848   0.00000  Uiso   1.00
H214   H     0.17513   0.65598   0.89943   0.00000  Uiso   1.00
H215   H     0.46032   0.95312   0.05280   0.00000  Uiso   1.00
H216   H     0.47661   0.01330   0.97445   0.00000  Uiso   1.00
H217   H     0.49562   0.02763   0.19256   0.00000  Uiso   1.00
H218   H     0.42662   0.81979   0.99384   0.00000  Uiso   1.00
H219   H     0.46649   0.07793   0.88381   0.00000  Uiso   1.00
H220   H     0.50657   0.10814   0.34370   0.00000  Uiso   1.00
H221   H     0.36108   0.66986   0.92465   0.00000  Uiso   1.00
O222   O     0.38032   0.11030   0.81915   0.00000  Uiso   1.00
O223   O     0.43290   0.14992   0.42251   0.00000  Uiso   1.00
O224   O     0.24202   0.57491   0.87272   0.00000  Uiso   1.00
N225   N     0.32207   0.05904   0.87526   0.00000  Uiso   1.00
N226   N     0.35955   0.08730   0.30524   0.00000  Uiso   1.00
N227   N     0.22352   0.67755   0.91348   0.00000  Uiso   1.00
N228   N     0.42212   0.06651   0.88883   0.00000  Uiso   1.00
N229   N     0.45960   0.09477   0.31880   0.00000  Uiso   1.00
N230   N     0.32358   0.68501   0.92704   0.00000  Uiso   1.00
C231   C     0.98264   0.12346   0.19706   0.00000  Uiso   1.00
C232   C     0.01147   0.06894   0.16732   0.00000  Uiso   1.00
C233   C     0.02809   0.04974   0.10433   0.00000  Uiso   1.00
C234   C     0.05380   0.99885   0.08641   0.00000  Uiso   1.00
C235   C     0.09726   0.91887   0.03362   0.00000  Uiso   1.00
C236   C     0.02790   0.17601   0.27393   0.00000  Uiso   1.00
C237   C     0.05833   0.24685   0.30056   0.00000  Uiso   1.00
C238   C     0.09787   0.28610   0.37240   0.00000  Uiso   1.00
C239   C     0.16681   0.37237   0.48512   0.00000  Uiso   1.00
C240   C     0.91958   0.08689   0.20492   0.00000  Uiso   1.00
C241   C     0.85894   0.08280   0.17355   0.00000  Uiso   1.00
C242   C     0.80728   0.04703   0.18730   0.00000  Uiso   1.00
C243   C     0.70804   0.99491   0.19288   0.00000  Uiso   1.00
C244   C     0.99873   0.06722   0.27727   0.00000  Uiso   1.00
C245   C     0.02021   0.03839   0.21089   0.00000  Uiso   1.00
C246   C     0.04590   0.98752   0.19307   0.00000  Uiso   1.00
C247   C     0.06255   0.96825   0.13005   0.00000  Uiso   1.00
C248   C     0.03664   0.14547   0.31749   0.00000  Uiso   1.00
C249   C     0.07614   0.18463   0.38930   0.00000  Uiso   1.00
C250   C     0.10662   0.25551   0.41604   0.00000  Uiso   1.00
C251   C     0.92832   0.05634   0.24848   0.00000  Uiso   1.00
C252   C     0.87675   0.02058   0.26229   0.00000  Uiso   1.00
C253   C     0.81604   0.01643   0.23094   0.00000  Uiso   1.00
H254   H     0.97583   0.14724   0.16315   0.00000  Uiso   1.00
H255   H     0.02132   0.07339   0.07063   0.00000  Uiso   1.00
H256   H     0.05155   0.27047   0.26684   0.00000  Uiso   1.00
H257   H     0.85220   0.10644   0.13984   0.00000  Uiso   1.00
H258   H     0.07563   0.97807   0.98728   0.00000  Uiso   1.00
H259   H     0.13936   0.39362   0.40100   0.00000  Uiso   1.00
H260   H     0.71897   0.04774   0.13320   0.00000  Uiso   1.00
H261   H     0.00554   0.04344   0.31119   0.00000  Uiso   1.00
H262   H     0.05265   0.96390   0.22679   0.00000  Uiso   1.00
H263   H     0.08289   0.16098   0.42300   0.00000  Uiso   1.00
H264   H     0.88353   0.99695   0.29600   0.00000  Uiso   1.00
H265   H     0.10107   0.88920   0.11403   0.00000  Uiso   1.00
H266   H     0.16479   0.30476   0.52775   0.00000  Uiso   1.00
H267   H     0.74440   0.95887   0.25995   0.00000  Uiso   1.00
O268   O     0.11883   0.88319   0.99247   0.00000  Uiso   1.00
O269   O     0.20242   0.42839   0.53526   0.00000  Uiso   1.00
O270   O     0.65089   0.97459   0.18391   0.00000  Uiso   1.00
N271   N     0.07514   0.96806   0.02868   0.00000  Uiso   1.00
N272   N     0.13473   0.35658   0.41549   0.00000  Uiso   1.00
N273   N     0.74170   0.03322   0.16513   0.00000  Uiso   1.00
N274   N     0.08883   0.92024   0.09688   0.00000  Uiso   1.00
N275   N     0.14841   0.30876   0.48369   0.00000  Uiso   1.00
N276   N     0.75539   0.98540   0.23333   0.00000  Uiso   1.00
C277   C     0.41196   0.70084   0.24409   0.00000  Uiso   1.00
C278   C     0.45714   0.66170   0.23354   0.00000  Uiso   1.00
C279   C     0.47859   0.63679   0.27807   0.00000  Uiso   1.00
C280   C     0.51972   0.60233   0.25917   0.00000  Uiso   1.00
C281   C     0.58696   0.54292   0.25208   0.00000  Uiso   1.00
C282   C     0.35491   0.65986   0.17401   0.00000  Uiso   1.00
C283   C     0.29040   0.63342   0.16849   0.00000  Uiso   1.00
C284   C     0.24547   0.59742   0.09948   0.00000  Uiso   1.00
C285   C     0.15399   0.53521   0.99998   0.00000  Uiso   1.00
C286   C     0.44775   0.76937   0.24744   0.00000  Uiso   1.00
C287   C     0.46129   0.83499   0.30366   0.00000  Uiso   1.00
C288   C     0.49451   0.89119   0.29647   0.00000  Uiso   1.00
C289   C     0.54718   0.99899   0.31099   0.00000  Uiso   1.00
C290   C     0.44687   0.68394   0.13134   0.00000  Uiso   1.00
C291   C     0.47610   0.65252   0.17229   0.00000  Uiso   1.00
C292   C     0.51721   0.61809   0.15332   0.00000  Uiso   1.00
C293   C     0.53872   0.59313   0.19782   0.00000  Uiso   1.00
C294   C     0.37387   0.65068   0.11277   0.00000  Uiso   1.00
C295   C     0.32902   0.61472   0.04375   0.00000  Uiso   1.00
C296   C     0.26446   0.58822   0.03813   0.00000  Uiso   1.00
C297   C     0.46671   0.76019   0.18620   0.00000  Uiso   1.00
C298   C     0.49991   0.81629   0.17892   0.00000  Uiso   1.00
C299   C     0.51350   0.88199   0.23512   0.00000  Uiso   1.00
H300   H     0.39720   0.70799   0.29176   0.00000  Uiso   1.00
H301   H     0.46390   0.64390   0.32546   0.00000  Uiso   1.00
H302   H     0.27574   0.64054   0.21590   0.00000  Uiso   1.00
H303   H     0.44660   0.84208   0.35105   0.00000  Uiso   1.00
H304   H     0.54619   0.56877   0.33578   0.00000  Uiso   1.00
H305   H     0.14945   0.56171   0.10478   0.00000  Uiso   1.00
H306   H     0.50975   0.98670   0.38977   0.00000  Uiso   1.00
H307   H     0.46163   0.67679   0.08365   0.00000  Uiso   1.00
H308   H     0.53188   0.61099   0.10593   0.00000  Uiso   1.00
H309   H     0.34372   0.60763   0.99637   0.00000  Uiso   1.00
H310   H     0.51458   0.80917   0.13152   0.00000  Uiso   1.00
H311   H     0.60136   0.54206   0.15761   0.00000  Uiso   1.00
H312   H     0.20462   0.53500   0.92660   0.00000  Uiso   1.00
H313   H     0.56492   0.95999   0.21159   0.00000  Uiso   1.00
O314   O     0.61881   0.51268   0.26509   0.00000  Uiso   1.00
O315   O     0.09830   0.50342   0.96202   0.00000  Uiso   1.00
O316   O     0.57100   0.06099   0.33592   0.00000  Uiso   1.00
N317   N     0.54955   0.57153   0.29080   0.00000  Uiso   1.00
N318   N     0.17862   0.56492   0.07482   0.00000  Uiso   1.00
N319   N     0.51545   0.96224   0.34126   0.00000  Uiso   1.00
N320   N     0.57924   0.55716   0.19493   0.00000  Uiso   1.00
N321   N     0.20831   0.55054   0.97895   0.00000  Uiso   1.00
N322   N     0.54514   0.94787   0.24538   0.00000  Uiso   1.00
C323   C     0.31196   0.27713   0.74795   0.00000  Uiso   1.00
C324   C     0.32032   0.32015   0.70933   0.00000  Uiso   1.00
C325   C     0.36543   0.32738   0.67392   0.00000  Uiso   1.00
C326   C     0.36532   0.36901   0.64194   0.00000  Uiso   1.00
C327   C     0.38491   0.43072   0.58143   0.00000  Uiso   1.00
C328   C     0.24168   0.22626   0.71327   0.00000  Uiso   1.00
C329   C     0.22066   0.15456   0.68117   0.00000  Uiso   1.00
C330   C     0.15434   0.11716   0.65252   0.00000  Uiso   1.00
C331   C     0.05184   0.03313   0.59817   0.00000  Uiso   1.00
C332   C     0.31879   0.32683   0.82550   0.00000  Uiso   1.00
C333   C     0.36260   0.33967   0.88777   0.00000  Uiso   1.00
C334   C     0.36121   0.38692   0.95361   0.00000  Uiso   1.00
C335   C     0.37844   0.45903   0.07351   0.00000  Uiso   1.00
C336   C     0.23156   0.33820   0.75415   0.00000  Uiso   1.00
C337   C     0.27665   0.35332   0.71270   0.00000  Uiso   1.00
C338   C     0.27647   0.39495   0.68077   0.00000  Uiso   1.00
C339   C     0.32157   0.40224   0.64532   0.00000  Uiso   1.00
C340   C     0.19801   0.25943   0.71663   0.00000  Uiso   1.00
C341   C     0.13170   0.22213   0.68803   0.00000  Uiso   1.00
C342   C     0.11059   0.15039   0.65589   0.00000  Uiso   1.00
C343   C     0.27513   0.36000   0.82886   0.00000  Uiso   1.00
C344   C     0.27365   0.40724   0.89462   0.00000  Uiso   1.00
C345   C     0.31746   0.42015   0.95698   0.00000  Uiso   1.00
H346   H     0.34596   0.25130   0.74533   0.00000  Uiso   1.00
H347   H     0.39921   0.30169   0.67132   0.00000  Uiso   1.00
H348   H     0.25446   0.12891   0.67858   0.00000  Uiso   1.00
H349   H     0.39639   0.31399   0.88514   0.00000  Uiso   1.00
H350   H     0.43897   0.37217   0.59073   0.00000  Uiso   1.00
H351   H     0.13377   0.00784   0.60606   0.00000  Uiso   1.00
H352   H     0.43305   0.39812   0.04164   0.00000  Uiso   1.00
H353   H     0.19756   0.36403   0.75677   0.00000  Uiso   1.00
H354   H     0.24267   0.42061   0.68338   0.00000  Uiso   1.00
H355   H     0.09793   0.24782   0.69064   0.00000  Uiso   1.00
H356   H     0.23985   0.43290   0.89720   0.00000  Uiso   1.00
H357   H     0.31192   0.46868   0.60051   0.00000  Uiso   1.00
H358   H     0.00671   0.10435   0.61585   0.00000  Uiso   1.00
H359   H     0.30600   0.49463   0.05142   0.00000  Uiso   1.00
O360   O     0.40778   0.45560   0.54712   0.00000  Uiso   1.00
O361   O     0.00737   0.97761   0.56725   0.00000  Uiso   1.00
O362   O     0.40002   0.48965   0.13871   0.00000  Uiso   1.00
N363   N     0.40289   0.38713   0.60311   0.00000  Uiso   1.00
N364   N     0.11754   0.04650   0.61744   0.00000  Uiso   1.00
N365   N     0.39733   0.41137   0.02467   0.00000  Uiso   1.00
N366   N     0.33452   0.43907   0.60838   0.00000  Uiso   1.00
N367   N     0.04917   0.09844   0.62271   0.00000  Uiso   1.00
N368   N     0.32897   0.46330   0.02993   0.00000  Uiso   1.00
C369   C     0.80105   0.32726   0.51081   0.00000  Uiso   1.00
C370   C     0.73264   0.31475   0.51472   0.00000  Uiso   1.00
C371   C     0.71284   0.36388   0.55990   0.00000  Uiso   1.00
C372   C     0.64817   0.34217   0.55533   0.00000  Uiso   1.00
C373   C     0.54851   0.33315   0.56869   0.00000  Uiso   1.00
C374   C     0.79541   0.30640   0.43189   0.00000  Uiso   1.00
C375   C     0.82839   0.34850   0.40744   0.00000  Uiso   1.00
C376   C     0.81656   0.31975   0.33314   0.00000  Uiso   1.00
C377   C     0.81439   0.29775   0.21791   0.00000  Uiso   1.00
C378   C     0.82053   0.27435   0.52518   0.00000  Uiso   1.00
C379   C     0.87465   0.28950   0.57915   0.00000  Uiso   1.00
C380   C     0.88399   0.23376   0.58338   0.00000  Uiso   1.00
C381   C     0.92082   0.16200   0.61300   0.00000  Uiso   1.00
C382   C     0.72140   0.20133   0.42233   0.00000  Uiso   1.00
C383   C     0.68938   0.24635   0.46666   0.00000  Uiso   1.00
C384   C     0.62472   0.22455   0.46202   0.00000  Uiso   1.00
C385   C     0.60483   0.27364   0.50720   0.00000  Uiso   1.00
C386   C     0.75215   0.23800   0.38383   0.00000  Uiso   1.00
C387   C     0.74027   0.20917   0.30955   0.00000  Uiso   1.00
C388   C     0.77322   0.25123   0.28500   0.00000  Uiso   1.00
C389   C     0.77727   0.20595   0.47712   0.00000  Uiso   1.00
C390   C     0.78652   0.15017   0.48127   0.00000  Uiso   1.00
C391   C     0.84065   0.16524   0.53524   0.00000  Uiso   1.00
H392   H     0.83474   0.38052   0.54821   0.00000  Uiso   1.00
H393   H     0.74633   0.41681   0.59708   0.00000  Uiso   1.00
H394   H     0.86187   0.40143   0.44464   0.00000  Uiso   1.00
H395   H     0.90812   0.34244   0.61633   0.00000  Uiso   1.00
H396   H     0.62924   0.42689   0.63005   0.00000  Uiso   1.00
H397   H     0.87287   0.39445   0.30862   0.00000  Uiso   1.00
H398   H     0.97040   0.27006   0.67066   0.00000  Uiso   1.00
H399   H     0.68772   0.14808   0.38492   0.00000  Uiso   1.00
H400   H     0.59125   0.17162   0.42483   0.00000  Uiso   1.00
H401   H     0.70679   0.15624   0.27238   0.00000  Uiso   1.00
H402   H     0.75304   0.09725   0.44407   0.00000  Uiso   1.00
H403   H     0.50337   0.22789   0.49024   0.00000  Uiso   1.00
H404   H     0.74701   0.19545   0.16881   0.00000  Uiso   1.00
H405   H     0.84453   0.07106   0.53085   0.00000  Uiso   1.00
O406   O     0.50549   0.34708   0.58933   0.00000  Uiso   1.00
O407   O     0.82514   0.30451   0.16763   0.00000  Uiso   1.00
O408   O     0.95309   0.14131   0.64261   0.00000  Uiso   1.00
N409   N     0.61286   0.37682   0.59168   0.00000  Uiso   1.00
N410   N     0.84063   0.34650   0.29116   0.00000  Uiso   1.00
N411   N     0.93182   0.23020   0.62962   0.00000  Uiso   1.00
N412   N     0.54513   0.26974   0.51645   0.00000  Uiso   1.00
N413   N     0.77290   0.23941   0.21593   0.00000  Uiso   1.00
N414   N     0.86409   0.12312   0.55439   0.00000  Uiso   1.00
C415   C     0.97648   0.75236   0.13011   0.00000  Uiso   1.00
C416   C     0.98915   0.71521   0.05912   0.00000  Uiso   1.00
C417   C     0.00249   0.74217   0.01358   0.00000  Uiso   1.00
C418   C     0.01264   0.69997   0.95116   0.00000  Uiso   1.00
C419   C     0.03275   0.65242   0.84338   0.00000  Uiso   1.00
C420   C     0.91065   0.70512   0.12262   0.00000  Uiso   1.00
C421   C     0.85798   0.72360   0.13047   0.00000  Uiso   1.00
C422   C     0.80206   0.67291   0.12151   0.00000  Uiso   1.00
C423   C     0.70031   0.60971   0.11236   0.00000  Uiso   1.00
C424   C     0.02574   0.75255   0.18812   0.00000  Uiso   1.00
C425   C     0.06984   0.81091   0.25106   0.00000  Uiso   1.00
C426   C     0.11080   0.80016   0.29725   0.00000  Uiso   1.00
C427   C     0.18775   0.81061   0.38981   0.00000  Uiso   1.00
C428   C     0.97080   0.62948   0.10023   0.00000  Uiso   1.00
C429   C     0.98606   0.64846   0.04289   0.00000  Uiso   1.00
C430   C     0.99620   0.60622   0.98052   0.00000  Uiso   1.00
C431   C     0.00955   0.63311   0.93490   0.00000  Uiso   1.00
C432   C     0.90756   0.63838   0.10639   0.00000  Uiso   1.00
C433   C     0.85170   0.58765   0.09741   0.00000  Uiso   1.00
C434   C     0.79896   0.60604   0.10525   0.00000  Uiso   1.00
C435   C     0.02266   0.68581   0.17189   0.00000  Uiso   1.00
C436   C     0.06355   0.67496   0.21800   0.00000  Uiso   1.00
C437   C     0.10771   0.73330   0.28100   0.00000  Uiso   1.00
H438   H     0.97888   0.80432   0.14275   0.00000  Uiso   1.00
H439   H     0.00487   0.79382   0.02616   0.00000  Uiso   1.00
H440   H     0.86039   0.77525   0.14304   0.00000  Uiso   1.00
H441   H     0.07221   0.86255   0.26360   0.00000  Uiso   1.00
H442   H     0.03229   0.75273   0.88973   0.00000  Uiso   1.00
H443   H     0.72766   0.71359   0.13620   0.00000  Uiso   1.00
H444   H     0.17433   0.89768   0.39044   0.00000  Uiso   1.00
H445   H     0.96839   0.57752   0.08760   0.00000  Uiso   1.00
H446   H     0.99381   0.55457   0.96798   0.00000  Uiso   1.00
H447   H     0.84933   0.53600   0.08486   0.00000  Uiso   1.00
H448   H     0.06115   0.62331   0.20542   0.00000  Uiso   1.00
H449   H     0.02331   0.55855   0.84250   0.00000  Uiso   1.00
H450   H     0.71868   0.51941   0.08898   0.00000  Uiso   1.00
H451   H     0.16535   0.70350   0.34321   0.00000  Uiso   1.00
O452   O     0.04469   0.64463   0.78841   0.00000  Uiso   1.00
O453   O     0.64503   0.59328   0.11178   0.00000  Uiso   1.00
O454   O     0.23105   0.83481   0.44533   0.00000  Uiso   1.00
N455   N     0.02670   0.71019   0.89504   0.00000  Uiso   1.00
N456   N     0.74189   0.67359   0.12546   0.00000  Uiso   1.00
N457   N     0.15948   0.84570   0.36316   0.00000  Uiso   1.00
N458   N     0.02187   0.60570   0.86963   0.00000  Uiso   1.00
N459   N     0.73706   0.56910   0.10005   0.00000  Uiso   1.00
N460   N     0.15464   0.74121   0.33775   0.00000  Uiso   1.00
C461   C     0.79689   0.13150   0.77340   0.00000  Uiso   1.00
C462   C     0.78287   0.14276   0.84380   0.00000  Uiso   1.00
C463   C     0.77452   0.09590   0.86981   0.00000  Uiso   1.00
C464   C     0.76205   0.11593   0.93529   0.00000  Uiso   1.00
C465   C     0.74084   0.12358   0.03879   0.00000  Uiso   1.00
C466   C     0.74362   0.14114   0.72987   0.00000  Uiso   1.00
C467   C     0.70228   0.09293   0.66008   0.00000  Uiso   1.00
C468   C     0.65679   0.11161   0.62965   0.00000  Uiso   1.00
C469   C     0.57468   0.11677   0.55625   0.00000  Uiso   1.00
C470   C     0.85919   0.19208   0.79453   0.00000  Uiso   1.00
C471   C     0.91501   0.18669   0.77910   0.00000  Uiso   1.00
C472   C     0.96681   0.24825   0.80309   0.00000  Uiso   1.00
C473   C     0.06414   0.33249   0.83009   0.00000  Uiso   1.00
C474   C     0.78960   0.25041   0.84342   0.00000  Uiso   1.00
C475   C     0.77891   0.20735   0.88183   0.00000  Uiso   1.00
C476   C     0.76645   0.22747   0.94728   0.00000  Uiso   1.00
C477   C     0.75809   0.18064   0.97339   0.00000  Uiso   1.00
C478   C     0.73966   0.20573   0.76789   0.00000  Uiso   1.00
C479   C     0.69422   0.22449   0.73755   0.00000  Uiso   1.00
C480   C     0.65282   0.17632   0.66775   0.00000  Uiso   1.00
C481   C     0.85523   0.25667   0.83256   0.00000  Uiso   1.00
C482   C     0.90695   0.31825   0.85657   0.00000  Uiso   1.00
C483   C     0.96285   0.31296   0.84119   0.00000  Uiso   1.00
H484   H     0.79997   0.08121   0.74379   0.00000  Uiso   1.00
H485   H     0.77758   0.04591   0.84036   0.00000  Uiso   1.00
H486   H     0.70536   0.04295   0.63066   0.00000  Uiso   1.00
H487   H     0.91806   0.13669   0.74967   0.00000  Uiso   1.00
H488   H     0.75098   0.03526   0.96418   0.00000  Uiso   1.00
H489   H     0.59872   0.02901   0.52202   0.00000  Uiso   1.00
H490   H     0.04724   0.22669   0.77296   0.00000  Uiso   1.00
H491   H     0.78652   0.30070   0.87303   0.00000  Uiso   1.00
H492   H     0.76339   0.27745   0.97670   0.00000  Uiso   1.00
H493   H     0.69117   0.27448   0.76700   0.00000  Uiso   1.00
H494   H     0.90387   0.36823   0.88600   0.00000  Uiso   1.00
H495   H     0.73946   0.22318   0.07484   0.00000  Uiso   1.00
H496   H     0.58721   0.21693   0.63267   0.00000  Uiso   1.00
H497   H     0.03572   0.41462   0.88361   0.00000  Uiso   1.00
O498   O     0.73023   0.10995   0.08536   0.00000  Uiso   1.00
O499   O     0.53048   0.10176   0.50525   0.00000  Uiso   1.00
O500   O     0.11892   0.36112   0.83448   0.00000  Uiso   1.00
N501   N     0.75146   0.08268   0.97601   0.00000  Uiso   1.00
N502   N     0.60910   0.07684   0.56261   0.00000  Uiso   1.00
N503   N     0.02842   0.26165   0.79720   0.00000  Uiso   1.00
N504   N     0.74526   0.18380   0.03555   0.00000  Uiso   1.00
N505   N     0.60290   0.17796   0.62216   0.00000  Uiso   1.00
N506   N     0.02222   0.36277   0.85674   0.00000  Uiso   1.00
C507   C     0.28741   0.79341   0.74994   0.00000  Uiso   1.00
C508   C     0.23902   0.82811   0.76415   0.00000  Uiso   1.00
C509   C     0.21022   0.83529   0.81772   0.00000  Uiso   1.00
C510   C     0.16724   0.86861   0.82188   0.00000  Uiso   1.00
C511   C     0.09416   0.91862   0.85118   0.00000  Uiso   1.00
C512   C     0.25872   0.73647   0.67084   0.00000  Uiso   1.00
C513   C     0.24650   0.66662   0.64595   0.00000  Uiso   1.00
C514   C     0.22011   0.62281   0.57156   0.00000  Uiso   1.00
C515   C     0.17765   0.53056   0.45599   0.00000  Uiso   1.00
C516   C     0.34727   0.84744   0.75460   0.00000  Uiso   1.00
C517   C     0.40951   0.87088   0.80012   0.00000  Uiso   1.00
C518   C     0.45768   0.92048   0.79623   0.00000  Uiso   1.00
C519   C     0.55271   0.00052   0.81071   0.00000  Uiso   1.00
C520   C     0.26228   0.83981   0.66206   0.00000  Uiso   1.00
C521   C     0.22537   0.85331   0.71642   0.00000  Uiso   1.00
C522   C     0.18243   0.88663   0.72050   0.00000  Uiso   1.00
C523   C     0.15357   0.89386   0.77406   0.00000  Uiso   1.00
C524   C     0.24507   0.76167   0.62311   0.00000  Uiso   1.00
C525   C     0.21870   0.71795   0.54873   0.00000  Uiso   1.00
C526   C     0.20644   0.64805   0.52374   0.00000  Uiso   1.00
C527   C     0.33362   0.87264   0.70687   0.00000  Uiso   1.00
C528   C     0.38171   0.92221   0.70290   0.00000  Uiso   1.00
C529   C     0.44401   0.94572   0.74841   0.00000  Uiso   1.00
H530   H     0.29803   0.77379   0.78709   0.00000  Uiso   1.00
H531   H     0.22079   0.81578   0.85464   0.00000  Uiso   1.00
H532   H     0.25707   0.64714   0.68290   0.00000  Uiso   1.00
H533   H     0.42005   0.85136   0.83705   0.00000  Uiso   1.00
H534   H     0.12912   0.87342   0.90847   0.00000  Uiso   1.00
H535   H     0.20563   0.51783   0.54634   0.00000  Uiso   1.00
H536   H     0.54931   0.94848   0.87139   0.00000  Uiso   1.00
H537   H     0.25166   0.85943   0.62490   0.00000  Uiso   1.00
H538   H     0.17187   0.90612   0.68355   0.00000  Uiso   1.00
H539   H     0.20815   0.73747   0.51181   0.00000  Uiso   1.00
H540   H     0.37113   0.94170   0.66596   0.00000  Uiso   1.00
H541   H     0.08942   0.94675   0.76960   0.00000  Uiso   1.00
H542   H     0.16593   0.59115   0.40748   0.00000  Uiso   1.00
H543   H     0.50961   0.02181   0.73252   0.00000  Uiso   1.00
O544   O     0.05760   0.93924   0.88053   0.00000  Uiso   1.00
O545   O     0.15800   0.47272   0.40544   0.00000  Uiso   1.00
O546   O     0.60889   0.03772   0.83189   0.00000  Uiso   1.00
N547   N     0.13074   0.88429   0.86775   0.00000  Uiso   1.00
N548   N     0.20226   0.55183   0.52918   0.00000  Uiso   1.00
N549   N     0.52357   0.95443   0.83306   0.00000  Uiso   1.00
N550   N     0.10937   0.92374   0.79302   0.00000  Uiso   1.00
N551   N     0.18089   0.59128   0.45446   0.00000  Uiso   1.00
N552   N     0.50221   0.99389   0.75834   0.00000  Uiso   1.00
