data_job_06956
_audit_creation_date              2018-12-19
_audit_creation_method            'Materials Studio'
_symmetry_space_group_name_H-M    'P1'
_symmetry_Int_Tables_number       1
_symmetry_cell_setting            triclinic
loop_
_symmetry_equiv_pos_as_xyz
  x,y,z
_cell_length_a                    21.4604
_cell_length_b                    20.0080
_cell_length_c                    23.4203
_cell_angle_alpha                 65.6752
_cell_angle_beta                  67.7939
_cell_angle_gamma                 75.5155
loop_
_atom_site_label
_atom_site_type_symbol
_atom_site_fract_x
_atom_site_fract_y
_atom_site_fract_z
_atom_site_U_iso_or_equiv
_atom_site_adp_type
_atom_site_occupancy
C1     C     0.08151   0.74988   0.90691   0.00000  Uiso   1.00
C2     C     0.09565   0.68065   0.88983   0.00000  Uiso   1.00
C3     C     0.11437   0.60978   0.92856   0.00000  Uiso   1.00
C4     C     0.12500   0.55387   0.90422   0.00000  Uiso   1.00
C5     C     0.14818   0.44416   0.88694   0.00000  Uiso   1.00
C6     C     0.12894   0.80387   0.84967   0.00000  Uiso   1.00
C7     C     0.17565   0.83660   0.85462   0.00000  Uiso   1.00
C8     C     0.21429   0.88442   0.79647   0.00000  Uiso   1.00
C9     C     0.28911   0.96605   0.71684   0.00000  Uiso   1.00
C10    C     0.01007   0.78346   0.90443   0.00000  Uiso   1.00
C11    C     0.95684   0.79905   0.95542   0.00000  Uiso   1.00
C12    C     0.89542   0.82971   0.94337   0.00000  Uiso   1.00
C13    C     0.78568   0.87966   0.94877   0.00000  Uiso   1.00
C14    C     0.06708   0.77663   0.79483   0.00000  Uiso   1.00
C15    C     0.08781   0.69518   0.82895   0.00000  Uiso   1.00
C16    C     0.09841   0.63936   0.80455   0.00000  Uiso   1.00
C17    C     0.11715   0.56842   0.84323   0.00000  Uiso   1.00
C18    C     0.12110   0.81839   0.78879   0.00000  Uiso   1.00
C19    C     0.15968   0.86618   0.73062   0.00000  Uiso   1.00
C20    C     0.20644   0.89897   0.73548   0.00000  Uiso   1.00
C21    C     0.00223   0.79799   0.84355   0.00000  Uiso   1.00
C22    C     0.94088   0.82863   0.83142   0.00000  Uiso   1.00
C23    C     0.88756   0.84427   0.88238   0.00000  Uiso   1.00
H24    H     0.08762   0.73858   0.95431   0.00000  Uiso   1.00
H25    H     0.12044   0.59856   0.97567   0.00000  Uiso   1.00
H26    H     0.18170   0.82535   0.90174   0.00000  Uiso   1.00
H27    H     0.96293   0.78781   0.00253   0.00000  Uiso   1.00
H28    H     0.15340   0.44973   0.97249   0.00000  Uiso   1.00
H29    H     0.28254   0.92795   0.81662   0.00000  Uiso   1.00
H30    H     0.82123   0.84879   0.02914   0.00000  Uiso   1.00
H31    H     0.06098   0.78794   0.74743   0.00000  Uiso   1.00
H32    H     0.09234   0.65062   0.75744   0.00000  Uiso   1.00
H33    H     0.15359   0.87741   0.68351   0.00000  Uiso   1.00
H34    H     0.93483   0.83987   0.78430   0.00000  Uiso   1.00
H35    H     0.13059   0.49199   0.79536   0.00000  Uiso   1.00
H36    H     0.25973   0.97021   0.63950   0.00000  Uiso   1.00
H37    H     0.79842   0.89104   0.85202   0.00000  Uiso   1.00
O38    O     0.16313   0.37964   0.89423   0.00000  Uiso   1.00
O39    O     0.33255   0.00705   0.68974   0.00000  Uiso   1.00
O40    O     0.72732   0.90319   0.96857   0.00000  Uiso   1.00
N41    N     0.14372   0.47852   0.92943   0.00000  Uiso   1.00
N42    N     0.26446   0.92561   0.78371   0.00000  Uiso   1.00
N43    N     0.83318   0.85162   0.98239   0.00000  Uiso   1.00
N44    N     0.13144   0.50126   0.83412   0.00000  Uiso   1.00
N45    N     0.25219   0.94835   0.68840   0.00000  Uiso   1.00
N46    N     0.82090   0.87436   0.88708   0.00000  Uiso   1.00
C47    C     0.97868   0.26279   0.40270   0.00000  Uiso   1.00
C48    C     0.95230   0.28336   0.34491   0.00000  Uiso   1.00
C49    C     0.99043   0.30652   0.27873   0.00000  Uiso   1.00
C50    C     0.95691   0.32275   0.23337   0.00000  Uiso   1.00
C51    C     0.92646   0.35575   0.14057   0.00000  Uiso   1.00
C52    C     0.93473   0.31213   0.44173   0.00000  Uiso   1.00
C53    C     0.95809   0.35945   0.45696   0.00000  Uiso   1.00
C54    C     0.90978   0.39989   0.49312   0.00000  Uiso   1.00
C55    C     0.85206   0.47750   0.55068   0.00000  Uiso   1.00
C56    C     0.96176   0.18443   0.44690   0.00000  Uiso   1.00
C57    C     0.00784   0.12440   0.46651   0.00000  Uiso   1.00
C58    C     0.98228   0.05733   0.50704   0.00000  Uiso   1.00
C59    C     0.96652   0.93668   0.57263   0.00000  Uiso   1.00
C60    C     0.85136   0.25044   0.43983   0.00000  Uiso   1.00
C61    C     0.88315   0.27666   0.36508   0.00000  Uiso   1.00
C62    C     0.84956   0.29286   0.31982   0.00000  Uiso   1.00
C63    C     0.88763   0.31603   0.25358   0.00000  Uiso   1.00
C64    C     0.86558   0.30542   0.46190   0.00000  Uiso   1.00
C65    C     0.81722   0.34579   0.49805   0.00000  Uiso   1.00
C66    C     0.84050   0.39317   0.51333   0.00000  Uiso   1.00
C67    C     0.89261   0.17772   0.46708   0.00000  Uiso   1.00
C68    C     0.86697   0.11074   0.50759   0.00000  Uiso   1.00
C69    C     0.91300   0.05061   0.52725   0.00000  Uiso   1.00
H70    H     0.03252   0.26802   0.38699   0.00000  Uiso   1.00
H71    H     0.04394   0.31171   0.26314   0.00000  Uiso   1.00
H72    H     0.01161   0.36463   0.44135   0.00000  Uiso   1.00
H73    H     0.06135   0.12961   0.45089   0.00000  Uiso   1.00
H74    H     0.02610   0.35722   0.13471   0.00000  Uiso   1.00
H75    H     0.95793   0.46878   0.51050   0.00000  Uiso   1.00
H76    H     0.06282   0.97320   0.53062   0.00000  Uiso   1.00
H77    H     0.79752   0.24522   0.45554   0.00000  Uiso   1.00
H78    H     0.79604   0.28766   0.33544   0.00000  Uiso   1.00
H79    H     0.76371   0.34058   0.51365   0.00000  Uiso   1.00
H80    H     0.81345   0.10557   0.52319   0.00000  Uiso   1.00
H81    H     0.82490   0.33770   0.19340   0.00000  Uiso   1.00
H82    H     0.75672   0.44927   0.56919   0.00000  Uiso   1.00
H83    H     0.86161   0.95369   0.58930   0.00000  Uiso   1.00
O84    O     0.92877   0.37582   0.08381   0.00000  Uiso   1.00
O85    O     0.83933   0.52217   0.57684   0.00000  Uiso   1.00
O86    O     0.97694   0.87198   0.60323   0.00000  Uiso   1.00
N87    N     0.97895   0.34679   0.16500   0.00000  Uiso   1.00
N88    N     0.91521   0.45110   0.51634   0.00000  Uiso   1.00
N89    N     0.01327   0.98778   0.53516   0.00000  Uiso   1.00
N90    N     0.87069   0.33629   0.19658   0.00000  Uiso   1.00
N91    N     0.80695   0.44060   0.54791   0.00000  Uiso   1.00
N92    N     0.90501   0.97728   0.56673   0.00000  Uiso   1.00
C93    C     0.57454   0.21304   0.76562   0.00000  Uiso   1.00
C94    C     0.52999   0.16080   0.77092   0.00000  Uiso   1.00
C95    C     0.46728   0.14489   0.81772   0.00000  Uiso   1.00
C96    C     0.43451   0.09565   0.81424   0.00000  Uiso   1.00
C97    C     0.36094   0.01940   0.82987   0.00000  Uiso   1.00
C98    C     0.64262   0.16774   0.76880   0.00000  Uiso   1.00
C99    C     0.67460   0.15769   0.81381   0.00000  Uiso   1.00
C100   C     0.73665   0.11430   0.80854   0.00000  Uiso   1.00
C101   C     0.83796   0.04887   0.82085   0.00000  Uiso   1.00
C102   C     0.58757   0.27002   0.69590   0.00000  Uiso   1.00
C103   C     0.57329   0.34596   0.67961   0.00000  Uiso   1.00
C104   C     0.58900   0.38868   0.61297   0.00000  Uiso   1.00
C105   C     0.60484   0.48205   0.51208   0.00000  Uiso   1.00
C106   C     0.62787   0.15387   0.67622   0.00000  Uiso   1.00
C107   C     0.55896   0.12866   0.72236   0.00000  Uiso   1.00
C108   C     0.52628   0.07944   0.71881   0.00000  Uiso   1.00
C109   C     0.46353   0.06346   0.76559   0.00000  Uiso   1.00
C110   C     0.67159   0.13561   0.72024   0.00000  Uiso   1.00
C111   C     0.73361   0.09223   0.71490   0.00000  Uiso   1.00
C112   C     0.76567   0.08211   0.75990   0.00000  Uiso   1.00
C113   C     0.61654   0.23788   0.64734   0.00000  Uiso   1.00
C114   C     0.63228   0.28050   0.58070   0.00000  Uiso   1.00
C115   C     0.61802   0.35649   0.56432   0.00000  Uiso   1.00
H116   H     0.55200   0.23805   0.80343   0.00000  Uiso   1.00
H117   H     0.44488   0.16977   0.85529   0.00000  Uiso   1.00
H118   H     0.65218   0.18257   0.85138   0.00000  Uiso   1.00
H119   H     0.55087   0.37080   0.71720   0.00000  Uiso   1.00
H120   H     0.33891   0.07987   0.89139   0.00000  Uiso   1.00
H121   H     0.77601   0.10688   0.88313   0.00000  Uiso   1.00
H122   H     0.56239   0.50382   0.60019   0.00000  Uiso   1.00
H123   H     0.65043   0.12885   0.63842   0.00000  Uiso   1.00
H124   H     0.54871   0.05458   0.68123   0.00000  Uiso   1.00
H125   H     0.75601   0.06737   0.67732   0.00000  Uiso   1.00
H126   H     0.65470   0.25561   0.54314   0.00000  Uiso   1.00
H127   H     0.42318   0.98637   0.75012   0.00000  Uiso   1.00
H128   H     0.86029   0.01338   0.74185   0.00000  Uiso   1.00
H129   H     0.64666   0.41032   0.45892   0.00000  Uiso   1.00
O130   O     0.31237   0.98621   0.85190   0.00000  Uiso   1.00
O131   O     0.88584   0.02166   0.84105   0.00000  Uiso   1.00
O132   O     0.60556   0.54243   0.46985   0.00000  Uiso   1.00
N133   N     0.37270   0.06807   0.85226   0.00000  Uiso   1.00
N134   N     0.78136   0.09331   0.84454   0.00000  Uiso   1.00
N135   N     0.58165   0.46442   0.58002   0.00000  Uiso   1.00
N136   N     0.41804   0.01776   0.77624   0.00000  Uiso   1.00
N137   N     0.82671   0.04300   0.76852   0.00000  Uiso   1.00
N138   N     0.62700   0.41411   0.50400   0.00000  Uiso   1.00
C139   C     0.49087   0.74635   0.86954   0.00000  Uiso   1.00
C140   C     0.49665   0.69094   0.83803   0.00000  Uiso   1.00
C141   C     0.51857   0.70419   0.77086   0.00000  Uiso   1.00
C142   C     0.52026   0.64632   0.75195   0.00000  Uiso   1.00
C143   C     0.53224   0.57070   0.69593   0.00000  Uiso   1.00
C144   C     0.53369   0.71007   0.91597   0.00000  Uiso   1.00
C145   C     0.58676   0.73942   0.91433   0.00000  Uiso   1.00
C146   C     0.61962   0.69765   0.96105   0.00000  Uiso   1.00
C147   C     0.68908   0.65177   0.02606   0.00000  Uiso   1.00
C148   C     0.41759   0.75145   0.91348   0.00000  Uiso   1.00
C149   C     0.37304   0.81560   0.90976   0.00000  Uiso   1.00
C150   C     0.30815   0.80867   0.95439   0.00000  Uiso   1.00
C151   C     0.19735   0.82704   0.01553   0.00000  Uiso   1.00
C152   C     0.45486   0.61999   0.95542   0.00000  Uiso   1.00
C153   C     0.47709   0.62230   0.88468   0.00000  Uiso   1.00
C154   C     0.47874   0.56439   0.86587   0.00000  Uiso   1.00
C155   C     0.50066   0.57756   0.79868   0.00000  Uiso   1.00
C156   C     0.51414   0.64144   0.96262   0.00000  Uiso   1.00
C157   C     0.54692   0.59962   0.00935   0.00000  Uiso   1.00
C158   C     0.60003   0.62890   0.00778   0.00000  Uiso   1.00
C159   C     0.39803   0.68282   0.96013   0.00000  Uiso   1.00
C160   C     0.33320   0.67579   0.00477   0.00000  Uiso   1.00
C161   C     0.28856   0.73992   0.00112   0.00000  Uiso   1.00
H162   H     0.50609   0.79978   0.83323   0.00000  Uiso   1.00
H163   H     0.53371   0.75731   0.73477   0.00000  Uiso   1.00
H164   H     0.60188   0.79254   0.87823   0.00000  Uiso   1.00
H165   H     0.38819   0.86870   0.87366   0.00000  Uiso   1.00
H166   H     0.55573   0.67995   0.64619   0.00000  Uiso   1.00
H167   H     0.69944   0.75424   0.94869   0.00000  Uiso   1.00
H168   H     0.24884   0.91484   0.93905   0.00000  Uiso   1.00
H169   H     0.43964   0.56656   0.99174   0.00000  Uiso   1.00
H170   H     0.46360   0.51129   0.90198   0.00000  Uiso   1.00
H171   H     0.53177   0.54651   0.04544   0.00000  Uiso   1.00
H172   H     0.31809   0.62267   0.04086   0.00000  Uiso   1.00
H173   H     0.49883   0.48027   0.78190   0.00000  Uiso   1.00
H174   H     0.64254   0.55455   0.08441   0.00000  Uiso   1.00
H175   H     0.19195   0.71515   0.07476   0.00000  Uiso   1.00
O176   O     0.54427   0.54795   0.65214   0.00000  Uiso   1.00
O177   O     0.73281   0.64542   0.04902   0.00000  Uiso   1.00
O178   O     0.14163   0.85613   0.03636   0.00000  Uiso   1.00
N179   N     0.53903   0.64055   0.69045   0.00000  Uiso   1.00
N180   N     0.67341   0.70999   0.97326   0.00000  Uiso   1.00
N181   N     0.25214   0.86015   0.96426   0.00000  Uiso   1.00
N182   N     0.50842   0.53310   0.76347   0.00000  Uiso   1.00
N183   N     0.64279   0.60254   0.04629   0.00000  Uiso   1.00
N184   N     0.22152   0.75270   0.03728   0.00000  Uiso   1.00
C185   C     0.33284   0.23210   0.41432   0.00000  Uiso   1.00
C186   C     0.29274   0.17523   0.42019   0.00000  Uiso   1.00
C187   C     0.30322   0.09947   0.45162   0.00000  Uiso   1.00
C188   C     0.26116   0.05684   0.45161   0.00000  Uiso   1.00
C189   C     0.20659   0.96367   0.46536   0.00000  Uiso   1.00
C190   C     0.28093   0.28639   0.44370   0.00000  Uiso   1.00
C191   C     0.28150   0.30410   0.49489   0.00000  Uiso   1.00
C192   C     0.22951   0.35505   0.51465   0.00000  Uiso   1.00
C193   C     0.15664   0.43451   0.56487   0.00000  Uiso   1.00
C194   C     0.36088   0.27511   0.34076   0.00000  Uiso   1.00
C195   C     0.42867   0.28334   0.30540   0.00000  Uiso   1.00
C196   C     0.44399   0.32482   0.23849   0.00000  Uiso   1.00
C197   C     0.49525   0.38675   0.12888   0.00000  Uiso   1.00
C198   C     0.23951   0.29112   0.35838   0.00000  Uiso   1.00
C199   C     0.24205   0.20730   0.38980   0.00000  Uiso   1.00
C200   C     0.19997   0.16477   0.38973   0.00000  Uiso   1.00
C201   C     0.21039   0.08896   0.42116   0.00000  Uiso   1.00
C202   C     0.23024   0.31846   0.41331   0.00000  Uiso   1.00
C203   C     0.17825   0.36940   0.43300   0.00000  Uiso   1.00
C204   C     0.17873   0.38717   0.48421   0.00000  Uiso   1.00
C205   C     0.31019   0.30717   0.31037   0.00000  Uiso   1.00
C206   C     0.32542   0.34865   0.24351   0.00000  Uiso   1.00
C207   C     0.39321   0.35694   0.20805   0.00000  Uiso   1.00
H208   H     0.37230   0.20714   0.43798   0.00000  Uiso   1.00
H209   H     0.34245   0.07468   0.47514   0.00000  Uiso   1.00
H210   H     0.32073   0.27928   0.51839   0.00000  Uiso   1.00
H211   H     0.46788   0.25852   0.32893   0.00000  Uiso   1.00
H212   H     0.28698   0.94196   0.50296   0.00000  Uiso   1.00
H213   H     0.24121   0.37340   0.59414   0.00000  Uiso   1.00
H214   H     0.55150   0.32963   0.19462   0.00000  Uiso   1.00
H215   H     0.20005   0.31609   0.33473   0.00000  Uiso   1.00
H216   H     0.16074   0.18960   0.36622   0.00000  Uiso   1.00
H217   H     0.13903   0.39421   0.40947   0.00000  Uiso   1.00
H218   H     0.28618   0.37345   0.22001   0.00000  Uiso   1.00
H219   H     0.13950   0.03524   0.41456   0.00000  Uiso   1.00
H220   H     0.09374   0.46668   0.50574   0.00000  Uiso   1.00
H221   H     0.40402   0.42291   0.10622   0.00000  Uiso   1.00
O222   O     0.19048   0.90343   0.48135   0.00000  Uiso   1.00
O223   O     0.13044   0.46947   0.60098   0.00000  Uiso   1.00
O224   O     0.53753   0.41204   0.07682   0.00000  Uiso   1.00
N225   N     0.25767   0.98127   0.47782   0.00000  Uiso   1.00
N226   N     0.21488   0.38463   0.56308   0.00000  Uiso   1.00
N227   N     0.50497   0.34373   0.18956   0.00000  Uiso   1.00
N228   N     0.17832   0.03146   0.43025   0.00000  Uiso   1.00
N229   N     0.13552   0.43482   0.51551   0.00000  Uiso   1.00
N230   N     0.42561   0.39392   0.14200   0.00000  Uiso   1.00
C231   C     0.87282   0.91278   0.41398   0.00000  Uiso   1.00
C232   C     0.80780   0.92260   0.39793   0.00000  Uiso   1.00
C233   C     0.74309   0.94188   0.43492   0.00000  Uiso   1.00
C234   C     0.69023   0.94810   0.41194   0.00000  Uiso   1.00
C235   C     0.58753   0.96531   0.39581   0.00000  Uiso   1.00
C236   C     0.91934   0.96493   0.35354   0.00000  Uiso   1.00
C237   C     0.94842   0.01979   0.35321   0.00000  Uiso   1.00
C238   C     0.98946   0.06163   0.29285   0.00000  Uiso   1.00
C239   C     0.05996   0.14453   0.20781   0.00000  Uiso   1.00
C240   C     0.90586   0.83488   0.41743   0.00000  Uiso   1.00
C241   C     0.92362   0.78040   0.47081   0.00000  Uiso   1.00
C242   C     0.95333   0.71275   0.46423   0.00000  Uiso   1.00
C243   C     0.00290   0.59372   0.47838   0.00000  Uiso   1.00
C244   C     0.89403   0.88953   0.30739   0.00000  Uiso   1.00
C245   C     0.81932   0.90998   0.34003   0.00000  Uiso   1.00
C246   C     0.76655   0.91617   0.31699   0.00000  Uiso   1.00
C247   C     0.70177   0.93545   0.35394   0.00000  Uiso   1.00
C248   C     0.93086   0.95231   0.29564   0.00000  Uiso   1.00
C249   C     0.97188   0.99408   0.23527   0.00000  Uiso   1.00
C250   C     0.00100   0.04899   0.23485   0.00000  Uiso   1.00
C251   C     0.91738   0.82225   0.35953   0.00000  Uiso   1.00
C252   C     0.94708   0.75468   0.35287   0.00000  Uiso   1.00
C253   C     0.96487   0.70010   0.40623   0.00000  Uiso   1.00
H254   H     0.86386   0.92261   0.45906   0.00000  Uiso   1.00
H255   H     0.73420   0.95165   0.47973   0.00000  Uiso   1.00
H256   H     0.93950   0.02954   0.39802   0.00000  Uiso   1.00
H257   H     0.91470   0.79019   0.51560   0.00000  Uiso   1.00
H258   H     0.59553   0.97831   0.47709   0.00000  Uiso   1.00
H259   H     0.02843   0.14253   0.30482   0.00000  Uiso   1.00
H260   H     0.97614   0.63780   0.55276   0.00000  Uiso   1.00
H261   H     0.90300   0.87971   0.26231   0.00000  Uiso   1.00
H262   H     0.77548   0.90639   0.27218   0.00000  Uiso   1.00
H263   H     0.98078   0.98429   0.19048   0.00000  Uiso   1.00
H264   H     0.95598   0.74493   0.30806   0.00000  Uiso   1.00
H265   H     0.62903   0.94158   0.30864   0.00000  Uiso   1.00
H266   H     0.06194   0.10580   0.13637   0.00000  Uiso   1.00
H267   H     0.00965   0.60107   0.38431   0.00000  Uiso   1.00
O268   O     0.52769   0.97830   0.40290   0.00000  Uiso   1.00
O269   O     0.09565   0.19374   0.17689   0.00000  Uiso   1.00
O270   O     0.02705   0.53155   0.50218   0.00000  Uiso   1.00
N271   N     0.62091   0.96599   0.43610   0.00000  Uiso   1.00
N272   N     0.02564   0.11954   0.27504   0.00000  Uiso   1.00
N273   N     0.97677   0.64766   0.50683   0.00000  Uiso   1.00
N274   N     0.63894   0.94623   0.34546   0.00000  Uiso   1.00
N275   N     0.04367   0.09977   0.18439   0.00000  Uiso   1.00
N276   N     0.99480   0.62790   0.41619   0.00000  Uiso   1.00
C277   C     0.75415   0.55868   0.71158   0.00000  Uiso   1.00
C278   C     0.72439   0.63942   0.69589   0.00000  Uiso   1.00
C279   C     0.71164   0.68584   0.63732   0.00000  Uiso   1.00
C280   C     0.68427   0.75784   0.63263   0.00000  Uiso   1.00
C281   C     0.64016   0.87947   0.60037   0.00000  Uiso   1.00
C282   C     0.70331   0.51525   0.77462   0.00000  Uiso   1.00
C283   C     0.67285   0.45725   0.78225   0.00000  Uiso   1.00
C284   C     0.62774   0.42471   0.84384   0.00000  Uiso   1.00
C285   C     0.55094   0.35351   0.93382   0.00000  Uiso   1.00
C286   C     0.81697   0.55242   0.72988   0.00000  Uiso   1.00
C287   C     0.88209   0.52566   0.69990   0.00000  Uiso   1.00
C288   C     0.93267   0.52440   0.72383   0.00000  Uiso   1.00
C289   C     0.03237   0.51092   0.74434   0.00000  Uiso   1.00
C290   C     0.72820   0.60401   0.80739   0.00000  Uiso   1.00
C291   C     0.71029   0.66404   0.74793   0.00000  Uiso   1.00
C292   C     0.68293   0.73600   0.74333   0.00000  Uiso   1.00
C293   C     0.67015   0.78251   0.68476   0.00000  Uiso   1.00
C294   C     0.68921   0.53987   0.82666   0.00000  Uiso   1.00
C295   C     0.64414   0.50740   0.88826   0.00000  Uiso   1.00
C296   C     0.61362   0.44938   0.89598   0.00000  Uiso   1.00
C297   C     0.80288   0.57704   0.78192   0.00000  Uiso   1.00
C298   C     0.85338   0.57582   0.80590   0.00000  Uiso   1.00
C299   C     0.91855   0.54907   0.77596   0.00000  Uiso   1.00
H300   H     0.76512   0.53950   0.67106   0.00000  Uiso   1.00
H301   H     0.72255   0.66676   0.59706   0.00000  Uiso   1.00
H302   H     0.68377   0.43820   0.74197   0.00000  Uiso   1.00
H303   H     0.89297   0.50661   0.65963   0.00000  Uiso   1.00
H304   H     0.66911   0.81871   0.53798   0.00000  Uiso   1.00
H305   H     0.58736   0.33676   0.84353   0.00000  Uiso   1.00
H306   H     0.02851   0.48100   0.66990   0.00000  Uiso   1.00
H307   H     0.71723   0.62318   0.84791   0.00000  Uiso   1.00
H308   H     0.67203   0.75504   0.78361   0.00000  Uiso   1.00
H309   H     0.63325   0.52647   0.92852   0.00000  Uiso   1.00
H310   H     0.84245   0.59488   0.84618   0.00000  Uiso   1.00
H311   H     0.62811   0.89035   0.68939   0.00000  Uiso   1.00
H312   H     0.54635   0.40839   0.99494   0.00000  Uiso   1.00
H313   H     0.98750   0.55265   0.82131   0.00000  Uiso   1.00
O314   O     0.61972   0.93975   0.56820   0.00000  Uiso   1.00
O315   O     0.51247   0.30744   0.96908   0.00000  Uiso   1.00
O316   O     0.09125   0.49670   0.74128   0.00000  Uiso   1.00
N317   N     0.66568   0.81748   0.58243   0.00000  Uiso   1.00
N318   N     0.58923   0.36689   0.86810   0.00000  Uiso   1.00
N319   N     0.00167   0.50173   0.70578   0.00000  Uiso   1.00
N320   N     0.64361   0.85603   0.66390   0.00000  Uiso   1.00
N321   N     0.56717   0.40544   0.94957   0.00000  Uiso   1.00
N322   N     0.97961   0.54028   0.78726   0.00000  Uiso   1.00
C323   C     0.68836   0.15875   0.20362   0.00000  Uiso   1.00
C324   C     0.70293   0.14932   0.26556   0.00000  Uiso   1.00
C325   C     0.65516   0.14160   0.32699   0.00000  Uiso   1.00
C326   C     0.67867   0.13361   0.37739   0.00000  Uiso   1.00
C327   C     0.69081   0.11896   0.47521   0.00000  Uiso   1.00
C328   C     0.73276   0.09655   0.18039   0.00000  Uiso   1.00
C329   C     0.71008   0.04448   0.17019   0.00000  Uiso   1.00
C330   C     0.75871   0.99207   0.14888   0.00000  Uiso   1.00
C331   C     0.81718   0.89554   0.11441   0.00000  Uiso   1.00
C332   C     0.71623   0.23005   0.15139   0.00000  Uiso   1.00
C333   C     0.67966   0.29021   0.11680   0.00000  Uiso   1.00
C334   C     0.71437   0.35020   0.07107   0.00000  Uiso   1.00
C335   C     0.74718   0.46094   0.99159   0.00000  Uiso   1.00
C336   C     0.81506   0.15828   0.18389   0.00000  Uiso   1.00
C337   C     0.77174   0.14906   0.25484   0.00000  Uiso   1.00
C338   C     0.79533   0.14108   0.30516   0.00000  Uiso   1.00
C339   C     0.74761   0.13335   0.36665   0.00000  Uiso   1.00
C340   C     0.80158   0.09630   0.16967   0.00000  Uiso   1.00
C341   C     0.85025   0.04396   0.14836   0.00000  Uiso   1.00
C342   C     0.82765   0.99181   0.13814   0.00000  Uiso   1.00
C343   C     0.78505   0.22980   0.14067   0.00000  Uiso   1.00
C344   C     0.81983   0.28970   0.09498   0.00000  Uiso   1.00
C345   C     0.78332   0.34994   0.06033   0.00000  Uiso   1.00
H346   H     0.63479   0.15894   0.21196   0.00000  Uiso   1.00
H347   H     0.60191   0.14179   0.33527   0.00000  Uiso   1.00
H348   H     0.65682   0.04469   0.17848   0.00000  Uiso   1.00
H349   H     0.62640   0.29039   0.12511   0.00000  Uiso   1.00
H350   H     0.59580   0.12264   0.46725   0.00000  Uiso   1.00
H351   H     0.71159   0.91791   0.13664   0.00000  Uiso   1.00
H352   H     0.64745   0.43601   0.02409   0.00000  Uiso   1.00
H353   H     0.86864   0.15808   0.17554   0.00000  Uiso   1.00
H354   H     0.84859   0.14089   0.29685   0.00000  Uiso   1.00
H355   H     0.90350   0.04378   0.14007   0.00000  Uiso   1.00
H356   H     0.87309   0.28948   0.08670   0.00000  Uiso   1.00
H357   H     0.79602   0.12190   0.43607   0.00000  Uiso   1.00
H358   H     0.91181   0.91717   0.10546   0.00000  Uiso   1.00
H359   H     0.84767   0.43527   0.99292   0.00000  Uiso   1.00
O360   O     0.67850   0.11095   0.53212   0.00000  Uiso   1.00
O361   O     0.83042   0.84236   0.09837   0.00000  Uiso   1.00
O362   O     0.74626   0.52210   0.95071   0.00000  Uiso   1.00
N363   N     0.64567   0.12484   0.44326   0.00000  Uiso   1.00
N364   N     0.75393   0.93342   0.13417   0.00000  Uiso   1.00
N365   N     0.69397   0.41780   0.02894   0.00000  Uiso   1.00
N366   N     0.75341   0.12444   0.42649   0.00000  Uiso   1.00
N367   N     0.86167   0.93303   0.11740   0.00000  Uiso   1.00
N368   N     0.80170   0.41740   0.01216   0.00000  Uiso   1.00
C369   C     0.20651   0.14486   0.75264   0.00000  Uiso   1.00
C370   C     0.23660   0.20962   0.74697   0.00000  Uiso   1.00
C371   C     0.30459   0.21245   0.73472   0.00000  Uiso   1.00
C372   C     0.32191   0.27665   0.73134   0.00000  Uiso   1.00
C373   C     0.37608   0.36822   0.72121   0.00000  Uiso   1.00
C374   C     0.16880   0.17586   0.70182   0.00000  Uiso   1.00
C375   C     0.17978   0.15028   0.65161   0.00000  Uiso   1.00
C376   C     0.14002   0.18606   0.61022   0.00000  Uiso   1.00
C377   C     0.08890   0.22516   0.53001   0.00000  Uiso   1.00
C378   C     0.15238   0.12381   0.81994   0.00000  Uiso   1.00
C379   C     0.14954   0.05446   0.86904   0.00000  Uiso   1.00
C380   C     0.09594   0.04641   0.92710   0.00000  Uiso   1.00
C381   C     0.01932   0.00470   0.03029   0.00000  Uiso   1.00
C382   C     0.11638   0.25386   0.76843   0.00000  Uiso   1.00
C383   C     0.18764   0.26883   0.75555   0.00000  Uiso   1.00
C384   C     0.20486   0.33304   0.75219   0.00000  Uiso   1.00
C385   C     0.27287   0.33596   0.73994   0.00000  Uiso   1.00
C386   C     0.11984   0.23506   0.71039   0.00000  Uiso   1.00
C387   C     0.08006   0.27087   0.66907   0.00000  Uiso   1.00
C388   C     0.09098   0.24537   0.61881   0.00000  Uiso   1.00
C389   C     0.10342   0.18301   0.82852   0.00000  Uiso   1.00
C390   C     0.04982   0.17506   0.88651   0.00000  Uiso   1.00
C391   C     0.04690   0.10572   0.93569   0.00000  Uiso   1.00
H392   H     0.24463   0.09877   0.74596   0.00000  Uiso   1.00
H393   H     0.34246   0.16662   0.72808   0.00000  Uiso   1.00
H394   H     0.21766   0.10446   0.64499   0.00000  Uiso   1.00
H395   H     0.18743   0.00866   0.86239   0.00000  Uiso   1.00
H396   H     0.42934   0.26797   0.71202   0.00000  Uiso   1.00
H397   H     0.16619   0.13688   0.53682   0.00000  Uiso   1.00
H398   H     0.10243   0.93486   0.99525   0.00000  Uiso   1.00
H399   H     0.07826   0.29995   0.77510   0.00000  Uiso   1.00
H400   H     0.16697   0.37885   0.75883   0.00000  Uiso   1.00
H401   H     0.04217   0.31668   0.67573   0.00000  Uiso   1.00
H402   H     0.01194   0.22088   0.89313   0.00000  Uiso   1.00
H403   H     0.28690   0.44022   0.73697   0.00000  Uiso   1.00
H404   H     0.02375   0.30913   0.56177   0.00000  Uiso   1.00
H405   H     0.95999   0.10711   0.02020   0.00000  Uiso   1.00
O406   O     0.41948   0.40237   0.71324   0.00000  Uiso   1.00
O407   O     0.07423   0.23038   0.48339   0.00000  Uiso   1.00
O408   O     0.99058   0.96534   0.08484   0.00000  Uiso   1.00
N409   N     0.38364   0.29768   0.72014   0.00000  Uiso   1.00
N410   N     0.13762   0.17513   0.55633   0.00000  Uiso   1.00
N411   N     0.07800   0.98625   0.98492   0.00000  Uiso   1.00
N412   N     0.30700   0.39036   0.73357   0.00000  Uiso   1.00
N413   N     0.06097   0.26781   0.56976   0.00000  Uiso   1.00
N414   N     0.00136   0.07893   0.99835   0.00000  Uiso   1.00
C415   C     0.33252   0.58598   0.66409   0.00000  Uiso   1.00
C416   C     0.32320   0.58655   0.73175   0.00000  Uiso   1.00
C417   C     0.33185   0.52521   0.78577   0.00000  Uiso   1.00
C418   C     0.32089   0.53729   0.84327   0.00000  Uiso   1.00
C419   C     0.30926   0.52740   0.94784   0.00000  Uiso   1.00
C420   C     0.26580   0.62166   0.64983   0.00000  Uiso   1.00
C421   C     0.22619   0.58983   0.63496   0.00000  Uiso   1.00
C422   C     0.16692   0.63146   0.62349   0.00000  Uiso   1.00
C423   C     0.06620   0.67609   0.60083   0.00000  Uiso   1.00
C424   C     0.38470   0.63916   0.61484   0.00000  Uiso   1.00
C425   C     0.44506   0.62207   0.57054   0.00000  Uiso   1.00
C426   C     0.48588   0.67844   0.52961   0.00000  Uiso   1.00
C427   C     0.56977   0.75025   0.45262   0.00000  Uiso   1.00
C428   C     0.29770   0.71650   0.67014   0.00000  Uiso   1.00
C429   C     0.30428   0.65745   0.73503   0.00000  Uiso   1.00
C430   C     0.29331   0.66963   0.79247   0.00000  Uiso   1.00
C431   C     0.30195   0.60831   0.84657   0.00000  Uiso   1.00
C432   C     0.24688   0.69255   0.65311   0.00000  Uiso   1.00
C433   C     0.18766   0.73425   0.64166   0.00000  Uiso   1.00
C434   C     0.14797   0.70249   0.62679   0.00000  Uiso   1.00
C435   C     0.36578   0.71006   0.61813   0.00000  Uiso   1.00
C436   C     0.40652   0.76648   0.57725   0.00000  Uiso   1.00
C437   C     0.46693   0.74947   0.53290   0.00000  Uiso   1.00
H438   H     0.34725   0.53078   0.66153   0.00000  Uiso   1.00
H439   H     0.34648   0.47035   0.78321   0.00000  Uiso   1.00
H440   H     0.24085   0.53497   0.63242   0.00000  Uiso   1.00
H441   H     0.45968   0.56720   0.56802   0.00000  Uiso   1.00
H442   H     0.33726   0.43462   0.91957   0.00000  Uiso   1.00
H443   H     0.11454   0.57088   0.60160   0.00000  Uiso   1.00
H444   H     0.57599   0.63883   0.46579   0.00000  Uiso   1.00
H445   H     0.28297   0.77170   0.67270   0.00000  Uiso   1.00
H446   H     0.27867   0.72450   0.79500   0.00000  Uiso   1.00
H447   H     0.17304   0.78911   0.64420   0.00000  Uiso   1.00
H448   H     0.39187   0.82134   0.57980   0.00000  Uiso   1.00
H449   H     0.28223   0.64089   0.92914   0.00000  Uiso   1.00
H450   H     0.05950   0.77715   0.61116   0.00000  Uiso   1.00
H451   H     0.52095   0.84510   0.47536   0.00000  Uiso   1.00
O452   O     0.30806   0.50235   0.00461   0.00000  Uiso   1.00
O453   O     0.01586   0.68112   0.58743   0.00000  Uiso   1.00
O454   O     0.62127   0.77027   0.40926   0.00000  Uiso   1.00
N455   N     0.32491   0.48965   0.90504   0.00000  Uiso   1.00
N456   N     0.11668   0.61703   0.60776   0.00000  Uiso   1.00
N457   N     0.54808   0.68057   0.48078   0.00000  Uiso   1.00
N458   N     0.29530   0.60064   0.91019   0.00000  Uiso   1.00
N459   N     0.08706   0.72803   0.61291   0.00000  Uiso   1.00
N460   N     0.51846   0.79157   0.48593   0.00000  Uiso   1.00
C461   C     0.33922   0.04691   0.13180   0.00000  Uiso   1.00
C462   C     0.31855   0.12999   0.11133   0.00000  Uiso   1.00
C463   C     0.25546   0.16534   0.10595   0.00000  Uiso   1.00
C464   C     0.24662   0.24176   0.08649   0.00000  Uiso   1.00
C465   C     0.20656   0.36475   0.05675   0.00000  Uiso   1.00
C466   C     0.40157   0.03535   0.07597   0.00000  Uiso   1.00
C467   C     0.40829   0.99111   0.04086   0.00000  Uiso   1.00
C468   C     0.46936   0.98785   0.99164   0.00000  Uiso   1.00
C469   C     0.55821   0.96386   0.90703   0.00000  Uiso   1.00
C470   C     0.36368   0.02530   0.19096   0.00000  Uiso   1.00
C471   C     0.33855   0.97261   0.25254   0.00000  Uiso   1.00
C472   C     0.36772   0.96088   0.30013   0.00000  Uiso   1.00
C473   C     0.39773   0.92130   0.39406   0.00000  Uiso   1.00
C474   C     0.43573   0.11975   0.10682   0.00000  Uiso   1.00
C475   C     0.37097   0.16956   0.09777   0.00000  Uiso   1.00
C476   C     0.36223   0.24594   0.07832   0.00000  Uiso   1.00
C477   C     0.29913   0.28140   0.07291   0.00000  Uiso   1.00
C478   C     0.45399   0.07491   0.06240   0.00000  Uiso   1.00
C479   C     0.51506   0.07171   0.01323   0.00000  Uiso   1.00
C480   C     0.52187   0.02749   0.97805   0.00000  Uiso   1.00
C481   C     0.41610   0.06487   0.17740   0.00000  Uiso   1.00
C482   C     0.44532   0.05321   0.22490   0.00000  Uiso   1.00
C483   C     0.42023   0.00052   0.28654   0.00000  Uiso   1.00
H484   H     0.29841   0.01610   0.14236   0.00000  Uiso   1.00
H485   H     0.21491   0.13470   0.11645   0.00000  Uiso   1.00
H486   H     0.36772   0.96050   0.05138   0.00000  Uiso   1.00
H487   H     0.29798   0.94200   0.26302   0.00000  Uiso   1.00
H488   H     0.14544   0.28365   0.08172   0.00000  Uiso   1.00
H489   H     0.46767   0.91630   0.94453   0.00000  Uiso   1.00
H490   H     0.32062   0.87730   0.39081   0.00000  Uiso   1.00
H491   H     0.47654   0.15056   0.09626   0.00000  Uiso   1.00
H492   H     0.40280   0.27654   0.06782   0.00000  Uiso   1.00
H493   H     0.55562   0.10233   0.00275   0.00000  Uiso   1.00
H494   H     0.48588   0.08384   0.21439   0.00000  Uiso   1.00
H495   H     0.29795   0.39877   0.04225   0.00000  Uiso   1.00
H496   H     0.62018   0.03142   0.90506   0.00000  Uiso   1.00
H497   H     0.47312   0.99243   0.35134   0.00000  Uiso   1.00
O498   O     0.16998   0.42167   0.04408   0.00000  Uiso   1.00
O499   O     0.59274   0.93971   0.86411   0.00000  Uiso   1.00
O500   O     0.39980   0.88854   0.44962   0.00000  Uiso   1.00
N501   N     0.19145   0.29345   0.07634   0.00000  Uiso   1.00
N502   N     0.49271   0.95001   0.94807   0.00000  Uiso   1.00
N503   N     0.35524   0.91354   0.36531   0.00000  Uiso   1.00
N504   N     0.27351   0.35540   0.05510   0.00000  Uiso   1.00
N505   N     0.57477   0.01196   0.92683   0.00000  Uiso   1.00
N506   N     0.43730   0.97548   0.34407   0.00000  Uiso   1.00
C507   C     0.76451   0.61001   0.18431   0.00000  Uiso   1.00
C508   C     0.80459   0.59540   0.23071   0.00000  Uiso   1.00
C509   C     0.87463   0.58836   0.21377   0.00000  Uiso   1.00
C510   C     0.90157   0.57506   0.26332   0.00000  Uiso   1.00
C511   C     0.97015   0.55325   0.32562   0.00000  Uiso   1.00
C512   C     0.72019   0.54729   0.21610   0.00000  Uiso   1.00
C513   C     0.71926   0.49983   0.18688   0.00000  Uiso   1.00
C514   C     0.67514   0.44604   0.22414   0.00000  Uiso   1.00
C515   C     0.61265   0.34959   0.26375   0.00000  Uiso   1.00
C516   C     0.71617   0.67971   0.18706   0.00000  Uiso   1.00
C517   C     0.71185   0.74358   0.13342   0.00000  Uiso   1.00
C518   C     0.66432   0.80128   0.14623   0.00000  Uiso   1.00
C519   C     0.59559   0.91043   0.14075   0.00000  Uiso   1.00
C520   C     0.68779   0.59890   0.30243   0.00000  Uiso   1.00
C521   C     0.76292   0.58936   0.29487   0.00000  Uiso   1.00
C522   C     0.78976   0.57607   0.34446   0.00000  Uiso   1.00
C523   C     0.85982   0.56902   0.32760   0.00000  Uiso   1.00
C524   C     0.67852   0.54126   0.28026   0.00000  Uiso   1.00
C525   C     0.63439   0.48754   0.31758   0.00000  Uiso   1.00
C526   C     0.63339   0.43999   0.28842   0.00000  Uiso   1.00
C527   C     0.67450   0.67368   0.25123   0.00000  Uiso   1.00
C528   C     0.62697   0.73129   0.26412   0.00000  Uiso   1.00
C529   C     0.62258   0.79523   0.21051   0.00000  Uiso   1.00
H530   H     0.79695   0.61470   0.13435   0.00000  Uiso   1.00
H531   H     0.90686   0.59303   0.16411   0.00000  Uiso   1.00
H532   H     0.75151   0.50451   0.13722   0.00000  Uiso   1.00
H533   H     0.74410   0.74823   0.08378   0.00000  Uiso   1.00
H534   H     0.01035   0.56631   0.22540   0.00000  Uiso   1.00
H535   H     0.68276   0.37969   0.16871   0.00000  Uiso   1.00
H536   H     0.66713   0.89361   0.05600   0.00000  Uiso   1.00
H537   H     0.65535   0.59420   0.35239   0.00000  Uiso   1.00
H538   H     0.75750   0.57141   0.39411   0.00000  Uiso   1.00
H539   H     0.60215   0.48289   0.36723   0.00000  Uiso   1.00
H540   H     0.59474   0.72660   0.31378   0.00000  Uiso   1.00
H541   H     0.88912   0.54876   0.41208   0.00000  Uiso   1.00
H542   H     0.56153   0.36213   0.35538   0.00000  Uiso   1.00
H543   H     0.54590   0.87606   0.24268   0.00000  Uiso   1.00
O544   O     0.01949   0.54288   0.34225   0.00000  Uiso   1.00
O545   O     0.58970   0.29805   0.26787   0.00000  Uiso   1.00
O546   O     0.56920   0.97230   0.12000   0.00000  Uiso   1.00
N547   N     0.96780   0.56532   0.26360   0.00000  Uiso   1.00
N548   N     0.66153   0.39083   0.21060   0.00000  Uiso   1.00
N549   N     0.64691   0.87130   0.10523   0.00000  Uiso   1.00
N550   N     0.90257   0.55588   0.36406   0.00000  Uiso   1.00
N551   N     0.59630   0.38139   0.31105   0.00000  Uiso   1.00
N552   N     0.58168   0.86186   0.20568   0.00000  Uiso   1.00
