data_job_01009
_audit_creation_date              2018-12-19
_audit_creation_method            'Materials Studio'
_symmetry_space_group_name_H-M    'P1'
_symmetry_Int_Tables_number       1
_symmetry_cell_setting            triclinic
loop_
_symmetry_equiv_pos_as_xyz
  x,y,z
_cell_length_a                    10.4046
_cell_length_b                    12.5303
_cell_length_c                    14.6293
_cell_angle_alpha                 113.5139
_cell_angle_beta                  74.6203
_cell_angle_gamma                 96.0424
loop_
_atom_site_label
_atom_site_type_symbol
_atom_site_fract_x
_atom_site_fract_y
_atom_site_fract_z
_atom_site_U_iso_or_equiv
_atom_site_adp_type
_atom_site_occupancy
C1     C     0.64143   0.05296   0.15435   0.00000  Uiso   1.00
C2     C     0.71757   0.94061   0.12057   0.00000  Uiso   1.00
C3     C     0.77077   0.86675   0.01968   0.00000  Uiso   1.00
C4     C     0.83688   0.76830   0.00482   0.00000  Uiso   1.00
C5     C     0.95317   0.59742   0.93972   0.00000  Uiso   1.00
C6     C     0.50699   0.03988   0.22278   0.00000  Uiso   1.00
C7     C     0.38313   0.04949   0.20783   0.00000  Uiso   1.00
C8     C     0.27198   0.03462   0.27903   0.00000  Uiso   1.00
C9     C     0.06133   0.01794   0.37266   0.00000  Uiso   1.00
C10    C     0.71534   0.14857   0.22457   0.00000  Uiso   1.00
C11    C     0.76665   0.24958   0.21116   0.00000  Uiso   1.00
C12    C     0.83089   0.32623   0.28389   0.00000  Uiso   1.00
C13    C     0.94374   0.47831   0.38030   0.00000  Uiso   1.00
C14    C     0.66424   0.00947   0.30738   0.00000  Uiso   1.00
C15    C     0.72996   0.91700   0.20369   0.00000  Uiso   1.00
C16    C     0.79601   0.81864   0.18899   0.00000  Uiso   1.00
C17    C     0.84930   0.74464   0.08809   0.00000  Uiso   1.00
C18    C     0.51938   0.01626   0.30590   0.00000  Uiso   1.00
C19    C     0.40838   0.00138   0.37714   0.00000  Uiso   1.00
C20    C     0.28439   0.01096   0.36230   0.00000  Uiso   1.00
C21    C     0.72774   0.12495   0.30770   0.00000  Uiso   1.00
C22    C     0.79190   0.20146   0.38046   0.00000  Uiso   1.00
C23    C     0.84330   0.30257   0.36716   0.00000  Uiso   1.00
H24    H     0.63177   0.07135   0.08964   0.00000  Uiso   1.00
H25    H     0.76114   0.88505   0.95537   0.00000  Uiso   1.00
H26    H     0.37357   0.06778   0.14351   0.00000  Uiso   1.00
H27    H     0.75704   0.26783   0.14683   0.00000  Uiso   1.00
H28    H     0.91000   0.66807   0.84317   0.00000  Uiso   1.00
H29    H     0.09279   0.05341   0.23988   0.00000  Uiso   1.00
H30    H     0.90139   0.47526   0.24688   0.00000  Uiso   1.00
H31    H     0.67389   0.99108   0.37210   0.00000  Uiso   1.00
H32    H     0.80559   0.80038   0.25332   0.00000  Uiso   1.00
H33    H     0.41801   0.98311   0.44146   0.00000  Uiso   1.00
H34    H     0.80147   0.18316   0.44478   0.00000  Uiso   1.00
H35    H     0.94607   0.59935   0.08499   0.00000  Uiso   1.00
H36    H     0.12885   0.98469   0.48170   0.00000  Uiso   1.00
H37    H     0.93746   0.40653   0.48871   0.00000  Uiso   1.00
O38    O     0.01387   0.50969   0.88085   0.00000  Uiso   1.00
O39    O     0.94172   0.01526   0.40133   0.00000  Uiso   1.00
O40    O     0.00259   0.56871   0.41051   0.00000  Uiso   1.00
N41    N     0.90044   0.67808   0.91638   0.00000  Uiso   1.00
N42    N     0.13639   0.03833   0.28727   0.00000  Uiso   1.00
N43    N     0.89234   0.43274   0.29383   0.00000  Uiso   1.00
N44    N     0.91985   0.64110   0.04651   0.00000  Uiso   1.00
N45    N     0.15580   0.00135   0.41740   0.00000  Uiso   1.00
N46    N     0.91175   0.39576   0.42396   0.00000  Uiso   1.00
C47    C     0.35857   0.94704   0.84565   0.00000  Uiso   1.00
C48    C     0.28243   0.05939   0.87943   0.00000  Uiso   1.00
C49    C     0.22923   0.13325   0.98032   0.00000  Uiso   1.00
C50    C     0.16312   0.23170   0.99518   0.00000  Uiso   1.00
C51    C     0.04683   0.40258   0.06028   0.00000  Uiso   1.00
C52    C     0.49301   0.96012   0.77722   0.00000  Uiso   1.00
C53    C     0.61687   0.95051   0.79217   0.00000  Uiso   1.00
C54    C     0.72802   0.96538   0.72097   0.00000  Uiso   1.00
C55    C     0.93867   0.98206   0.62734   0.00000  Uiso   1.00
C56    C     0.28466   0.85143   0.77543   0.00000  Uiso   1.00
C57    C     0.23335   0.75042   0.78884   0.00000  Uiso   1.00
C58    C     0.16911   0.67377   0.71611   0.00000  Uiso   1.00
C59    C     0.05626   0.52169   0.61970   0.00000  Uiso   1.00
C60    C     0.33576   0.99053   0.69262   0.00000  Uiso   1.00
C61    C     0.27004   0.08300   0.79631   0.00000  Uiso   1.00
C62    C     0.20399   0.18136   0.81101   0.00000  Uiso   1.00
C63    C     0.15070   0.25536   0.91191   0.00000  Uiso   1.00
C64    C     0.48062   0.98374   0.69410   0.00000  Uiso   1.00
C65    C     0.59162   0.99862   0.62286   0.00000  Uiso   1.00
C66    C     0.71561   0.98904   0.63770   0.00000  Uiso   1.00
C67    C     0.27226   0.87505   0.69230   0.00000  Uiso   1.00
C68    C     0.20810   0.79854   0.61954   0.00000  Uiso   1.00
C69    C     0.15670   0.69743   0.63284   0.00000  Uiso   1.00
H70    H     0.36823   0.92865   0.91036   0.00000  Uiso   1.00
H71    H     0.23886   0.11495   0.04463   0.00000  Uiso   1.00
H72    H     0.62643   0.93222   0.85649   0.00000  Uiso   1.00
H73    H     0.24296   0.73217   0.85317   0.00000  Uiso   1.00
H74    H     0.09000   0.33193   0.15683   0.00000  Uiso   1.00
H75    H     0.90721   0.94659   0.76012   0.00000  Uiso   1.00
H76    H     0.09861   0.52474   0.75312   0.00000  Uiso   1.00
H77    H     0.32611   0.00892   0.62790   0.00000  Uiso   1.00
H78    H     0.19441   0.19962   0.74668   0.00000  Uiso   1.00
H79    H     0.58199   0.01689   0.55854   0.00000  Uiso   1.00
H80    H     0.19853   0.81684   0.55522   0.00000  Uiso   1.00
H81    H     0.05393   0.40065   0.91501   0.00000  Uiso   1.00
H82    H     0.87115   0.01531   0.51830   0.00000  Uiso   1.00
H83    H     0.06254   0.59347   0.51129   0.00000  Uiso   1.00
O84    O     0.98613   0.49031   0.11915   0.00000  Uiso   1.00
O85    O     0.05828   0.98474   0.59867   0.00000  Uiso   1.00
O86    O     0.99741   0.43129   0.58949   0.00000  Uiso   1.00
N87    N     0.09956   0.32192   0.08362   0.00000  Uiso   1.00
N88    N     0.86361   0.96167   0.71273   0.00000  Uiso   1.00
N89    N     0.10766   0.56726   0.70617   0.00000  Uiso   1.00
N90    N     0.08015   0.35890   0.95349   0.00000  Uiso   1.00
N91    N     0.84420   0.99865   0.58260   0.00000  Uiso   1.00
N92    N     0.08825   0.60424   0.57604   0.00000  Uiso   1.00
