data_job_04117
_audit_creation_date              2018-12-19
_audit_creation_method            'Materials Studio'
_symmetry_space_group_name_H-M    'P1'
_symmetry_Int_Tables_number       1
_symmetry_cell_setting            triclinic
loop_
_symmetry_equiv_pos_as_xyz
  x,y,z
_cell_length_a                    36.4908
_cell_length_b                    24.0831
_cell_length_c                    24.6884
_cell_angle_alpha                 90.0000
_cell_angle_beta                  138.4305
_cell_angle_gamma                 90.0000
loop_
_atom_site_label
_atom_site_type_symbol
_atom_site_fract_x
_atom_site_fract_y
_atom_site_fract_z
_atom_site_U_iso_or_equiv
_atom_site_adp_type
_atom_site_occupancy
C1     C     0.58365   0.88766   0.02708   0.00000  Uiso   1.00
C2     C     0.57653   0.94717   0.99931   0.00000  Uiso   1.00
C3     C     0.59010   0.99474   0.04311   0.00000  Uiso   1.00
C4     C     0.58043   0.04530   0.00713   0.00000  Uiso   1.00
C5     C     0.57276   0.13728   0.97569   0.00000  Uiso   1.00
C6     C     0.52673   0.86083   0.96035   0.00000  Uiso   1.00
C7     C     0.49843   0.83581   0.97141   0.00000  Uiso   1.00
C8     C     0.44684   0.81369   0.90264   0.00000  Uiso   1.00
C9     C     0.36187   0.77160   0.81074   0.00000  Uiso   1.00
C10    C     0.61939   0.85853   0.02442   0.00000  Uiso   1.00
C11    C     0.66899   0.83156   0.08934   0.00000  Uiso   1.00
C12    C     0.69541   0.80749   0.07450   0.00000  Uiso   1.00
C13    C     0.75431   0.76183   0.08207   0.00000  Uiso   1.00
C14    C     0.54236   0.89287   0.88530   0.00000  Uiso   1.00
C15    C     0.55410   0.95000   0.92229   0.00000  Uiso   1.00
C16    C     0.54441   0.00050   0.88624   0.00000  Uiso   1.00
C17    C     0.55796   0.04814   0.92998   0.00000  Uiso   1.00
C18    C     0.50430   0.86366   0.88334   0.00000  Uiso   1.00
C19    C     0.45274   0.84158   0.81454   0.00000  Uiso   1.00
C20    C     0.42437   0.81653   0.82548   0.00000  Uiso   1.00
C21    C     0.59696   0.86136   0.94741   0.00000  Uiso   1.00
C22    C     0.62331   0.83733   0.93246   0.00000  Uiso   1.00
C23    C     0.67294   0.81033   0.99735   0.00000  Uiso   1.00
H24    H     0.60111   0.88545   0.08704   0.00000  Uiso   1.00
H25    H     0.60745   0.99253   0.10270   0.00000  Uiso   1.00
H26    H     0.51580   0.83362   0.03101   0.00000  Uiso   1.00
H27    H     0.68633   0.82938   0.14892   0.00000  Uiso   1.00
H28    H     0.60457   0.11250   0.08609   0.00000  Uiso   1.00
H29    H     0.41132   0.77741   0.93494   0.00000  Uiso   1.00
H30    H     0.77093   0.76846   0.18358   0.00000  Uiso   1.00
H31    H     0.52490   0.89507   0.82533   0.00000  Uiso   1.00
H32    H     0.52706   0.00268   0.82664   0.00000  Uiso   1.00
H33    H     0.43540   0.84377   0.75495   0.00000  Uiso   1.00
H34    H     0.60594   0.83953   0.87286   0.00000  Uiso   1.00
H35    H     0.53932   0.12074   0.86203   0.00000  Uiso   1.00
H36    H     0.34607   0.78565   0.71088   0.00000  Uiso   1.00
H37    H     0.70568   0.77670   0.95951   0.00000  Uiso   1.00
O38    O     0.57472   0.18723   0.97963   0.00000  Uiso   1.00
O39    O     0.32120   0.74761   0.78133   0.00000  Uiso   1.00
O40    O     0.79299   0.73587   0.10753   0.00000  Uiso   1.00
N41    N     0.58892   0.09967   0.03319   0.00000  Uiso   1.00
N42    N     0.40825   0.78639   0.89187   0.00000  Uiso   1.00
N43    N     0.74444   0.77801   0.12431   0.00000  Uiso   1.00
N44    N     0.55381   0.10410   0.91262   0.00000  Uiso   1.00
N45    N     0.37314   0.79082   0.77130   0.00000  Uiso   1.00
N46    N     0.70933   0.78244   0.00375   0.00000  Uiso   1.00
C47    C     0.08365   0.38766   0.02708   0.00000  Uiso   1.00
C48    C     0.07653   0.44717   0.99931   0.00000  Uiso   1.00
C49    C     0.09010   0.49474   0.04311   0.00000  Uiso   1.00
C50    C     0.08043   0.54530   0.00713   0.00000  Uiso   1.00
C51    C     0.07276   0.63728   0.97569   0.00000  Uiso   1.00
C52    C     0.02673   0.36083   0.96035   0.00000  Uiso   1.00
C53    C     0.99843   0.33581   0.97141   0.00000  Uiso   1.00
C54    C     0.94684   0.31369   0.90264   0.00000  Uiso   1.00
C55    C     0.86187   0.27160   0.81074   0.00000  Uiso   1.00
C56    C     0.11939   0.35853   0.02442   0.00000  Uiso   1.00
C57    C     0.16899   0.33156   0.08934   0.00000  Uiso   1.00
C58    C     0.19541   0.30749   0.07450   0.00000  Uiso   1.00
C59    C     0.25431   0.26183   0.08207   0.00000  Uiso   1.00
C60    C     0.04236   0.39287   0.88530   0.00000  Uiso   1.00
C61    C     0.05410   0.45000   0.92229   0.00000  Uiso   1.00
C62    C     0.04441   0.50050   0.88624   0.00000  Uiso   1.00
C63    C     0.05796   0.54814   0.92998   0.00000  Uiso   1.00
C64    C     0.00430   0.36366   0.88334   0.00000  Uiso   1.00
C65    C     0.95274   0.34158   0.81454   0.00000  Uiso   1.00
C66    C     0.92437   0.31653   0.82548   0.00000  Uiso   1.00
C67    C     0.09696   0.36136   0.94741   0.00000  Uiso   1.00
C68    C     0.12331   0.33733   0.93246   0.00000  Uiso   1.00
C69    C     0.17294   0.31033   0.99735   0.00000  Uiso   1.00
H70    H     0.10111   0.38545   0.08704   0.00000  Uiso   1.00
H71    H     0.10745   0.49253   0.10270   0.00000  Uiso   1.00
H72    H     0.01580   0.33362   0.03101   0.00000  Uiso   1.00
H73    H     0.18633   0.32938   0.14892   0.00000  Uiso   1.00
H74    H     0.10457   0.61250   0.08609   0.00000  Uiso   1.00
H75    H     0.91132   0.27741   0.93494   0.00000  Uiso   1.00
H76    H     0.27093   0.26846   0.18358   0.00000  Uiso   1.00
H77    H     0.02490   0.39507   0.82533   0.00000  Uiso   1.00
H78    H     0.02706   0.50268   0.82664   0.00000  Uiso   1.00
H79    H     0.93540   0.34377   0.75495   0.00000  Uiso   1.00
H80    H     0.10594   0.33953   0.87286   0.00000  Uiso   1.00
H81    H     0.03932   0.62074   0.86203   0.00000  Uiso   1.00
H82    H     0.84607   0.28565   0.71088   0.00000  Uiso   1.00
H83    H     0.20568   0.27670   0.95951   0.00000  Uiso   1.00
O84    O     0.07472   0.68723   0.97963   0.00000  Uiso   1.00
O85    O     0.82120   0.24761   0.78133   0.00000  Uiso   1.00
O86    O     0.29299   0.23587   0.10753   0.00000  Uiso   1.00
N87    N     0.08892   0.59967   0.03319   0.00000  Uiso   1.00
N88    N     0.90825   0.28639   0.89187   0.00000  Uiso   1.00
N89    N     0.24444   0.27801   0.12431   0.00000  Uiso   1.00
N90    N     0.05381   0.60410   0.91262   0.00000  Uiso   1.00
N91    N     0.87314   0.29082   0.77130   0.00000  Uiso   1.00
N92    N     0.20933   0.28244   0.00375   0.00000  Uiso   1.00
C93    C     0.41635   0.88766   0.47292   0.00000  Uiso   1.00
C94    C     0.42347   0.94717   0.50069   0.00000  Uiso   1.00
C95    C     0.40990   0.99474   0.45689   0.00000  Uiso   1.00
C96    C     0.41957   0.04530   0.49287   0.00000  Uiso   1.00
C97    C     0.42724   0.13728   0.52431   0.00000  Uiso   1.00
C98    C     0.47327   0.86083   0.53965   0.00000  Uiso   1.00
C99    C     0.50157   0.83581   0.52859   0.00000  Uiso   1.00
C100   C     0.55316   0.81369   0.59736   0.00000  Uiso   1.00
C101   C     0.63813   0.77160   0.68926   0.00000  Uiso   1.00
C102   C     0.38061   0.85853   0.47558   0.00000  Uiso   1.00
C103   C     0.33101   0.83156   0.41066   0.00000  Uiso   1.00
C104   C     0.30459   0.80749   0.42550   0.00000  Uiso   1.00
C105   C     0.24569   0.76183   0.41793   0.00000  Uiso   1.00
C106   C     0.45764   0.89287   0.61470   0.00000  Uiso   1.00
C107   C     0.44590   0.95000   0.57771   0.00000  Uiso   1.00
C108   C     0.45559   0.00050   0.61376   0.00000  Uiso   1.00
C109   C     0.44204   0.04814   0.57002   0.00000  Uiso   1.00
C110   C     0.49570   0.86366   0.61666   0.00000  Uiso   1.00
C111   C     0.54726   0.84158   0.68546   0.00000  Uiso   1.00
C112   C     0.57563   0.81653   0.67452   0.00000  Uiso   1.00
C113   C     0.40304   0.86136   0.55259   0.00000  Uiso   1.00
C114   C     0.37669   0.83733   0.56754   0.00000  Uiso   1.00
C115   C     0.32706   0.81033   0.50265   0.00000  Uiso   1.00
H116   H     0.39889   0.88545   0.41296   0.00000  Uiso   1.00
H117   H     0.39255   0.99253   0.39730   0.00000  Uiso   1.00
H118   H     0.48420   0.83362   0.46899   0.00000  Uiso   1.00
H119   H     0.31367   0.82938   0.35108   0.00000  Uiso   1.00
H120   H     0.39543   0.11250   0.41391   0.00000  Uiso   1.00
H121   H     0.58868   0.77741   0.56506   0.00000  Uiso   1.00
H122   H     0.22907   0.76846   0.31642   0.00000  Uiso   1.00
H123   H     0.47510   0.89507   0.67467   0.00000  Uiso   1.00
H124   H     0.47294   0.00268   0.67336   0.00000  Uiso   1.00
H125   H     0.56460   0.84377   0.74505   0.00000  Uiso   1.00
H126   H     0.39406   0.83953   0.62714   0.00000  Uiso   1.00
H127   H     0.46068   0.12074   0.63797   0.00000  Uiso   1.00
H128   H     0.65393   0.78565   0.78912   0.00000  Uiso   1.00
H129   H     0.29432   0.77670   0.54049   0.00000  Uiso   1.00
O130   O     0.42528   0.18723   0.52037   0.00000  Uiso   1.00
O131   O     0.67880   0.74761   0.71867   0.00000  Uiso   1.00
O132   O     0.20701   0.73587   0.39247   0.00000  Uiso   1.00
N133   N     0.41108   0.09967   0.46681   0.00000  Uiso   1.00
N134   N     0.59175   0.78639   0.60813   0.00000  Uiso   1.00
N135   N     0.25556   0.77801   0.37569   0.00000  Uiso   1.00
N136   N     0.44619   0.10410   0.58738   0.00000  Uiso   1.00
N137   N     0.62686   0.79082   0.72870   0.00000  Uiso   1.00
N138   N     0.29067   0.78244   0.49625   0.00000  Uiso   1.00
C139   C     0.91635   0.38766   0.47292   0.00000  Uiso   1.00
C140   C     0.92347   0.44717   0.50069   0.00000  Uiso   1.00
C141   C     0.90990   0.49474   0.45689   0.00000  Uiso   1.00
C142   C     0.91957   0.54530   0.49287   0.00000  Uiso   1.00
C143   C     0.92724   0.63728   0.52431   0.00000  Uiso   1.00
C144   C     0.97327   0.36083   0.53965   0.00000  Uiso   1.00
C145   C     0.00157   0.33581   0.52859   0.00000  Uiso   1.00
C146   C     0.05316   0.31369   0.59736   0.00000  Uiso   1.00
C147   C     0.13813   0.27160   0.68926   0.00000  Uiso   1.00
C148   C     0.88061   0.35853   0.47558   0.00000  Uiso   1.00
C149   C     0.83101   0.33156   0.41066   0.00000  Uiso   1.00
C150   C     0.80459   0.30749   0.42550   0.00000  Uiso   1.00
C151   C     0.74569   0.26183   0.41793   0.00000  Uiso   1.00
C152   C     0.95764   0.39287   0.61470   0.00000  Uiso   1.00
C153   C     0.94590   0.45000   0.57771   0.00000  Uiso   1.00
C154   C     0.95559   0.50050   0.61376   0.00000  Uiso   1.00
C155   C     0.94204   0.54814   0.57002   0.00000  Uiso   1.00
C156   C     0.99570   0.36366   0.61666   0.00000  Uiso   1.00
C157   C     0.04726   0.34158   0.68546   0.00000  Uiso   1.00
C158   C     0.07563   0.31653   0.67452   0.00000  Uiso   1.00
C159   C     0.90304   0.36136   0.55259   0.00000  Uiso   1.00
C160   C     0.87669   0.33733   0.56754   0.00000  Uiso   1.00
C161   C     0.82706   0.31033   0.50265   0.00000  Uiso   1.00
H162   H     0.89889   0.38545   0.41296   0.00000  Uiso   1.00
H163   H     0.89255   0.49253   0.39730   0.00000  Uiso   1.00
H164   H     0.98420   0.33362   0.46899   0.00000  Uiso   1.00
H165   H     0.81367   0.32938   0.35108   0.00000  Uiso   1.00
H166   H     0.89543   0.61250   0.41391   0.00000  Uiso   1.00
H167   H     0.08868   0.27741   0.56506   0.00000  Uiso   1.00
H168   H     0.72907   0.26846   0.31642   0.00000  Uiso   1.00
H169   H     0.97510   0.39507   0.67467   0.00000  Uiso   1.00
H170   H     0.97294   0.50268   0.67336   0.00000  Uiso   1.00
H171   H     0.06460   0.34377   0.74505   0.00000  Uiso   1.00
H172   H     0.89406   0.33953   0.62714   0.00000  Uiso   1.00
H173   H     0.96068   0.62074   0.63797   0.00000  Uiso   1.00
H174   H     0.15393   0.28565   0.78912   0.00000  Uiso   1.00
H175   H     0.79432   0.27670   0.54049   0.00000  Uiso   1.00
O176   O     0.92528   0.68723   0.52037   0.00000  Uiso   1.00
O177   O     0.17880   0.24761   0.71867   0.00000  Uiso   1.00
O178   O     0.70701   0.23587   0.39247   0.00000  Uiso   1.00
N179   N     0.91108   0.59967   0.46681   0.00000  Uiso   1.00
N180   N     0.09175   0.28639   0.60813   0.00000  Uiso   1.00
N181   N     0.75556   0.27801   0.37569   0.00000  Uiso   1.00
N182   N     0.94619   0.60410   0.58738   0.00000  Uiso   1.00
N183   N     0.12686   0.29082   0.72870   0.00000  Uiso   1.00
N184   N     0.79067   0.28244   0.49625   0.00000  Uiso   1.00
C185   C     0.41635   0.11234   0.97292   0.00000  Uiso   1.00
C186   C     0.42347   0.05283   0.00069   0.00000  Uiso   1.00
C187   C     0.40990   0.00526   0.95689   0.00000  Uiso   1.00
C188   C     0.41957   0.95470   0.99287   0.00000  Uiso   1.00
C189   C     0.42724   0.86272   0.02431   0.00000  Uiso   1.00
C190   C     0.47327   0.13917   0.03965   0.00000  Uiso   1.00
C191   C     0.50157   0.16419   0.02859   0.00000  Uiso   1.00
C192   C     0.55316   0.18631   0.09736   0.00000  Uiso   1.00
C193   C     0.63813   0.22840   0.18926   0.00000  Uiso   1.00
C194   C     0.38061   0.14147   0.97558   0.00000  Uiso   1.00
C195   C     0.33101   0.16844   0.91066   0.00000  Uiso   1.00
C196   C     0.30459   0.19251   0.92550   0.00000  Uiso   1.00
C197   C     0.24569   0.23817   0.91793   0.00000  Uiso   1.00
C198   C     0.45764   0.10713   0.11470   0.00000  Uiso   1.00
C199   C     0.44590   0.05000   0.07771   0.00000  Uiso   1.00
C200   C     0.45559   0.99950   0.11376   0.00000  Uiso   1.00
C201   C     0.44204   0.95186   0.07002   0.00000  Uiso   1.00
C202   C     0.49570   0.13634   0.11666   0.00000  Uiso   1.00
C203   C     0.54726   0.15842   0.18546   0.00000  Uiso   1.00
C204   C     0.57563   0.18347   0.17452   0.00000  Uiso   1.00
C205   C     0.40304   0.13864   0.05259   0.00000  Uiso   1.00
C206   C     0.37669   0.16267   0.06754   0.00000  Uiso   1.00
C207   C     0.32706   0.18967   0.00265   0.00000  Uiso   1.00
H208   H     0.39889   0.11455   0.91296   0.00000  Uiso   1.00
H209   H     0.39255   0.00747   0.89730   0.00000  Uiso   1.00
H210   H     0.48420   0.16638   0.96899   0.00000  Uiso   1.00
H211   H     0.31367   0.17062   0.85108   0.00000  Uiso   1.00
H212   H     0.39543   0.88750   0.91391   0.00000  Uiso   1.00
H213   H     0.58868   0.22259   0.06506   0.00000  Uiso   1.00
H214   H     0.22907   0.23154   0.81642   0.00000  Uiso   1.00
H215   H     0.47510   0.10493   0.17467   0.00000  Uiso   1.00
H216   H     0.47294   0.99732   0.17336   0.00000  Uiso   1.00
H217   H     0.56460   0.15623   0.24505   0.00000  Uiso   1.00
H218   H     0.39406   0.16047   0.12714   0.00000  Uiso   1.00
H219   H     0.46068   0.87926   0.13797   0.00000  Uiso   1.00
H220   H     0.65393   0.21435   0.28912   0.00000  Uiso   1.00
H221   H     0.29432   0.22330   0.04049   0.00000  Uiso   1.00
O222   O     0.42528   0.81277   0.02037   0.00000  Uiso   1.00
O223   O     0.67880   0.25239   0.21867   0.00000  Uiso   1.00
O224   O     0.20701   0.26413   0.89247   0.00000  Uiso   1.00
N225   N     0.41108   0.90033   0.96681   0.00000  Uiso   1.00
N226   N     0.59175   0.21361   0.10813   0.00000  Uiso   1.00
N227   N     0.25556   0.22199   0.87569   0.00000  Uiso   1.00
N228   N     0.44619   0.89590   0.08738   0.00000  Uiso   1.00
N229   N     0.62686   0.20918   0.22870   0.00000  Uiso   1.00
N230   N     0.29067   0.21756   0.99625   0.00000  Uiso   1.00
C231   C     0.91635   0.61234   0.97292   0.00000  Uiso   1.00
C232   C     0.92347   0.55283   0.00069   0.00000  Uiso   1.00
C233   C     0.90990   0.50526   0.95689   0.00000  Uiso   1.00
C234   C     0.91957   0.45470   0.99287   0.00000  Uiso   1.00
C235   C     0.92724   0.36272   0.02431   0.00000  Uiso   1.00
C236   C     0.97327   0.63917   0.03965   0.00000  Uiso   1.00
C237   C     0.00157   0.66419   0.02859   0.00000  Uiso   1.00
C238   C     0.05316   0.68631   0.09736   0.00000  Uiso   1.00
C239   C     0.13813   0.72840   0.18926   0.00000  Uiso   1.00
C240   C     0.88061   0.64147   0.97558   0.00000  Uiso   1.00
C241   C     0.83101   0.66844   0.91066   0.00000  Uiso   1.00
C242   C     0.80459   0.69251   0.92550   0.00000  Uiso   1.00
C243   C     0.74569   0.73817   0.91793   0.00000  Uiso   1.00
C244   C     0.95764   0.60713   0.11470   0.00000  Uiso   1.00
C245   C     0.94590   0.55000   0.07771   0.00000  Uiso   1.00
C246   C     0.95559   0.49950   0.11376   0.00000  Uiso   1.00
C247   C     0.94204   0.45186   0.07002   0.00000  Uiso   1.00
C248   C     0.99570   0.63634   0.11666   0.00000  Uiso   1.00
C249   C     0.04726   0.65842   0.18546   0.00000  Uiso   1.00
C250   C     0.07563   0.68347   0.17452   0.00000  Uiso   1.00
C251   C     0.90304   0.63864   0.05259   0.00000  Uiso   1.00
C252   C     0.87669   0.66267   0.06754   0.00000  Uiso   1.00
C253   C     0.82706   0.68967   0.00265   0.00000  Uiso   1.00
H254   H     0.89889   0.61455   0.91296   0.00000  Uiso   1.00
H255   H     0.89255   0.50747   0.89730   0.00000  Uiso   1.00
H256   H     0.98420   0.66638   0.96899   0.00000  Uiso   1.00
H257   H     0.81367   0.67062   0.85108   0.00000  Uiso   1.00
H258   H     0.89543   0.38750   0.91391   0.00000  Uiso   1.00
H259   H     0.08868   0.72259   0.06506   0.00000  Uiso   1.00
H260   H     0.72907   0.73154   0.81642   0.00000  Uiso   1.00
H261   H     0.97510   0.60493   0.17467   0.00000  Uiso   1.00
H262   H     0.97294   0.49732   0.17336   0.00000  Uiso   1.00
H263   H     0.06460   0.65623   0.24505   0.00000  Uiso   1.00
H264   H     0.89406   0.66047   0.12714   0.00000  Uiso   1.00
H265   H     0.96068   0.37926   0.13797   0.00000  Uiso   1.00
H266   H     0.15393   0.71435   0.28912   0.00000  Uiso   1.00
H267   H     0.79432   0.72330   0.04049   0.00000  Uiso   1.00
O268   O     0.92528   0.31277   0.02037   0.00000  Uiso   1.00
O269   O     0.17880   0.75239   0.21867   0.00000  Uiso   1.00
O270   O     0.70701   0.76413   0.89247   0.00000  Uiso   1.00
N271   N     0.91108   0.40033   0.96681   0.00000  Uiso   1.00
N272   N     0.09175   0.71361   0.10813   0.00000  Uiso   1.00
N273   N     0.75556   0.72199   0.87569   0.00000  Uiso   1.00
N274   N     0.94619   0.39590   0.08738   0.00000  Uiso   1.00
N275   N     0.12686   0.70918   0.22870   0.00000  Uiso   1.00
N276   N     0.79067   0.71756   0.99625   0.00000  Uiso   1.00
C277   C     0.58365   0.11234   0.52708   0.00000  Uiso   1.00
C278   C     0.57653   0.05283   0.49931   0.00000  Uiso   1.00
C279   C     0.59010   0.00526   0.54311   0.00000  Uiso   1.00
C280   C     0.58043   0.95470   0.50713   0.00000  Uiso   1.00
C281   C     0.57276   0.86272   0.47569   0.00000  Uiso   1.00
C282   C     0.52673   0.13917   0.46035   0.00000  Uiso   1.00
C283   C     0.49843   0.16419   0.47141   0.00000  Uiso   1.00
C284   C     0.44684   0.18631   0.40264   0.00000  Uiso   1.00
C285   C     0.36187   0.22840   0.31074   0.00000  Uiso   1.00
C286   C     0.61939   0.14147   0.52442   0.00000  Uiso   1.00
C287   C     0.66899   0.16844   0.58934   0.00000  Uiso   1.00
C288   C     0.69541   0.19251   0.57450   0.00000  Uiso   1.00
C289   C     0.75431   0.23817   0.58207   0.00000  Uiso   1.00
C290   C     0.54236   0.10713   0.38530   0.00000  Uiso   1.00
C291   C     0.55410   0.05000   0.42229   0.00000  Uiso   1.00
C292   C     0.54441   0.99950   0.38624   0.00000  Uiso   1.00
C293   C     0.55796   0.95186   0.42998   0.00000  Uiso   1.00
C294   C     0.50430   0.13634   0.38334   0.00000  Uiso   1.00
C295   C     0.45274   0.15842   0.31454   0.00000  Uiso   1.00
C296   C     0.42437   0.18347   0.32548   0.00000  Uiso   1.00
C297   C     0.59696   0.13864   0.44741   0.00000  Uiso   1.00
C298   C     0.62331   0.16267   0.43246   0.00000  Uiso   1.00
C299   C     0.67294   0.18967   0.49735   0.00000  Uiso   1.00
H300   H     0.60111   0.11455   0.58704   0.00000  Uiso   1.00
H301   H     0.60745   0.00747   0.60270   0.00000  Uiso   1.00
H302   H     0.51580   0.16638   0.53101   0.00000  Uiso   1.00
H303   H     0.68633   0.17062   0.64892   0.00000  Uiso   1.00
H304   H     0.60457   0.88750   0.58609   0.00000  Uiso   1.00
H305   H     0.41132   0.22259   0.43494   0.00000  Uiso   1.00
H306   H     0.77093   0.23154   0.68358   0.00000  Uiso   1.00
H307   H     0.52490   0.10493   0.32533   0.00000  Uiso   1.00
H308   H     0.52706   0.99732   0.32664   0.00000  Uiso   1.00
H309   H     0.43540   0.15623   0.25495   0.00000  Uiso   1.00
H310   H     0.60594   0.16047   0.37286   0.00000  Uiso   1.00
H311   H     0.53932   0.87926   0.36203   0.00000  Uiso   1.00
H312   H     0.34607   0.21435   0.21088   0.00000  Uiso   1.00
H313   H     0.70568   0.22330   0.45951   0.00000  Uiso   1.00
O314   O     0.57472   0.81277   0.47963   0.00000  Uiso   1.00
O315   O     0.32120   0.25239   0.28133   0.00000  Uiso   1.00
O316   O     0.79299   0.26413   0.60753   0.00000  Uiso   1.00
N317   N     0.58892   0.90033   0.53319   0.00000  Uiso   1.00
N318   N     0.40825   0.21361   0.39187   0.00000  Uiso   1.00
N319   N     0.74444   0.22199   0.62431   0.00000  Uiso   1.00
N320   N     0.55381   0.89590   0.41262   0.00000  Uiso   1.00
N321   N     0.37314   0.20918   0.27130   0.00000  Uiso   1.00
N322   N     0.70933   0.21756   0.50375   0.00000  Uiso   1.00
C323   C     0.08365   0.61234   0.52708   0.00000  Uiso   1.00
C324   C     0.07653   0.55283   0.49931   0.00000  Uiso   1.00
C325   C     0.09010   0.50526   0.54311   0.00000  Uiso   1.00
C326   C     0.08043   0.45470   0.50713   0.00000  Uiso   1.00
C327   C     0.07276   0.36272   0.47569   0.00000  Uiso   1.00
C328   C     0.02673   0.63917   0.46035   0.00000  Uiso   1.00
C329   C     0.99843   0.66419   0.47141   0.00000  Uiso   1.00
C330   C     0.94684   0.68631   0.40264   0.00000  Uiso   1.00
C331   C     0.86187   0.72840   0.31074   0.00000  Uiso   1.00
C332   C     0.11939   0.64147   0.52442   0.00000  Uiso   1.00
C333   C     0.16899   0.66844   0.58934   0.00000  Uiso   1.00
C334   C     0.19541   0.69251   0.57450   0.00000  Uiso   1.00
C335   C     0.25431   0.73817   0.58207   0.00000  Uiso   1.00
C336   C     0.04236   0.60713   0.38530   0.00000  Uiso   1.00
C337   C     0.05410   0.55000   0.42229   0.00000  Uiso   1.00
C338   C     0.04441   0.49950   0.38624   0.00000  Uiso   1.00
C339   C     0.05796   0.45186   0.42998   0.00000  Uiso   1.00
C340   C     0.00430   0.63634   0.38334   0.00000  Uiso   1.00
C341   C     0.95274   0.65842   0.31454   0.00000  Uiso   1.00
C342   C     0.92437   0.68347   0.32548   0.00000  Uiso   1.00
C343   C     0.09696   0.63864   0.44741   0.00000  Uiso   1.00
C344   C     0.12331   0.66267   0.43246   0.00000  Uiso   1.00
C345   C     0.17294   0.68967   0.49735   0.00000  Uiso   1.00
H346   H     0.10111   0.61455   0.58704   0.00000  Uiso   1.00
H347   H     0.10745   0.50747   0.60270   0.00000  Uiso   1.00
H348   H     0.01580   0.66638   0.53101   0.00000  Uiso   1.00
H349   H     0.18633   0.67062   0.64892   0.00000  Uiso   1.00
H350   H     0.10457   0.38750   0.58609   0.00000  Uiso   1.00
H351   H     0.91132   0.72259   0.43494   0.00000  Uiso   1.00
H352   H     0.27093   0.73154   0.68358   0.00000  Uiso   1.00
H353   H     0.02490   0.60493   0.32533   0.00000  Uiso   1.00
H354   H     0.02706   0.49732   0.32664   0.00000  Uiso   1.00
H355   H     0.93540   0.65623   0.25495   0.00000  Uiso   1.00
H356   H     0.10594   0.66047   0.37286   0.00000  Uiso   1.00
H357   H     0.03932   0.37926   0.36203   0.00000  Uiso   1.00
H358   H     0.84607   0.71435   0.21088   0.00000  Uiso   1.00
H359   H     0.20568   0.72330   0.45951   0.00000  Uiso   1.00
O360   O     0.07472   0.31277   0.47963   0.00000  Uiso   1.00
O361   O     0.82120   0.75239   0.28133   0.00000  Uiso   1.00
O362   O     0.29299   0.76413   0.60753   0.00000  Uiso   1.00
N363   N     0.08892   0.40033   0.53319   0.00000  Uiso   1.00
N364   N     0.90825   0.71361   0.39187   0.00000  Uiso   1.00
N365   N     0.24444   0.72199   0.62431   0.00000  Uiso   1.00
N366   N     0.05381   0.39590   0.41262   0.00000  Uiso   1.00
N367   N     0.87314   0.70918   0.27130   0.00000  Uiso   1.00
N368   N     0.20933   0.71756   0.50375   0.00000  Uiso   1.00
