data_job_04732
_audit_creation_date              2018-12-19
_audit_creation_method            'Materials Studio'
_symmetry_space_group_name_H-M    'P1'
_symmetry_Int_Tables_number       1
_symmetry_cell_setting            triclinic
loop_
_symmetry_equiv_pos_as_xyz
  x,y,z
_cell_length_a                    10.4010
_cell_length_b                    14.8630
_cell_length_c                    15.7662
_cell_angle_alpha                 90.0000
_cell_angle_beta                  90.0000
_cell_angle_gamma                 90.0000
loop_
_atom_site_label
_atom_site_type_symbol
_atom_site_fract_x
_atom_site_fract_y
_atom_site_fract_z
_atom_site_U_iso_or_equiv
_atom_site_adp_type
_atom_site_occupancy
C1     C     0.45767   0.19181   0.00510   0.00000  Uiso   1.00
C2     C     0.35580   0.25695   0.03777   0.00000  Uiso   1.00
C3     C     0.22403   0.24816   0.02672   0.00000  Uiso   1.00
C4     C     0.14691   0.31493   0.06143   0.00000  Uiso   1.00
C5     C     0.98069   0.40501   0.10540   0.00000  Uiso   1.00
C6     C     0.54886   0.24771   0.95070   0.00000  Uiso   1.00
C7     C     0.57942   0.23113   0.86645   0.00000  Uiso   1.00
C8     C     0.66484   0.29011   0.82788   0.00000  Uiso   1.00
C9     C     0.79843   0.36580   0.73670   0.00000  Uiso   1.00
C10    C     0.53508   0.16274   0.08253   0.00000  Uiso   1.00
C11    C     0.55409   0.07473   0.10912   0.00000  Uiso   1.00
C12    C     0.62793   0.06217   0.18152   0.00000  Uiso   1.00
C13    C     0.74012   0.00595   0.29502   0.00000  Uiso   1.00
C14    C     0.55504   0.32602   0.08640   0.00000  Uiso   1.00
C15    C     0.40869   0.32985   0.08192   0.00000  Uiso   1.00
C16    C     0.33176   0.39665   0.11666   0.00000  Uiso   1.00
C17    C     0.19989   0.38796   0.10567   0.00000  Uiso   1.00
C18    C     0.60175   0.32060   0.99486   0.00000  Uiso   1.00
C19    C     0.68715   0.37962   0.95640   0.00000  Uiso   1.00
C20    C     0.71783   0.36314   0.87211   0.00000  Uiso   1.00
C21    C     0.58797   0.23564   0.12669   0.00000  Uiso   1.00
C22    C     0.66181   0.22322   0.19906   0.00000  Uiso   1.00
C23    C     0.68092   0.13520   0.22576   0.00000  Uiso   1.00
H24    H     0.41650   0.13505   0.97072   0.00000  Uiso   1.00
H25    H     0.18313   0.19174   0.99253   0.00000  Uiso   1.00
H26    H     0.53849   0.17471   0.83230   0.00000  Uiso   1.00
H27    H     0.51314   0.01833   0.07493   0.00000  Uiso   1.00
H28    H     0.94773   0.28675   0.03617   0.00000  Uiso   1.00
H29    H     0.69705   0.25082   0.69832   0.00000  Uiso   1.00
H30    H     0.64361   0.92107   0.20994   0.00000  Uiso   1.00
H31    H     0.59622   0.38277   0.12077   0.00000  Uiso   1.00
H32    H     0.37271   0.45305   0.15083   0.00000  Uiso   1.00
H33    H     0.72807   0.43602   0.99059   0.00000  Uiso   1.00
H34    H     0.70272   0.27965   0.23322   0.00000  Uiso   1.00
H35    H     0.10160   0.49884   0.16464   0.00000  Uiso   1.00
H36    H     0.85092   0.46291   0.82679   0.00000  Uiso   1.00
H37    H     0.79748   0.13317   0.33841   0.00000  Uiso   1.00
O38    O     0.87440   0.43457   0.11744   0.00000  Uiso   1.00
O39    O     0.85749   0.38742   0.67420   0.00000  Uiso   1.00
O40    O     0.78737   0.95480   0.34544   0.00000  Uiso   1.00
N41    N     0.01462   0.32701   0.06229   0.00000  Uiso   1.00
N42    N     0.71517   0.29342   0.74642   0.00000  Uiso   1.00
N43    N     0.66524   0.98514   0.22473   0.00000  Uiso   1.00
N44    N     0.09741   0.44114   0.13143   0.00000  Uiso   1.00
N45    N     0.79796   0.40755   0.81555   0.00000  Uiso   1.00
N46    N     0.74803   0.09926   0.29386   0.00000  Uiso   1.00
C47    C     0.54233   0.80819   0.50510   0.00000  Uiso   1.00
C48    C     0.64420   0.74305   0.53777   0.00000  Uiso   1.00
C49    C     0.77597   0.75184   0.52672   0.00000  Uiso   1.00
C50    C     0.85309   0.68507   0.56143   0.00000  Uiso   1.00
C51    C     0.01931   0.59499   0.60540   0.00000  Uiso   1.00
C52    C     0.45114   0.75229   0.45070   0.00000  Uiso   1.00
C53    C     0.42058   0.76887   0.36645   0.00000  Uiso   1.00
C54    C     0.33516   0.70989   0.32788   0.00000  Uiso   1.00
C55    C     0.20157   0.63420   0.23670   0.00000  Uiso   1.00
C56    C     0.46492   0.83726   0.58253   0.00000  Uiso   1.00
C57    C     0.44591   0.92527   0.60912   0.00000  Uiso   1.00
C58    C     0.37207   0.93783   0.68152   0.00000  Uiso   1.00
C59    C     0.25988   0.99405   0.79502   0.00000  Uiso   1.00
C60    C     0.44496   0.67398   0.58640   0.00000  Uiso   1.00
C61    C     0.59131   0.67015   0.58192   0.00000  Uiso   1.00
C62    C     0.66824   0.60335   0.61666   0.00000  Uiso   1.00
C63    C     0.80011   0.61204   0.60567   0.00000  Uiso   1.00
C64    C     0.39825   0.67940   0.49486   0.00000  Uiso   1.00
C65    C     0.31285   0.62038   0.45640   0.00000  Uiso   1.00
C66    C     0.28217   0.63686   0.37211   0.00000  Uiso   1.00
C67    C     0.41203   0.76436   0.62669   0.00000  Uiso   1.00
C68    C     0.33819   0.77678   0.69906   0.00000  Uiso   1.00
C69    C     0.31908   0.86480   0.72576   0.00000  Uiso   1.00
H70    H     0.58350   0.86495   0.47072   0.00000  Uiso   1.00
H71    H     0.81687   0.80826   0.49253   0.00000  Uiso   1.00
H72    H     0.46151   0.82529   0.33230   0.00000  Uiso   1.00
H73    H     0.48686   0.98167   0.57493   0.00000  Uiso   1.00
H74    H     0.05227   0.71325   0.53617   0.00000  Uiso   1.00
H75    H     0.30295   0.74918   0.19832   0.00000  Uiso   1.00
H76    H     0.35639   0.07893   0.70994   0.00000  Uiso   1.00
H77    H     0.40378   0.61723   0.62077   0.00000  Uiso   1.00
H78    H     0.62729   0.54695   0.65083   0.00000  Uiso   1.00
H79    H     0.27193   0.56398   0.49059   0.00000  Uiso   1.00
H80    H     0.29728   0.72035   0.73322   0.00000  Uiso   1.00
H81    H     0.89840   0.50116   0.66464   0.00000  Uiso   1.00
H82    H     0.14908   0.53709   0.32679   0.00000  Uiso   1.00
H83    H     0.20252   0.86683   0.83841   0.00000  Uiso   1.00
O84    O     0.12560   0.56543   0.61744   0.00000  Uiso   1.00
O85    O     0.14251   0.61258   0.17420   0.00000  Uiso   1.00
O86    O     0.21263   0.04520   0.84544   0.00000  Uiso   1.00
N87    N     0.98538   0.67299   0.56229   0.00000  Uiso   1.00
N88    N     0.28483   0.70658   0.24642   0.00000  Uiso   1.00
N89    N     0.33476   0.01486   0.72473   0.00000  Uiso   1.00
N90    N     0.90259   0.55886   0.63143   0.00000  Uiso   1.00
N91    N     0.20204   0.59245   0.31555   0.00000  Uiso   1.00
N92    N     0.25197   0.90074   0.79386   0.00000  Uiso   1.00
C93    C     0.54233   0.19181   0.49490   0.00000  Uiso   1.00
C94    C     0.64420   0.25695   0.46223   0.00000  Uiso   1.00
C95    C     0.77597   0.24816   0.47328   0.00000  Uiso   1.00
C96    C     0.85309   0.31493   0.43857   0.00000  Uiso   1.00
C97    C     0.01931   0.40501   0.39460   0.00000  Uiso   1.00
C98    C     0.45114   0.24771   0.54930   0.00000  Uiso   1.00
C99    C     0.42058   0.23113   0.63355   0.00000  Uiso   1.00
C100   C     0.33516   0.29011   0.67212   0.00000  Uiso   1.00
C101   C     0.20157   0.36580   0.76330   0.00000  Uiso   1.00
C102   C     0.46492   0.16274   0.41747   0.00000  Uiso   1.00
C103   C     0.44591   0.07473   0.39088   0.00000  Uiso   1.00
C104   C     0.37207   0.06217   0.31848   0.00000  Uiso   1.00
C105   C     0.25988   0.00595   0.20498   0.00000  Uiso   1.00
C106   C     0.44496   0.32602   0.41360   0.00000  Uiso   1.00
C107   C     0.59131   0.32985   0.41808   0.00000  Uiso   1.00
C108   C     0.66824   0.39665   0.38334   0.00000  Uiso   1.00
C109   C     0.80011   0.38796   0.39433   0.00000  Uiso   1.00
C110   C     0.39825   0.32060   0.50514   0.00000  Uiso   1.00
C111   C     0.31285   0.37962   0.54360   0.00000  Uiso   1.00
C112   C     0.28217   0.36314   0.62789   0.00000  Uiso   1.00
C113   C     0.41203   0.23564   0.37331   0.00000  Uiso   1.00
C114   C     0.33819   0.22322   0.30094   0.00000  Uiso   1.00
C115   C     0.31908   0.13520   0.27424   0.00000  Uiso   1.00
H116   H     0.58350   0.13505   0.52928   0.00000  Uiso   1.00
H117   H     0.81687   0.19174   0.50747   0.00000  Uiso   1.00
H118   H     0.46151   0.17471   0.66770   0.00000  Uiso   1.00
H119   H     0.48686   0.01833   0.42507   0.00000  Uiso   1.00
H120   H     0.05227   0.28675   0.46383   0.00000  Uiso   1.00
H121   H     0.30295   0.25082   0.80168   0.00000  Uiso   1.00
H122   H     0.35639   0.92107   0.29006   0.00000  Uiso   1.00
H123   H     0.40378   0.38277   0.37923   0.00000  Uiso   1.00
H124   H     0.62729   0.45305   0.34917   0.00000  Uiso   1.00
H125   H     0.27193   0.43602   0.50941   0.00000  Uiso   1.00
H126   H     0.29728   0.27965   0.26678   0.00000  Uiso   1.00
H127   H     0.89840   0.49884   0.33536   0.00000  Uiso   1.00
H128   H     0.14908   0.46291   0.67321   0.00000  Uiso   1.00
H129   H     0.20252   0.13317   0.16159   0.00000  Uiso   1.00
O130   O     0.12560   0.43457   0.38256   0.00000  Uiso   1.00
O131   O     0.14251   0.38742   0.82580   0.00000  Uiso   1.00
O132   O     0.21263   0.95480   0.15456   0.00000  Uiso   1.00
N133   N     0.98538   0.32701   0.43771   0.00000  Uiso   1.00
N134   N     0.28483   0.29342   0.75358   0.00000  Uiso   1.00
N135   N     0.33476   0.98514   0.27527   0.00000  Uiso   1.00
N136   N     0.90259   0.44114   0.36857   0.00000  Uiso   1.00
N137   N     0.20204   0.40755   0.68445   0.00000  Uiso   1.00
N138   N     0.25197   0.09926   0.20614   0.00000  Uiso   1.00
C139   C     0.45767   0.80819   0.99490   0.00000  Uiso   1.00
C140   C     0.35580   0.74305   0.96223   0.00000  Uiso   1.00
C141   C     0.22403   0.75184   0.97328   0.00000  Uiso   1.00
C142   C     0.14691   0.68507   0.93857   0.00000  Uiso   1.00
C143   C     0.98069   0.59499   0.89460   0.00000  Uiso   1.00
C144   C     0.54886   0.75229   0.04930   0.00000  Uiso   1.00
C145   C     0.57942   0.76887   0.13355   0.00000  Uiso   1.00
C146   C     0.66484   0.70989   0.17212   0.00000  Uiso   1.00
C147   C     0.79843   0.63420   0.26330   0.00000  Uiso   1.00
C148   C     0.53508   0.83726   0.91747   0.00000  Uiso   1.00
C149   C     0.55409   0.92527   0.89088   0.00000  Uiso   1.00
C150   C     0.62793   0.93783   0.81848   0.00000  Uiso   1.00
C151   C     0.74012   0.99405   0.70498   0.00000  Uiso   1.00
C152   C     0.55504   0.67398   0.91360   0.00000  Uiso   1.00
C153   C     0.40869   0.67015   0.91808   0.00000  Uiso   1.00
C154   C     0.33176   0.60335   0.88334   0.00000  Uiso   1.00
C155   C     0.19989   0.61204   0.89433   0.00000  Uiso   1.00
C156   C     0.60175   0.67940   0.00514   0.00000  Uiso   1.00
C157   C     0.68715   0.62038   0.04360   0.00000  Uiso   1.00
C158   C     0.71783   0.63686   0.12789   0.00000  Uiso   1.00
C159   C     0.58797   0.76436   0.87331   0.00000  Uiso   1.00
C160   C     0.66181   0.77678   0.80094   0.00000  Uiso   1.00
C161   C     0.68092   0.86480   0.77424   0.00000  Uiso   1.00
H162   H     0.41650   0.86495   0.02928   0.00000  Uiso   1.00
H163   H     0.18313   0.80826   0.00747   0.00000  Uiso   1.00
H164   H     0.53849   0.82529   0.16770   0.00000  Uiso   1.00
H165   H     0.51314   0.98167   0.92507   0.00000  Uiso   1.00
H166   H     0.94773   0.71325   0.96383   0.00000  Uiso   1.00
H167   H     0.69705   0.74918   0.30168   0.00000  Uiso   1.00
H168   H     0.64361   0.07893   0.79006   0.00000  Uiso   1.00
H169   H     0.59622   0.61723   0.87923   0.00000  Uiso   1.00
H170   H     0.37271   0.54695   0.84917   0.00000  Uiso   1.00
H171   H     0.72807   0.56398   0.00941   0.00000  Uiso   1.00
H172   H     0.70272   0.72035   0.76678   0.00000  Uiso   1.00
H173   H     0.10160   0.50116   0.83536   0.00000  Uiso   1.00
H174   H     0.85092   0.53709   0.17321   0.00000  Uiso   1.00
H175   H     0.79748   0.86683   0.66159   0.00000  Uiso   1.00
O176   O     0.87440   0.56543   0.88256   0.00000  Uiso   1.00
O177   O     0.85749   0.61258   0.32580   0.00000  Uiso   1.00
O178   O     0.78737   0.04520   0.65456   0.00000  Uiso   1.00
N179   N     0.01462   0.67299   0.93771   0.00000  Uiso   1.00
N180   N     0.71517   0.70658   0.25358   0.00000  Uiso   1.00
N181   N     0.66524   0.01486   0.77527   0.00000  Uiso   1.00
N182   N     0.09741   0.55886   0.86857   0.00000  Uiso   1.00
N183   N     0.79796   0.59245   0.18445   0.00000  Uiso   1.00
N184   N     0.74803   0.90074   0.70614   0.00000  Uiso   1.00
