data_job_01782
_audit_creation_date              2018-12-19
_audit_creation_method            'Materials Studio'
_symmetry_space_group_name_H-M    'P1'
_symmetry_Int_Tables_number       1
_symmetry_cell_setting            triclinic
loop_
_symmetry_equiv_pos_as_xyz
  x,y,z
_cell_length_a                    30.3880
_cell_length_b                    7.6731
_cell_length_c                    41.3495
_cell_angle_alpha                 90.0000
_cell_angle_beta                  146.2675
_cell_angle_gamma                 90.0000
loop_
_atom_site_label
_atom_site_type_symbol
_atom_site_fract_x
_atom_site_fract_y
_atom_site_fract_z
_atom_site_U_iso_or_equiv
_atom_site_adp_type
_atom_site_occupancy
C1     C     0.43921   0.73076   0.30797   0.00000  Uiso   1.00
C2     C     0.38685   0.88868   0.26927   0.00000  Uiso   1.00
C3     C     0.30716   0.88368   0.21233   0.00000  Uiso   1.00
C4     C     0.26978   0.04245   0.18433   0.00000  Uiso   1.00
C5     C     0.18227   0.26362   0.11997   0.00000  Uiso   1.00
C6     C     0.50895   0.74480   0.32729   0.00000  Uiso   1.00
C7     C     0.53192   0.61883   0.31914   0.00000  Uiso   1.00
C8     C     0.59733   0.65648   0.33999   0.00000  Uiso   1.00
C9     C     0.69942   0.65422   0.36575   0.00000  Uiso   1.00
C10    C     0.47344   0.75812   0.36264   0.00000  Uiso   1.00
C11    C     0.46657   0.64333   0.38422   0.00000  Uiso   1.00
C12    C     0.50209   0.69218   0.43484   0.00000  Uiso   1.00
C13    C     0.54904   0.71060   0.51548   0.00000  Uiso   1.00
C14    C     0.51454   0.02161   0.35948   0.00000  Uiso   1.00
C15    C     0.42777   0.04665   0.29725   0.00000  Uiso   1.00
C16    C     0.39050   0.20547   0.26932   0.00000  Uiso   1.00
C17    C     0.31076   0.20072   0.21235   0.00000  Uiso   1.00
C18    C     0.54987   0.90277   0.35527   0.00000  Uiso   1.00
C19    C     0.61526   0.94062   0.37613   0.00000  Uiso   1.00
C20    C     0.63832   0.81474   0.36801   0.00000  Uiso   1.00
C21    C     0.51435   0.91610   0.39062   0.00000  Uiso   1.00
C22    C     0.54991   0.96513   0.44121   0.00000  Uiso   1.00
C23    C     0.54308   0.85044   0.46286   0.00000  Uiso   1.00
H24    H     0.40736   0.60777   0.28619   0.00000  Uiso   1.00
H25    H     0.27552   0.76139   0.19070   0.00000  Uiso   1.00
H26    H     0.50025   0.49658   0.29750   0.00000  Uiso   1.00
H27    H     0.43490   0.52109   0.36256   0.00000  Uiso   1.00
H28    H     0.14740   0.00139   0.09716   0.00000  Uiso   1.00
H29    H     0.62128   0.44298   0.32237   0.00000  Uiso   1.00
H30    H     0.48348   0.49465   0.45957   0.00000  Uiso   1.00
H31    H     0.54640   0.14461   0.38126   0.00000  Uiso   1.00
H32    H     0.42218   0.32771   0.29099   0.00000  Uiso   1.00
H33    H     0.64691   0.06288   0.39778   0.00000  Uiso   1.00
H34    H     0.58156   0.08739   0.46285   0.00000  Uiso   1.00
H35    H     0.26644   0.46103   0.17855   0.00000  Uiso   1.00
H36    H     0.74032   0.90261   0.40377   0.00000  Uiso   1.00
H37    H     0.60251   0.95429   0.54097   0.00000  Uiso   1.00
O38    O     0.12271   0.34196   0.07675   0.00000  Uiso   1.00
O39    O     0.74442   0.60934   0.37222   0.00000  Uiso   1.00
O40    O     0.56363   0.67714   0.55223   0.00000  Uiso   1.00
N41    N     0.19246   0.08444   0.12871   0.00000  Uiso   1.00
N42    N     0.63550   0.56237   0.33926   0.00000  Uiso   1.00
N43    N     0.50668   0.61066   0.46754   0.00000  Uiso   1.00
N44    N     0.25651   0.33177   0.17251   0.00000  Uiso   1.00
N45    N     0.69955   0.80970   0.38306   0.00000  Uiso   1.00
N46    N     0.57074   0.85799   0.51134   0.00000  Uiso   1.00
C47    C     0.93921   0.23076   0.30797   0.00000  Uiso   1.00
C48    C     0.88685   0.38868   0.26927   0.00000  Uiso   1.00
C49    C     0.80716   0.38368   0.21233   0.00000  Uiso   1.00
C50    C     0.76978   0.54245   0.18433   0.00000  Uiso   1.00
C51    C     0.68227   0.76362   0.11997   0.00000  Uiso   1.00
C52    C     0.00895   0.24480   0.32729   0.00000  Uiso   1.00
C53    C     0.03192   0.11883   0.31914   0.00000  Uiso   1.00
C54    C     0.09733   0.15648   0.33999   0.00000  Uiso   1.00
C55    C     0.19942   0.15422   0.36575   0.00000  Uiso   1.00
C56    C     0.97344   0.25812   0.36264   0.00000  Uiso   1.00
C57    C     0.96657   0.14333   0.38422   0.00000  Uiso   1.00
C58    C     0.00209   0.19218   0.43484   0.00000  Uiso   1.00
C59    C     0.04904   0.21060   0.51548   0.00000  Uiso   1.00
C60    C     0.01454   0.52161   0.35948   0.00000  Uiso   1.00
C61    C     0.92777   0.54665   0.29725   0.00000  Uiso   1.00
C62    C     0.89050   0.70547   0.26932   0.00000  Uiso   1.00
C63    C     0.81076   0.70072   0.21235   0.00000  Uiso   1.00
C64    C     0.04987   0.40277   0.35527   0.00000  Uiso   1.00
C65    C     0.11526   0.44062   0.37613   0.00000  Uiso   1.00
C66    C     0.13832   0.31474   0.36801   0.00000  Uiso   1.00
C67    C     0.01435   0.41610   0.39062   0.00000  Uiso   1.00
C68    C     0.04991   0.46513   0.44121   0.00000  Uiso   1.00
C69    C     0.04308   0.35044   0.46286   0.00000  Uiso   1.00
H70    H     0.90736   0.10777   0.28619   0.00000  Uiso   1.00
H71    H     0.77552   0.26139   0.19070   0.00000  Uiso   1.00
H72    H     0.00025   0.99658   0.29750   0.00000  Uiso   1.00
H73    H     0.93490   0.02109   0.36256   0.00000  Uiso   1.00
H74    H     0.64740   0.50139   0.09716   0.00000  Uiso   1.00
H75    H     0.12128   0.94298   0.32237   0.00000  Uiso   1.00
H76    H     0.98348   0.99465   0.45957   0.00000  Uiso   1.00
H77    H     0.04640   0.64461   0.38126   0.00000  Uiso   1.00
H78    H     0.92218   0.82771   0.29099   0.00000  Uiso   1.00
H79    H     0.14691   0.56288   0.39778   0.00000  Uiso   1.00
H80    H     0.08156   0.58739   0.46285   0.00000  Uiso   1.00
H81    H     0.76644   0.96103   0.17855   0.00000  Uiso   1.00
H82    H     0.24032   0.40261   0.40377   0.00000  Uiso   1.00
H83    H     0.10251   0.45429   0.54097   0.00000  Uiso   1.00
O84    O     0.62271   0.84196   0.07675   0.00000  Uiso   1.00
O85    O     0.24442   0.10934   0.37222   0.00000  Uiso   1.00
O86    O     0.06363   0.17714   0.55223   0.00000  Uiso   1.00
N87    N     0.69246   0.58444   0.12871   0.00000  Uiso   1.00
N88    N     0.13550   0.06237   0.33926   0.00000  Uiso   1.00
N89    N     0.00668   0.11066   0.46754   0.00000  Uiso   1.00
N90    N     0.75651   0.83177   0.17251   0.00000  Uiso   1.00
N91    N     0.19955   0.30970   0.38306   0.00000  Uiso   1.00
N92    N     0.07074   0.35799   0.51134   0.00000  Uiso   1.00
C93    C     0.56079   0.73076   0.19203   0.00000  Uiso   1.00
C94    C     0.61315   0.88868   0.23073   0.00000  Uiso   1.00
C95    C     0.69284   0.88368   0.28767   0.00000  Uiso   1.00
C96    C     0.73022   0.04245   0.31567   0.00000  Uiso   1.00
C97    C     0.81773   0.26362   0.38003   0.00000  Uiso   1.00
C98    C     0.49105   0.74480   0.17271   0.00000  Uiso   1.00
C99    C     0.46808   0.61883   0.18086   0.00000  Uiso   1.00
C100   C     0.40267   0.65648   0.16001   0.00000  Uiso   1.00
C101   C     0.30058   0.65422   0.13425   0.00000  Uiso   1.00
C102   C     0.52656   0.75812   0.13736   0.00000  Uiso   1.00
C103   C     0.53343   0.64333   0.11578   0.00000  Uiso   1.00
C104   C     0.49791   0.69218   0.06516   0.00000  Uiso   1.00
C105   C     0.45096   0.71060   0.98452   0.00000  Uiso   1.00
C106   C     0.48546   0.02161   0.14052   0.00000  Uiso   1.00
C107   C     0.57223   0.04665   0.20275   0.00000  Uiso   1.00
C108   C     0.60950   0.20547   0.23068   0.00000  Uiso   1.00
C109   C     0.68924   0.20072   0.28765   0.00000  Uiso   1.00
C110   C     0.45013   0.90277   0.14473   0.00000  Uiso   1.00
C111   C     0.38474   0.94062   0.12387   0.00000  Uiso   1.00
C112   C     0.36168   0.81474   0.13199   0.00000  Uiso   1.00
C113   C     0.48565   0.91610   0.10938   0.00000  Uiso   1.00
C114   C     0.45009   0.96513   0.05879   0.00000  Uiso   1.00
C115   C     0.45692   0.85044   0.03714   0.00000  Uiso   1.00
H116   H     0.59264   0.60777   0.21381   0.00000  Uiso   1.00
H117   H     0.72448   0.76139   0.30930   0.00000  Uiso   1.00
H118   H     0.49975   0.49658   0.20250   0.00000  Uiso   1.00
H119   H     0.56510   0.52109   0.13744   0.00000  Uiso   1.00
H120   H     0.85260   0.00139   0.40284   0.00000  Uiso   1.00
H121   H     0.37872   0.44298   0.17763   0.00000  Uiso   1.00
H122   H     0.51652   0.49465   0.04043   0.00000  Uiso   1.00
H123   H     0.45360   0.14461   0.11874   0.00000  Uiso   1.00
H124   H     0.57782   0.32771   0.20901   0.00000  Uiso   1.00
H125   H     0.35309   0.06288   0.10222   0.00000  Uiso   1.00
H126   H     0.41844   0.08739   0.03715   0.00000  Uiso   1.00
H127   H     0.73356   0.46103   0.32145   0.00000  Uiso   1.00
H128   H     0.25968   0.90261   0.09623   0.00000  Uiso   1.00
H129   H     0.39749   0.95429   0.95903   0.00000  Uiso   1.00
O130   O     0.87729   0.34196   0.42325   0.00000  Uiso   1.00
O131   O     0.25558   0.60934   0.12778   0.00000  Uiso   1.00
O132   O     0.43637   0.67714   0.94777   0.00000  Uiso   1.00
N133   N     0.80754   0.08444   0.37129   0.00000  Uiso   1.00
N134   N     0.36450   0.56237   0.16074   0.00000  Uiso   1.00
N135   N     0.49332   0.61066   0.03246   0.00000  Uiso   1.00
N136   N     0.74349   0.33177   0.32749   0.00000  Uiso   1.00
N137   N     0.30045   0.80970   0.11694   0.00000  Uiso   1.00
N138   N     0.42926   0.85799   0.98866   0.00000  Uiso   1.00
C139   C     0.06079   0.23076   0.19203   0.00000  Uiso   1.00
C140   C     0.11315   0.38868   0.23073   0.00000  Uiso   1.00
C141   C     0.19284   0.38368   0.28767   0.00000  Uiso   1.00
C142   C     0.23022   0.54245   0.31567   0.00000  Uiso   1.00
C143   C     0.31773   0.76362   0.38003   0.00000  Uiso   1.00
C144   C     0.99105   0.24480   0.17271   0.00000  Uiso   1.00
C145   C     0.96808   0.11883   0.18086   0.00000  Uiso   1.00
C146   C     0.90267   0.15648   0.16001   0.00000  Uiso   1.00
C147   C     0.80058   0.15422   0.13425   0.00000  Uiso   1.00
C148   C     0.02656   0.25812   0.13736   0.00000  Uiso   1.00
C149   C     0.03343   0.14333   0.11578   0.00000  Uiso   1.00
C150   C     0.99791   0.19218   0.06516   0.00000  Uiso   1.00
C151   C     0.95096   0.21060   0.98452   0.00000  Uiso   1.00
C152   C     0.98546   0.52161   0.14052   0.00000  Uiso   1.00
C153   C     0.07223   0.54665   0.20275   0.00000  Uiso   1.00
C154   C     0.10950   0.70547   0.23068   0.00000  Uiso   1.00
C155   C     0.18924   0.70072   0.28765   0.00000  Uiso   1.00
C156   C     0.95013   0.40277   0.14473   0.00000  Uiso   1.00
C157   C     0.88474   0.44062   0.12387   0.00000  Uiso   1.00
C158   C     0.86168   0.31474   0.13199   0.00000  Uiso   1.00
C159   C     0.98565   0.41610   0.10938   0.00000  Uiso   1.00
C160   C     0.95009   0.46513   0.05879   0.00000  Uiso   1.00
C161   C     0.95692   0.35044   0.03714   0.00000  Uiso   1.00
H162   H     0.09264   0.10777   0.21381   0.00000  Uiso   1.00
H163   H     0.22448   0.26139   0.30930   0.00000  Uiso   1.00
H164   H     0.99975   0.99658   0.20250   0.00000  Uiso   1.00
H165   H     0.06510   0.02109   0.13744   0.00000  Uiso   1.00
H166   H     0.35260   0.50139   0.40284   0.00000  Uiso   1.00
H167   H     0.87872   0.94298   0.17763   0.00000  Uiso   1.00
H168   H     0.01652   0.99465   0.04043   0.00000  Uiso   1.00
H169   H     0.95360   0.64461   0.11874   0.00000  Uiso   1.00
H170   H     0.07782   0.82771   0.20901   0.00000  Uiso   1.00
H171   H     0.85309   0.56288   0.10222   0.00000  Uiso   1.00
H172   H     0.91844   0.58739   0.03715   0.00000  Uiso   1.00
H173   H     0.23356   0.96103   0.32145   0.00000  Uiso   1.00
H174   H     0.75968   0.40261   0.09623   0.00000  Uiso   1.00
H175   H     0.89749   0.45429   0.95903   0.00000  Uiso   1.00
O176   O     0.37729   0.84196   0.42325   0.00000  Uiso   1.00
O177   O     0.75558   0.10934   0.12778   0.00000  Uiso   1.00
O178   O     0.93637   0.17714   0.94777   0.00000  Uiso   1.00
N179   N     0.30754   0.58444   0.37129   0.00000  Uiso   1.00
N180   N     0.86450   0.06237   0.16074   0.00000  Uiso   1.00
N181   N     0.99332   0.11066   0.03246   0.00000  Uiso   1.00
N182   N     0.24349   0.83177   0.32749   0.00000  Uiso   1.00
N183   N     0.80045   0.30970   0.11694   0.00000  Uiso   1.00
N184   N     0.92926   0.35799   0.98866   0.00000  Uiso   1.00
C185   C     0.56079   0.26924   0.69203   0.00000  Uiso   1.00
C186   C     0.61315   0.11132   0.73073   0.00000  Uiso   1.00
C187   C     0.69284   0.11632   0.78767   0.00000  Uiso   1.00
C188   C     0.73022   0.95755   0.81567   0.00000  Uiso   1.00
C189   C     0.81773   0.73638   0.88003   0.00000  Uiso   1.00
C190   C     0.49105   0.25520   0.67271   0.00000  Uiso   1.00
C191   C     0.46808   0.38117   0.68086   0.00000  Uiso   1.00
C192   C     0.40267   0.34352   0.66001   0.00000  Uiso   1.00
C193   C     0.30058   0.34578   0.63425   0.00000  Uiso   1.00
C194   C     0.52656   0.24188   0.63736   0.00000  Uiso   1.00
C195   C     0.53343   0.35667   0.61578   0.00000  Uiso   1.00
C196   C     0.49791   0.30782   0.56516   0.00000  Uiso   1.00
C197   C     0.45096   0.28940   0.48452   0.00000  Uiso   1.00
C198   C     0.48546   0.97839   0.64052   0.00000  Uiso   1.00
C199   C     0.57223   0.95335   0.70275   0.00000  Uiso   1.00
C200   C     0.60950   0.79453   0.73068   0.00000  Uiso   1.00
C201   C     0.68924   0.79928   0.78765   0.00000  Uiso   1.00
C202   C     0.45013   0.09723   0.64473   0.00000  Uiso   1.00
C203   C     0.38474   0.05938   0.62387   0.00000  Uiso   1.00
C204   C     0.36168   0.18526   0.63199   0.00000  Uiso   1.00
C205   C     0.48565   0.08390   0.60938   0.00000  Uiso   1.00
C206   C     0.45009   0.03487   0.55879   0.00000  Uiso   1.00
C207   C     0.45692   0.14956   0.53714   0.00000  Uiso   1.00
H208   H     0.59264   0.39223   0.71381   0.00000  Uiso   1.00
H209   H     0.72448   0.23861   0.80930   0.00000  Uiso   1.00
H210   H     0.49975   0.50342   0.70250   0.00000  Uiso   1.00
H211   H     0.56510   0.47891   0.63744   0.00000  Uiso   1.00
H212   H     0.85260   0.99861   0.90284   0.00000  Uiso   1.00
H213   H     0.37872   0.55702   0.67763   0.00000  Uiso   1.00
H214   H     0.51652   0.50535   0.54043   0.00000  Uiso   1.00
H215   H     0.45360   0.85539   0.61874   0.00000  Uiso   1.00
H216   H     0.57782   0.67229   0.70901   0.00000  Uiso   1.00
H217   H     0.35309   0.93712   0.60222   0.00000  Uiso   1.00
H218   H     0.41844   0.91261   0.53715   0.00000  Uiso   1.00
H219   H     0.73356   0.53897   0.82145   0.00000  Uiso   1.00
H220   H     0.25968   0.09739   0.59623   0.00000  Uiso   1.00
H221   H     0.39749   0.04571   0.45903   0.00000  Uiso   1.00
O222   O     0.87729   0.65804   0.92325   0.00000  Uiso   1.00
O223   O     0.25558   0.39066   0.62778   0.00000  Uiso   1.00
O224   O     0.43637   0.32286   0.44777   0.00000  Uiso   1.00
N225   N     0.80754   0.91556   0.87129   0.00000  Uiso   1.00
N226   N     0.36450   0.43763   0.66074   0.00000  Uiso   1.00
N227   N     0.49332   0.38934   0.53246   0.00000  Uiso   1.00
N228   N     0.74349   0.66823   0.82749   0.00000  Uiso   1.00
N229   N     0.30045   0.19030   0.61694   0.00000  Uiso   1.00
N230   N     0.42926   0.14201   0.48866   0.00000  Uiso   1.00
C231   C     0.06079   0.76924   0.69203   0.00000  Uiso   1.00
C232   C     0.11315   0.61132   0.73073   0.00000  Uiso   1.00
C233   C     0.19284   0.61632   0.78767   0.00000  Uiso   1.00
C234   C     0.23022   0.45755   0.81567   0.00000  Uiso   1.00
C235   C     0.31773   0.23638   0.88003   0.00000  Uiso   1.00
C236   C     0.99105   0.75520   0.67271   0.00000  Uiso   1.00
C237   C     0.96808   0.88117   0.68086   0.00000  Uiso   1.00
C238   C     0.90267   0.84352   0.66001   0.00000  Uiso   1.00
C239   C     0.80058   0.84578   0.63425   0.00000  Uiso   1.00
C240   C     0.02656   0.74188   0.63736   0.00000  Uiso   1.00
C241   C     0.03343   0.85667   0.61578   0.00000  Uiso   1.00
C242   C     0.99791   0.80782   0.56516   0.00000  Uiso   1.00
C243   C     0.95096   0.78940   0.48452   0.00000  Uiso   1.00
C244   C     0.98546   0.47839   0.64052   0.00000  Uiso   1.00
C245   C     0.07223   0.45335   0.70275   0.00000  Uiso   1.00
C246   C     0.10950   0.29453   0.73068   0.00000  Uiso   1.00
C247   C     0.18924   0.29928   0.78765   0.00000  Uiso   1.00
C248   C     0.95013   0.59723   0.64473   0.00000  Uiso   1.00
C249   C     0.88474   0.55938   0.62387   0.00000  Uiso   1.00
C250   C     0.86168   0.68526   0.63199   0.00000  Uiso   1.00
C251   C     0.98565   0.58390   0.60938   0.00000  Uiso   1.00
C252   C     0.95009   0.53487   0.55879   0.00000  Uiso   1.00
C253   C     0.95692   0.64956   0.53714   0.00000  Uiso   1.00
H254   H     0.09264   0.89223   0.71381   0.00000  Uiso   1.00
H255   H     0.22448   0.73861   0.80930   0.00000  Uiso   1.00
H256   H     0.99975   0.00342   0.70250   0.00000  Uiso   1.00
H257   H     0.06510   0.97891   0.63744   0.00000  Uiso   1.00
H258   H     0.35260   0.49861   0.90284   0.00000  Uiso   1.00
H259   H     0.87872   0.05702   0.67763   0.00000  Uiso   1.00
H260   H     0.01652   0.00535   0.54043   0.00000  Uiso   1.00
H261   H     0.95360   0.35539   0.61874   0.00000  Uiso   1.00
H262   H     0.07782   0.17229   0.70901   0.00000  Uiso   1.00
H263   H     0.85309   0.43712   0.60222   0.00000  Uiso   1.00
H264   H     0.91844   0.41261   0.53715   0.00000  Uiso   1.00
H265   H     0.23356   0.03897   0.82145   0.00000  Uiso   1.00
H266   H     0.75968   0.59739   0.59623   0.00000  Uiso   1.00
H267   H     0.89749   0.54571   0.45903   0.00000  Uiso   1.00
O268   O     0.37729   0.15804   0.92325   0.00000  Uiso   1.00
O269   O     0.75558   0.89066   0.62778   0.00000  Uiso   1.00
O270   O     0.93637   0.82286   0.44777   0.00000  Uiso   1.00
N271   N     0.30754   0.41556   0.87129   0.00000  Uiso   1.00
N272   N     0.86450   0.93763   0.66074   0.00000  Uiso   1.00
N273   N     0.99332   0.88934   0.53246   0.00000  Uiso   1.00
N274   N     0.24349   0.16823   0.82749   0.00000  Uiso   1.00
N275   N     0.80045   0.69030   0.61694   0.00000  Uiso   1.00
N276   N     0.92926   0.64201   0.48866   0.00000  Uiso   1.00
C277   C     0.43921   0.26924   0.80797   0.00000  Uiso   1.00
C278   C     0.38685   0.11132   0.76927   0.00000  Uiso   1.00
C279   C     0.30716   0.11632   0.71233   0.00000  Uiso   1.00
C280   C     0.26978   0.95755   0.68433   0.00000  Uiso   1.00
C281   C     0.18227   0.73638   0.61997   0.00000  Uiso   1.00
C282   C     0.50895   0.25520   0.82729   0.00000  Uiso   1.00
C283   C     0.53192   0.38117   0.81914   0.00000  Uiso   1.00
C284   C     0.59733   0.34352   0.83999   0.00000  Uiso   1.00
C285   C     0.69942   0.34578   0.86575   0.00000  Uiso   1.00
C286   C     0.47344   0.24188   0.86264   0.00000  Uiso   1.00
C287   C     0.46657   0.35667   0.88422   0.00000  Uiso   1.00
C288   C     0.50209   0.30782   0.93484   0.00000  Uiso   1.00
C289   C     0.54904   0.28940   0.01548   0.00000  Uiso   1.00
C290   C     0.51454   0.97839   0.85948   0.00000  Uiso   1.00
C291   C     0.42777   0.95335   0.79725   0.00000  Uiso   1.00
C292   C     0.39050   0.79453   0.76932   0.00000  Uiso   1.00
C293   C     0.31076   0.79928   0.71235   0.00000  Uiso   1.00
C294   C     0.54987   0.09723   0.85527   0.00000  Uiso   1.00
C295   C     0.61526   0.05938   0.87613   0.00000  Uiso   1.00
C296   C     0.63832   0.18526   0.86801   0.00000  Uiso   1.00
C297   C     0.51435   0.08390   0.89062   0.00000  Uiso   1.00
C298   C     0.54991   0.03487   0.94121   0.00000  Uiso   1.00
C299   C     0.54308   0.14956   0.96286   0.00000  Uiso   1.00
H300   H     0.40736   0.39223   0.78619   0.00000  Uiso   1.00
H301   H     0.27552   0.23861   0.69070   0.00000  Uiso   1.00
H302   H     0.50025   0.50342   0.79750   0.00000  Uiso   1.00
H303   H     0.43490   0.47891   0.86256   0.00000  Uiso   1.00
H304   H     0.14740   0.99861   0.59716   0.00000  Uiso   1.00
H305   H     0.62128   0.55702   0.82237   0.00000  Uiso   1.00
H306   H     0.48348   0.50535   0.95957   0.00000  Uiso   1.00
H307   H     0.54640   0.85539   0.88126   0.00000  Uiso   1.00
H308   H     0.42218   0.67229   0.79099   0.00000  Uiso   1.00
H309   H     0.64691   0.93712   0.89778   0.00000  Uiso   1.00
H310   H     0.58156   0.91261   0.96285   0.00000  Uiso   1.00
H311   H     0.26644   0.53897   0.67855   0.00000  Uiso   1.00
H312   H     0.74032   0.09739   0.90377   0.00000  Uiso   1.00
H313   H     0.60251   0.04571   0.04097   0.00000  Uiso   1.00
O314   O     0.12271   0.65804   0.57675   0.00000  Uiso   1.00
O315   O     0.74442   0.39066   0.87222   0.00000  Uiso   1.00
O316   O     0.56363   0.32286   0.05223   0.00000  Uiso   1.00
N317   N     0.19246   0.91556   0.62871   0.00000  Uiso   1.00
N318   N     0.63550   0.43763   0.83926   0.00000  Uiso   1.00
N319   N     0.50668   0.38934   0.96754   0.00000  Uiso   1.00
N320   N     0.25651   0.66823   0.67251   0.00000  Uiso   1.00
N321   N     0.69955   0.19030   0.88306   0.00000  Uiso   1.00
N322   N     0.57074   0.14201   0.01134   0.00000  Uiso   1.00
C323   C     0.93921   0.76924   0.80797   0.00000  Uiso   1.00
C324   C     0.88685   0.61132   0.76927   0.00000  Uiso   1.00
C325   C     0.80716   0.61632   0.71233   0.00000  Uiso   1.00
C326   C     0.76978   0.45755   0.68433   0.00000  Uiso   1.00
C327   C     0.68227   0.23638   0.61997   0.00000  Uiso   1.00
C328   C     0.00895   0.75520   0.82729   0.00000  Uiso   1.00
C329   C     0.03192   0.88117   0.81914   0.00000  Uiso   1.00
C330   C     0.09733   0.84352   0.83999   0.00000  Uiso   1.00
C331   C     0.19942   0.84578   0.86575   0.00000  Uiso   1.00
C332   C     0.97344   0.74188   0.86264   0.00000  Uiso   1.00
C333   C     0.96657   0.85667   0.88422   0.00000  Uiso   1.00
C334   C     0.00209   0.80782   0.93484   0.00000  Uiso   1.00
C335   C     0.04904   0.78940   0.01548   0.00000  Uiso   1.00
C336   C     0.01454   0.47839   0.85948   0.00000  Uiso   1.00
C337   C     0.92777   0.45335   0.79725   0.00000  Uiso   1.00
C338   C     0.89050   0.29453   0.76932   0.00000  Uiso   1.00
C339   C     0.81076   0.29928   0.71235   0.00000  Uiso   1.00
C340   C     0.04987   0.59723   0.85527   0.00000  Uiso   1.00
C341   C     0.11526   0.55938   0.87613   0.00000  Uiso   1.00
C342   C     0.13832   0.68526   0.86801   0.00000  Uiso   1.00
C343   C     0.01435   0.58390   0.89062   0.00000  Uiso   1.00
C344   C     0.04991   0.53487   0.94121   0.00000  Uiso   1.00
C345   C     0.04308   0.64956   0.96286   0.00000  Uiso   1.00
H346   H     0.90736   0.89223   0.78619   0.00000  Uiso   1.00
H347   H     0.77552   0.73861   0.69070   0.00000  Uiso   1.00
H348   H     0.00025   0.00342   0.79750   0.00000  Uiso   1.00
H349   H     0.93490   0.97891   0.86256   0.00000  Uiso   1.00
H350   H     0.64740   0.49861   0.59716   0.00000  Uiso   1.00
H351   H     0.12128   0.05702   0.82237   0.00000  Uiso   1.00
H352   H     0.98348   0.00535   0.95957   0.00000  Uiso   1.00
H353   H     0.04640   0.35539   0.88126   0.00000  Uiso   1.00
H354   H     0.92218   0.17229   0.79099   0.00000  Uiso   1.00
H355   H     0.14691   0.43712   0.89778   0.00000  Uiso   1.00
H356   H     0.08156   0.41261   0.96285   0.00000  Uiso   1.00
H357   H     0.76644   0.03897   0.67855   0.00000  Uiso   1.00
H358   H     0.24032   0.59739   0.90377   0.00000  Uiso   1.00
H359   H     0.10251   0.54571   0.04097   0.00000  Uiso   1.00
O360   O     0.62271   0.15804   0.57675   0.00000  Uiso   1.00
O361   O     0.24442   0.89066   0.87222   0.00000  Uiso   1.00
O362   O     0.06363   0.82286   0.05223   0.00000  Uiso   1.00
N363   N     0.69246   0.41556   0.62871   0.00000  Uiso   1.00
N364   N     0.13550   0.93763   0.83926   0.00000  Uiso   1.00
N365   N     0.00668   0.88934   0.96754   0.00000  Uiso   1.00
N366   N     0.75651   0.16823   0.67251   0.00000  Uiso   1.00
N367   N     0.19955   0.69030   0.88306   0.00000  Uiso   1.00
N368   N     0.07074   0.64201   0.01134   0.00000  Uiso   1.00
