data_job_03324
_audit_creation_date              2018-12-19
_audit_creation_method            'Materials Studio'
_symmetry_space_group_name_H-M    'P1'
_symmetry_Int_Tables_number       1
_symmetry_cell_setting            triclinic
loop_
_symmetry_equiv_pos_as_xyz
  x,y,z
_cell_length_a                    6.9736
_cell_length_b                    41.8196
_cell_length_c                    16.0798
_cell_angle_alpha                 90.0000
_cell_angle_beta                  102.7086
_cell_angle_gamma                 90.0000
loop_
_atom_site_label
_atom_site_type_symbol
_atom_site_fract_x
_atom_site_fract_y
_atom_site_fract_z
_atom_site_U_iso_or_equiv
_atom_site_adp_type
_atom_site_occupancy
C1     C     0.88863   0.02231   0.71152   0.00000  Uiso   1.00
C2     C     0.80919   0.98881   0.72048   0.00000  Uiso   1.00
C3     C     0.90130   0.96037   0.70784   0.00000  Uiso   1.00
C4     C     0.80462   0.93222   0.71915   0.00000  Uiso   1.00
C5     C     0.70895   0.88016   0.72950   0.00000  Uiso   1.00
C6     C     0.73010   0.03959   0.64663   0.00000  Uiso   1.00
C7     C     0.75573   0.05385   0.57189   0.00000  Uiso   1.00
C8     C     0.59247   0.06844   0.52103   0.00000  Uiso   1.00
C9     C     0.37406   0.09523   0.41675   0.00000  Uiso   1.00
C10    C     0.89667   0.03893   0.79663   0.00000  Uiso   1.00
C11    C     0.06233   0.05265   0.84801   0.00000  Uiso   1.00
C12    C     0.03930   0.06670   0.92344   0.00000  Uiso   1.00
C13    C     0.07950   0.09246   0.05206   0.00000  Uiso   1.00
C14    C     0.55314   0.02289   0.75411   0.00000  Uiso   1.00
C15    C     0.62697   0.98913   0.74361   0.00000  Uiso   1.00
C16    C     0.53012   0.96101   0.75495   0.00000  Uiso   1.00
C17    C     0.62207   0.93254   0.74232   0.00000  Uiso   1.00
C18    C     0.54788   0.03990   0.66975   0.00000  Uiso   1.00
C19    C     0.38455   0.05448   0.61900   0.00000  Uiso   1.00
C20    C     0.40992   0.06876   0.54420   0.00000  Uiso   1.00
C21    C     0.71445   0.03925   0.81976   0.00000  Uiso   1.00
C22    C     0.69115   0.05328   0.89512   0.00000  Uiso   1.00
C23    C     0.85675   0.06701   0.94661   0.00000  Uiso   1.00
H24    H     0.03049   0.02207   0.69351   0.00000  Uiso   1.00
H25    H     0.04232   0.96014   0.68993   0.00000  Uiso   1.00
H26    H     0.89677   0.05360   0.55401   0.00000  Uiso   1.00
H27    H     0.20332   0.05240   0.83009   0.00000  Uiso   1.00
H28    H     0.97503   0.89162   0.69613   0.00000  Uiso   1.00
H29    H     0.66816   0.08869   0.40955   0.00000  Uiso   1.00
H30    H     0.31459   0.08616   0.99171   0.00000  Uiso   1.00
H31    H     0.41126   0.02314   0.77211   0.00000  Uiso   1.00
H32    H     0.38911   0.96126   0.77285   0.00000  Uiso   1.00
H33    H     0.24356   0.05472   0.63692   0.00000  Uiso   1.00
H34    H     0.55012   0.05352   0.91300   0.00000  Uiso   1.00
H35    H     0.44486   0.89253   0.76342   0.00000  Uiso   1.00
H36    H     0.13799   0.08961   0.47684   0.00000  Uiso   1.00
H37    H     0.78441   0.08707   0.05901   0.00000  Uiso   1.00
O38    O     0.70651   0.85135   0.72881   0.00000  Uiso   1.00
O39    O     0.30392   0.10991   0.35284   0.00000  Uiso   1.00
O40    O     0.15202   0.10658   0.11662   0.00000  Uiso   1.00
N41    N     0.85331   0.90033   0.71188   0.00000  Uiso   1.00
N42    N     0.56640   0.08457   0.44394   0.00000  Uiso   1.00
N43    N     0.17074   0.08221   0.98820   0.00000  Uiso   1.00
N44    N     0.56803   0.90081   0.74809   0.00000  Uiso   1.00
N45    N     0.28112   0.08506   0.48015   0.00000  Uiso   1.00
N46    N     0.88546   0.08270   0.02441   0.00000  Uiso   1.00
C47    C     0.06473   0.23126   0.28506   0.00000  Uiso   1.00
C48    C     0.97700   0.26481   0.27616   0.00000  Uiso   1.00
C49    C     0.08252   0.29318   0.28971   0.00000  Uiso   1.00
C50    C     0.97506   0.32140   0.27829   0.00000  Uiso   1.00
C51    C     0.87011   0.37353   0.26818   0.00000  Uiso   1.00
C52    C     0.96966   0.21391   0.34906   0.00000  Uiso   1.00
C53    C     0.06903   0.19947   0.42391   0.00000  Uiso   1.00
C54    C     0.95538   0.18483   0.47386   0.00000  Uiso   1.00
C55    C     0.83904   0.15791   0.57690   0.00000  Uiso   1.00
C56    C     0.98813   0.21483   0.19954   0.00000  Uiso   1.00
C57    C     0.10302   0.20115   0.14867   0.00000  Uiso   1.00
C58    C     0.00491   0.18728   0.07273   0.00000  Uiso   1.00
C59    C     0.91725   0.16179   0.94362   0.00000  Uiso   1.00
C60    C     0.68622   0.23093   0.24067   0.00000  Uiso   1.00
C61    C     0.77141   0.26463   0.25205   0.00000  Uiso   1.00
C62    C     0.66375   0.29282   0.24060   0.00000  Uiso   1.00
C63    C     0.76910   0.32122   0.25413   0.00000  Uiso   1.00
C64    C     0.76408   0.21373   0.32496   0.00000  Uiso   1.00
C65    C     0.65026   0.19911   0.37480   0.00000  Uiso   1.00
C66    C     0.74942   0.18466   0.44970   0.00000  Uiso   1.00
C67    C     0.78254   0.21465   0.17542   0.00000  Uiso   1.00
C68    C     0.68424   0.20079   0.09956   0.00000  Uiso   1.00
C69    C     0.79895   0.18711   0.04858   0.00000  Uiso   1.00
H70    H     0.22478   0.23139   0.30383   0.00000  Uiso   1.00
H71    H     0.24162   0.29331   0.30838   0.00000  Uiso   1.00
H72    H     0.22812   0.19961   0.44255   0.00000  Uiso   1.00
H73    H     0.26210   0.20130   0.16735   0.00000  Uiso   1.00
H74    H     0.16962   0.36187   0.30282   0.00000  Uiso   1.00
H75    H     0.14116   0.16430   0.58571   0.00000  Uiso   1.00
H76    H     0.21282   0.16785   0.00540   0.00000  Uiso   1.00
H77    H     0.52616   0.23079   0.22189   0.00000  Uiso   1.00
H78    H     0.50466   0.29267   0.22194   0.00000  Uiso   1.00
H79    H     0.49117   0.19897   0.35612   0.00000  Uiso   1.00
H80    H     0.52515   0.20066   0.08092   0.00000  Uiso   1.00
H81    H     0.57148   0.36136   0.23266   0.00000  Uiso   1.00
H82    H     0.54302   0.16378   0.51556   0.00000  Uiso   1.00
H83    H     0.61468   0.16733   0.93525   0.00000  Uiso   1.00
O84    O     0.86901   0.40233   0.26928   0.00000  Uiso   1.00
O85    O     0.83168   0.14312   0.64041   0.00000  Uiso   1.00
O86    O     0.92569   0.14778   0.87906   0.00000  Uiso   1.00
N87    N     0.03180   0.35326   0.28628   0.00000  Uiso   1.00
N88    N     0.00520   0.16854   0.55078   0.00000  Uiso   1.00
N89    N     0.07219   0.17186   0.00825   0.00000  Uiso   1.00
N90    N     0.70995   0.35298   0.24853   0.00000  Uiso   1.00
N91    N     0.68334   0.16826   0.51303   0.00000  Uiso   1.00
N92    N     0.75033   0.17158   0.97050   0.00000  Uiso   1.00
C93    C     0.38863   0.52231   0.71152   0.00000  Uiso   1.00
C94    C     0.30919   0.48881   0.72048   0.00000  Uiso   1.00
C95    C     0.40130   0.46037   0.70784   0.00000  Uiso   1.00
C96    C     0.30462   0.43222   0.71915   0.00000  Uiso   1.00
C97    C     0.20895   0.38016   0.72950   0.00000  Uiso   1.00
C98    C     0.23010   0.53959   0.64663   0.00000  Uiso   1.00
C99    C     0.25573   0.55385   0.57189   0.00000  Uiso   1.00
C100   C     0.09247   0.56844   0.52103   0.00000  Uiso   1.00
C101   C     0.87406   0.59523   0.41675   0.00000  Uiso   1.00
C102   C     0.39667   0.53893   0.79663   0.00000  Uiso   1.00
C103   C     0.56233   0.55265   0.84801   0.00000  Uiso   1.00
C104   C     0.53930   0.56670   0.92344   0.00000  Uiso   1.00
C105   C     0.57950   0.59246   0.05206   0.00000  Uiso   1.00
C106   C     0.05314   0.52289   0.75411   0.00000  Uiso   1.00
C107   C     0.12697   0.48913   0.74361   0.00000  Uiso   1.00
C108   C     0.03012   0.46101   0.75495   0.00000  Uiso   1.00
C109   C     0.12207   0.43254   0.74232   0.00000  Uiso   1.00
C110   C     0.04788   0.53990   0.66975   0.00000  Uiso   1.00
C111   C     0.88455   0.55448   0.61900   0.00000  Uiso   1.00
C112   C     0.90992   0.56876   0.54420   0.00000  Uiso   1.00
C113   C     0.21445   0.53925   0.81976   0.00000  Uiso   1.00
C114   C     0.19115   0.55328   0.89512   0.00000  Uiso   1.00
C115   C     0.35675   0.56701   0.94661   0.00000  Uiso   1.00
H116   H     0.53049   0.52207   0.69351   0.00000  Uiso   1.00
H117   H     0.54232   0.46014   0.68993   0.00000  Uiso   1.00
H118   H     0.39677   0.55360   0.55401   0.00000  Uiso   1.00
H119   H     0.70332   0.55240   0.83009   0.00000  Uiso   1.00
H120   H     0.47503   0.39162   0.69613   0.00000  Uiso   1.00
H121   H     0.16816   0.58869   0.40955   0.00000  Uiso   1.00
H122   H     0.81459   0.58616   0.99171   0.00000  Uiso   1.00
H123   H     0.91126   0.52314   0.77211   0.00000  Uiso   1.00
H124   H     0.88911   0.46126   0.77285   0.00000  Uiso   1.00
H125   H     0.74356   0.55472   0.63692   0.00000  Uiso   1.00
H126   H     0.05012   0.55352   0.91300   0.00000  Uiso   1.00
H127   H     0.94486   0.39253   0.76342   0.00000  Uiso   1.00
H128   H     0.63799   0.58961   0.47684   0.00000  Uiso   1.00
H129   H     0.28441   0.58707   0.05901   0.00000  Uiso   1.00
O130   O     0.20651   0.35135   0.72881   0.00000  Uiso   1.00
O131   O     0.80392   0.60991   0.35284   0.00000  Uiso   1.00
O132   O     0.65202   0.60658   0.11662   0.00000  Uiso   1.00
N133   N     0.35331   0.40033   0.71188   0.00000  Uiso   1.00
N134   N     0.06640   0.58457   0.44394   0.00000  Uiso   1.00
N135   N     0.67074   0.58221   0.98820   0.00000  Uiso   1.00
N136   N     0.06803   0.40081   0.74809   0.00000  Uiso   1.00
N137   N     0.78112   0.58506   0.48015   0.00000  Uiso   1.00
N138   N     0.38546   0.58270   0.02441   0.00000  Uiso   1.00
C139   C     0.56473   0.73126   0.28506   0.00000  Uiso   1.00
C140   C     0.47700   0.76481   0.27616   0.00000  Uiso   1.00
C141   C     0.58252   0.79318   0.28971   0.00000  Uiso   1.00
C142   C     0.47506   0.82140   0.27829   0.00000  Uiso   1.00
C143   C     0.37011   0.87353   0.26818   0.00000  Uiso   1.00
C144   C     0.46966   0.71391   0.34906   0.00000  Uiso   1.00
C145   C     0.56903   0.69947   0.42391   0.00000  Uiso   1.00
C146   C     0.45538   0.68483   0.47386   0.00000  Uiso   1.00
C147   C     0.33904   0.65791   0.57690   0.00000  Uiso   1.00
C148   C     0.48813   0.71483   0.19954   0.00000  Uiso   1.00
C149   C     0.60302   0.70115   0.14867   0.00000  Uiso   1.00
C150   C     0.50491   0.68728   0.07273   0.00000  Uiso   1.00
C151   C     0.41725   0.66179   0.94362   0.00000  Uiso   1.00
C152   C     0.18622   0.73093   0.24067   0.00000  Uiso   1.00
C153   C     0.27141   0.76463   0.25205   0.00000  Uiso   1.00
C154   C     0.16375   0.79282   0.24060   0.00000  Uiso   1.00
C155   C     0.26910   0.82122   0.25413   0.00000  Uiso   1.00
C156   C     0.26408   0.71373   0.32496   0.00000  Uiso   1.00
C157   C     0.15026   0.69911   0.37480   0.00000  Uiso   1.00
C158   C     0.24942   0.68466   0.44970   0.00000  Uiso   1.00
C159   C     0.28254   0.71465   0.17542   0.00000  Uiso   1.00
C160   C     0.18424   0.70079   0.09956   0.00000  Uiso   1.00
C161   C     0.29895   0.68711   0.04858   0.00000  Uiso   1.00
H162   H     0.72478   0.73139   0.30383   0.00000  Uiso   1.00
H163   H     0.74162   0.79331   0.30838   0.00000  Uiso   1.00
H164   H     0.72812   0.69961   0.44255   0.00000  Uiso   1.00
H165   H     0.76210   0.70130   0.16735   0.00000  Uiso   1.00
H166   H     0.66962   0.86187   0.30282   0.00000  Uiso   1.00
H167   H     0.64116   0.66430   0.58571   0.00000  Uiso   1.00
H168   H     0.71282   0.66785   0.00540   0.00000  Uiso   1.00
H169   H     0.02616   0.73079   0.22189   0.00000  Uiso   1.00
H170   H     0.00466   0.79267   0.22194   0.00000  Uiso   1.00
H171   H     0.99117   0.69897   0.35612   0.00000  Uiso   1.00
H172   H     0.02515   0.70066   0.08092   0.00000  Uiso   1.00
H173   H     0.07148   0.86136   0.23266   0.00000  Uiso   1.00
H174   H     0.04302   0.66378   0.51556   0.00000  Uiso   1.00
H175   H     0.11468   0.66733   0.93525   0.00000  Uiso   1.00
O176   O     0.36901   0.90233   0.26928   0.00000  Uiso   1.00
O177   O     0.33168   0.64312   0.64041   0.00000  Uiso   1.00
O178   O     0.42569   0.64778   0.87906   0.00000  Uiso   1.00
N179   N     0.53180   0.85326   0.28628   0.00000  Uiso   1.00
N180   N     0.50520   0.66854   0.55078   0.00000  Uiso   1.00
N181   N     0.57219   0.67186   0.00825   0.00000  Uiso   1.00
N182   N     0.20995   0.85298   0.24853   0.00000  Uiso   1.00
N183   N     0.18334   0.66826   0.51303   0.00000  Uiso   1.00
N184   N     0.25033   0.67158   0.97050   0.00000  Uiso   1.00
C185   C     0.88863   0.97769   0.21152   0.00000  Uiso   1.00
C186   C     0.80919   0.01119   0.22048   0.00000  Uiso   1.00
C187   C     0.90130   0.03963   0.20784   0.00000  Uiso   1.00
C188   C     0.80462   0.06778   0.21915   0.00000  Uiso   1.00
C189   C     0.70895   0.11984   0.22950   0.00000  Uiso   1.00
C190   C     0.73010   0.96041   0.14663   0.00000  Uiso   1.00
C191   C     0.75573   0.94615   0.07189   0.00000  Uiso   1.00
C192   C     0.59247   0.93156   0.02103   0.00000  Uiso   1.00
C193   C     0.37406   0.90477   0.91675   0.00000  Uiso   1.00
C194   C     0.89667   0.96107   0.29663   0.00000  Uiso   1.00
C195   C     0.06233   0.94735   0.34801   0.00000  Uiso   1.00
C196   C     0.03930   0.93330   0.42344   0.00000  Uiso   1.00
C197   C     0.07950   0.90754   0.55206   0.00000  Uiso   1.00
C198   C     0.55314   0.97711   0.25411   0.00000  Uiso   1.00
C199   C     0.62697   0.01087   0.24361   0.00000  Uiso   1.00
C200   C     0.53012   0.03899   0.25495   0.00000  Uiso   1.00
C201   C     0.62207   0.06746   0.24232   0.00000  Uiso   1.00
C202   C     0.54788   0.96010   0.16975   0.00000  Uiso   1.00
C203   C     0.38455   0.94552   0.11900   0.00000  Uiso   1.00
C204   C     0.40992   0.93124   0.04420   0.00000  Uiso   1.00
C205   C     0.71445   0.96075   0.31976   0.00000  Uiso   1.00
C206   C     0.69115   0.94672   0.39512   0.00000  Uiso   1.00
C207   C     0.85675   0.93299   0.44661   0.00000  Uiso   1.00
H208   H     0.03049   0.97793   0.19351   0.00000  Uiso   1.00
H209   H     0.04232   0.03986   0.18993   0.00000  Uiso   1.00
H210   H     0.89677   0.94640   0.05401   0.00000  Uiso   1.00
H211   H     0.20332   0.94760   0.33009   0.00000  Uiso   1.00
H212   H     0.97503   0.10838   0.19613   0.00000  Uiso   1.00
H213   H     0.66816   0.91131   0.90955   0.00000  Uiso   1.00
H214   H     0.31459   0.91384   0.49171   0.00000  Uiso   1.00
H215   H     0.41126   0.97686   0.27211   0.00000  Uiso   1.00
H216   H     0.38911   0.03874   0.27285   0.00000  Uiso   1.00
H217   H     0.24356   0.94528   0.13692   0.00000  Uiso   1.00
H218   H     0.55012   0.94648   0.41300   0.00000  Uiso   1.00
H219   H     0.44486   0.10747   0.26342   0.00000  Uiso   1.00
H220   H     0.13799   0.91039   0.97684   0.00000  Uiso   1.00
H221   H     0.78441   0.91293   0.55901   0.00000  Uiso   1.00
O222   O     0.70651   0.14865   0.22881   0.00000  Uiso   1.00
O223   O     0.30392   0.89009   0.85284   0.00000  Uiso   1.00
O224   O     0.15202   0.89342   0.61662   0.00000  Uiso   1.00
N225   N     0.85331   0.09967   0.21188   0.00000  Uiso   1.00
N226   N     0.56640   0.91543   0.94394   0.00000  Uiso   1.00
N227   N     0.17074   0.91779   0.48820   0.00000  Uiso   1.00
N228   N     0.56803   0.09919   0.24809   0.00000  Uiso   1.00
N229   N     0.28112   0.91494   0.98015   0.00000  Uiso   1.00
N230   N     0.88546   0.91730   0.52441   0.00000  Uiso   1.00
C231   C     0.06473   0.76874   0.78506   0.00000  Uiso   1.00
C232   C     0.97700   0.73519   0.77616   0.00000  Uiso   1.00
C233   C     0.08252   0.70682   0.78971   0.00000  Uiso   1.00
C234   C     0.97506   0.67860   0.77829   0.00000  Uiso   1.00
C235   C     0.87011   0.62647   0.76818   0.00000  Uiso   1.00
C236   C     0.96966   0.78609   0.84906   0.00000  Uiso   1.00
C237   C     0.06903   0.80053   0.92391   0.00000  Uiso   1.00
C238   C     0.95538   0.81517   0.97386   0.00000  Uiso   1.00
C239   C     0.83904   0.84209   0.07690   0.00000  Uiso   1.00
C240   C     0.98813   0.78517   0.69954   0.00000  Uiso   1.00
C241   C     0.10302   0.79885   0.64867   0.00000  Uiso   1.00
C242   C     0.00491   0.81272   0.57273   0.00000  Uiso   1.00
C243   C     0.91725   0.83821   0.44362   0.00000  Uiso   1.00
C244   C     0.68622   0.76907   0.74067   0.00000  Uiso   1.00
C245   C     0.77141   0.73537   0.75205   0.00000  Uiso   1.00
C246   C     0.66375   0.70718   0.74060   0.00000  Uiso   1.00
C247   C     0.76910   0.67878   0.75413   0.00000  Uiso   1.00
C248   C     0.76408   0.78627   0.82496   0.00000  Uiso   1.00
C249   C     0.65026   0.80089   0.87480   0.00000  Uiso   1.00
C250   C     0.74942   0.81534   0.94970   0.00000  Uiso   1.00
C251   C     0.78254   0.78535   0.67542   0.00000  Uiso   1.00
C252   C     0.68424   0.79921   0.59956   0.00000  Uiso   1.00
C253   C     0.79895   0.81289   0.54858   0.00000  Uiso   1.00
H254   H     0.22478   0.76861   0.80383   0.00000  Uiso   1.00
H255   H     0.24162   0.70669   0.80838   0.00000  Uiso   1.00
H256   H     0.22812   0.80039   0.94255   0.00000  Uiso   1.00
H257   H     0.26210   0.79870   0.66735   0.00000  Uiso   1.00
H258   H     0.16962   0.63813   0.80282   0.00000  Uiso   1.00
H259   H     0.14116   0.83570   0.08571   0.00000  Uiso   1.00
H260   H     0.21282   0.83215   0.50540   0.00000  Uiso   1.00
H261   H     0.52616   0.76921   0.72189   0.00000  Uiso   1.00
H262   H     0.50466   0.70733   0.72194   0.00000  Uiso   1.00
H263   H     0.49117   0.80103   0.85612   0.00000  Uiso   1.00
H264   H     0.52515   0.79934   0.58092   0.00000  Uiso   1.00
H265   H     0.57148   0.63864   0.73266   0.00000  Uiso   1.00
H266   H     0.54302   0.83622   0.01556   0.00000  Uiso   1.00
H267   H     0.61468   0.83267   0.43525   0.00000  Uiso   1.00
O268   O     0.86901   0.59767   0.76928   0.00000  Uiso   1.00
O269   O     0.83168   0.85688   0.14041   0.00000  Uiso   1.00
O270   O     0.92569   0.85222   0.37906   0.00000  Uiso   1.00
N271   N     0.03180   0.64674   0.78628   0.00000  Uiso   1.00
N272   N     0.00520   0.83146   0.05078   0.00000  Uiso   1.00
N273   N     0.07219   0.82814   0.50825   0.00000  Uiso   1.00
N274   N     0.70995   0.64702   0.74853   0.00000  Uiso   1.00
N275   N     0.68334   0.83174   0.01303   0.00000  Uiso   1.00
N276   N     0.75033   0.82842   0.47050   0.00000  Uiso   1.00
C277   C     0.38863   0.47769   0.21152   0.00000  Uiso   1.00
C278   C     0.30919   0.51119   0.22048   0.00000  Uiso   1.00
C279   C     0.40130   0.53963   0.20784   0.00000  Uiso   1.00
C280   C     0.30462   0.56778   0.21915   0.00000  Uiso   1.00
C281   C     0.20895   0.61984   0.22950   0.00000  Uiso   1.00
C282   C     0.23010   0.46041   0.14663   0.00000  Uiso   1.00
C283   C     0.25573   0.44615   0.07189   0.00000  Uiso   1.00
C284   C     0.09247   0.43156   0.02103   0.00000  Uiso   1.00
C285   C     0.87406   0.40477   0.91675   0.00000  Uiso   1.00
C286   C     0.39667   0.46107   0.29663   0.00000  Uiso   1.00
C287   C     0.56233   0.44735   0.34801   0.00000  Uiso   1.00
C288   C     0.53930   0.43330   0.42344   0.00000  Uiso   1.00
C289   C     0.57950   0.40754   0.55206   0.00000  Uiso   1.00
C290   C     0.05314   0.47711   0.25411   0.00000  Uiso   1.00
C291   C     0.12697   0.51087   0.24361   0.00000  Uiso   1.00
C292   C     0.03012   0.53899   0.25495   0.00000  Uiso   1.00
C293   C     0.12207   0.56746   0.24232   0.00000  Uiso   1.00
C294   C     0.04788   0.46010   0.16975   0.00000  Uiso   1.00
C295   C     0.88455   0.44552   0.11900   0.00000  Uiso   1.00
C296   C     0.90992   0.43124   0.04420   0.00000  Uiso   1.00
C297   C     0.21445   0.46075   0.31976   0.00000  Uiso   1.00
C298   C     0.19115   0.44672   0.39512   0.00000  Uiso   1.00
C299   C     0.35675   0.43299   0.44661   0.00000  Uiso   1.00
H300   H     0.53049   0.47793   0.19351   0.00000  Uiso   1.00
H301   H     0.54232   0.53986   0.18993   0.00000  Uiso   1.00
H302   H     0.39677   0.44640   0.05401   0.00000  Uiso   1.00
H303   H     0.70332   0.44760   0.33009   0.00000  Uiso   1.00
H304   H     0.47503   0.60838   0.19613   0.00000  Uiso   1.00
H305   H     0.16816   0.41131   0.90955   0.00000  Uiso   1.00
H306   H     0.81459   0.41384   0.49171   0.00000  Uiso   1.00
H307   H     0.91126   0.47686   0.27211   0.00000  Uiso   1.00
H308   H     0.88911   0.53874   0.27285   0.00000  Uiso   1.00
H309   H     0.74356   0.44528   0.13692   0.00000  Uiso   1.00
H310   H     0.05012   0.44648   0.41300   0.00000  Uiso   1.00
H311   H     0.94486   0.60747   0.26342   0.00000  Uiso   1.00
H312   H     0.63799   0.41039   0.97684   0.00000  Uiso   1.00
H313   H     0.28441   0.41293   0.55901   0.00000  Uiso   1.00
O314   O     0.20651   0.64865   0.22881   0.00000  Uiso   1.00
O315   O     0.80392   0.39009   0.85284   0.00000  Uiso   1.00
O316   O     0.65202   0.39342   0.61662   0.00000  Uiso   1.00
N317   N     0.35331   0.59967   0.21188   0.00000  Uiso   1.00
N318   N     0.06640   0.41543   0.94394   0.00000  Uiso   1.00
N319   N     0.67074   0.41779   0.48820   0.00000  Uiso   1.00
N320   N     0.06803   0.59919   0.24809   0.00000  Uiso   1.00
N321   N     0.78112   0.41494   0.98015   0.00000  Uiso   1.00
N322   N     0.38546   0.41730   0.52441   0.00000  Uiso   1.00
C323   C     0.56473   0.26874   0.78506   0.00000  Uiso   1.00
C324   C     0.47700   0.23519   0.77616   0.00000  Uiso   1.00
C325   C     0.58252   0.20682   0.78971   0.00000  Uiso   1.00
C326   C     0.47506   0.17860   0.77829   0.00000  Uiso   1.00
C327   C     0.37011   0.12647   0.76818   0.00000  Uiso   1.00
C328   C     0.46966   0.28609   0.84906   0.00000  Uiso   1.00
C329   C     0.56903   0.30053   0.92391   0.00000  Uiso   1.00
C330   C     0.45538   0.31517   0.97386   0.00000  Uiso   1.00
C331   C     0.33904   0.34209   0.07690   0.00000  Uiso   1.00
C332   C     0.48813   0.28517   0.69954   0.00000  Uiso   1.00
C333   C     0.60302   0.29885   0.64867   0.00000  Uiso   1.00
C334   C     0.50491   0.31272   0.57273   0.00000  Uiso   1.00
C335   C     0.41725   0.33821   0.44362   0.00000  Uiso   1.00
C336   C     0.18622   0.26907   0.74067   0.00000  Uiso   1.00
C337   C     0.27141   0.23537   0.75205   0.00000  Uiso   1.00
C338   C     0.16375   0.20718   0.74060   0.00000  Uiso   1.00
C339   C     0.26910   0.17878   0.75413   0.00000  Uiso   1.00
C340   C     0.26408   0.28627   0.82496   0.00000  Uiso   1.00
C341   C     0.15026   0.30089   0.87480   0.00000  Uiso   1.00
C342   C     0.24942   0.31534   0.94970   0.00000  Uiso   1.00
C343   C     0.28254   0.28535   0.67542   0.00000  Uiso   1.00
C344   C     0.18424   0.29921   0.59956   0.00000  Uiso   1.00
C345   C     0.29895   0.31289   0.54858   0.00000  Uiso   1.00
H346   H     0.72478   0.26861   0.80383   0.00000  Uiso   1.00
H347   H     0.74162   0.20669   0.80838   0.00000  Uiso   1.00
H348   H     0.72812   0.30039   0.94255   0.00000  Uiso   1.00
H349   H     0.76210   0.29870   0.66735   0.00000  Uiso   1.00
H350   H     0.66962   0.13813   0.80282   0.00000  Uiso   1.00
H351   H     0.64116   0.33570   0.08571   0.00000  Uiso   1.00
H352   H     0.71282   0.33215   0.50540   0.00000  Uiso   1.00
H353   H     0.02616   0.26921   0.72189   0.00000  Uiso   1.00
H354   H     0.00466   0.20733   0.72194   0.00000  Uiso   1.00
H355   H     0.99117   0.30103   0.85612   0.00000  Uiso   1.00
H356   H     0.02515   0.29934   0.58092   0.00000  Uiso   1.00
H357   H     0.07148   0.13864   0.73266   0.00000  Uiso   1.00
H358   H     0.04302   0.33622   0.01556   0.00000  Uiso   1.00
H359   H     0.11468   0.33267   0.43525   0.00000  Uiso   1.00
O360   O     0.36901   0.09767   0.76928   0.00000  Uiso   1.00
O361   O     0.33168   0.35688   0.14041   0.00000  Uiso   1.00
O362   O     0.42569   0.35222   0.37906   0.00000  Uiso   1.00
N363   N     0.53180   0.14674   0.78628   0.00000  Uiso   1.00
N364   N     0.50520   0.33146   0.05078   0.00000  Uiso   1.00
N365   N     0.57219   0.32814   0.50825   0.00000  Uiso   1.00
N366   N     0.20995   0.14702   0.74853   0.00000  Uiso   1.00
N367   N     0.18334   0.33174   0.01303   0.00000  Uiso   1.00
N368   N     0.25033   0.32842   0.47050   0.00000  Uiso   1.00
