data_job_05092
_audit_creation_date              2018-12-19
_audit_creation_method            'Materials Studio'
_symmetry_space_group_name_H-M    'P1'
_symmetry_Int_Tables_number       1
_symmetry_cell_setting            triclinic
loop_
_symmetry_equiv_pos_as_xyz
  x,y,z
_cell_length_a                    12.4795
_cell_length_b                    18.2717
_cell_length_c                    29.3413
_cell_angle_alpha                 90.0000
_cell_angle_beta                  127.5640
_cell_angle_gamma                 90.0000
loop_
_atom_site_label
_atom_site_type_symbol
_atom_site_fract_x
_atom_site_fract_y
_atom_site_fract_z
_atom_site_U_iso_or_equiv
_atom_site_adp_type
_atom_site_occupancy
C1     C     0.59038   0.41446   0.37293   0.00000  Uiso   1.00
C2     C     0.65545   0.47266   0.35970   0.00000  Uiso   1.00
C3     C     0.71652   0.46039   0.33364   0.00000  Uiso   1.00
C4     C     0.77014   0.52086   0.32532   0.00000  Uiso   1.00
C5     C     0.87235   0.60055   0.30220   0.00000  Uiso   1.00
C6     C     0.66117   0.41963   0.43734   0.00000  Uiso   1.00
C7     C     0.72702   0.36276   0.47656   0.00000  Uiso   1.00
C8     C     0.78543   0.37859   0.53359   0.00000  Uiso   1.00
C9     C     0.89643   0.37593   0.63100   0.00000  Uiso   1.00
C10    C     0.44536   0.43964   0.34337   0.00000  Uiso   1.00
C11    C     0.32975   0.39959   0.30358   0.00000  Uiso   1.00
C12    C     0.20647   0.43226   0.28151   0.00000  Uiso   1.00
C13    C     0.98239   0.46068   0.23301   0.00000  Uiso   1.00
C14    C     0.57701   0.54368   0.40447   0.00000  Uiso   1.00
C15    C     0.64819   0.54285   0.37684   0.00000  Uiso   1.00
C16    C     0.70172   0.60336   0.36855   0.00000  Uiso   1.00
C17    C     0.76286   0.59118   0.34248   0.00000  Uiso   1.00
C18    C     0.65391   0.48981   0.45448   0.00000  Uiso   1.00
C19    C     0.71223   0.50573   0.51146   0.00000  Uiso   1.00
C20    C     0.77816   0.44890   0.55075   0.00000  Uiso   1.00
C21    C     0.43809   0.50983   0.36050   0.00000  Uiso   1.00
C22    C     0.31497   0.54256   0.33848   0.00000  Uiso   1.00
C23    C     0.19919   0.50258   0.29867   0.00000  Uiso   1.00
H24    H     0.59603   0.35981   0.35959   0.00000  Uiso   1.00
H25    H     0.72213   0.40606   0.32040   0.00000  Uiso   1.00
H26    H     0.73261   0.30845   0.46328   0.00000  Uiso   1.00
H27    H     0.33541   0.34528   0.29034   0.00000  Uiso   1.00
H28    H     0.85877   0.48829   0.28451   0.00000  Uiso   1.00
H29    H     0.88084   0.28246   0.58580   0.00000  Uiso   1.00
H30    H     0.04326   0.36012   0.22111   0.00000  Uiso   1.00
H31    H     0.57135   0.59833   0.41782   0.00000  Uiso   1.00
H32    H     0.69609   0.65767   0.38181   0.00000  Uiso   1.00
H33    H     0.70658   0.56005   0.52470   0.00000  Uiso   1.00
H34    H     0.30938   0.59688   0.35175   0.00000  Uiso   1.00
H35    H     0.83764   0.69250   0.33436   0.00000  Uiso   1.00
H36    H     0.85971   0.48666   0.63565   0.00000  Uiso   1.00
H37    H     0.02214   0.56433   0.27096   0.00000  Uiso   1.00
O38    O     0.93075   0.62512   0.28472   0.00000  Uiso   1.00
O39    O     0.95968   0.35507   0.67999   0.00000  Uiso   1.00
O40    O     0.86080   0.45696   0.20152   0.00000  Uiso   1.00
N41    N     0.83665   0.52821   0.30118   0.00000  Uiso   1.00
N42    N     0.85731   0.33577   0.58286   0.00000  Uiso   1.00
N43    N     0.07424   0.40837   0.24192   0.00000  Uiso   1.00
N44    N     0.82528   0.63809   0.32800   0.00000  Uiso   1.00
N45    N     0.84594   0.44565   0.60969   0.00000  Uiso   1.00
N46    N     0.06287   0.51825   0.26874   0.00000  Uiso   1.00
C47    C     0.45458   0.33099   0.62237   0.00000  Uiso   1.00
C48    C     0.55710   0.27264   0.63530   0.00000  Uiso   1.00
C49    C     0.69284   0.28471   0.66120   0.00000  Uiso   1.00
C50    C     0.76985   0.22414   0.66926   0.00000  Uiso   1.00
C51    C     0.93767   0.14421   0.69193   0.00000  Uiso   1.00
C52    C     0.34034   0.32610   0.55798   0.00000  Uiso   1.00
C53    C     0.29382   0.38312   0.51889   0.00000  Uiso   1.00
C54    C     0.18836   0.36755   0.46186   0.00000  Uiso   1.00
C55    C     0.01958   0.37064   0.36451   0.00000  Uiso   1.00
C56    C     0.39461   0.30579   0.65205   0.00000  Uiso   1.00
C57    C     0.39368   0.34573   0.69204   0.00000  Uiso   1.00
C58    C     0.33388   0.31306   0.71420   0.00000  Uiso   1.00
C59    C     0.24937   0.28461   0.76290   0.00000  Uiso   1.00
C60    C     0.34997   0.20196   0.59060   0.00000  Uiso   1.00
C61    C     0.50027   0.20256   0.61804   0.00000  Uiso   1.00
C62    C     0.57711   0.14195   0.62606   0.00000  Uiso   1.00
C63    C     0.71294   0.15392   0.65198   0.00000  Uiso   1.00
C64    C     0.28352   0.25602   0.54073   0.00000  Uiso   1.00
C65    C     0.17809   0.24037   0.48375   0.00000  Uiso   1.00
C66    C     0.13143   0.29734   0.44458   0.00000  Uiso   1.00
C67    C     0.33779   0.23570   0.63480   0.00000  Uiso   1.00
C68    C     0.27796   0.20297   0.65689   0.00000  Uiso   1.00
C69    C     0.27696   0.24285   0.69691   0.00000  Uiso   1.00
H70    H     0.49880   0.38555   0.63580   0.00000  Uiso   1.00
H71    H     0.73677   0.33896   0.67455   0.00000  Uiso   1.00
H72    H     0.33780   0.43735   0.53226   0.00000  Uiso   1.00
H73    H     0.43766   0.39997   0.70538   0.00000  Uiso   1.00
H74    H     0.97552   0.25639   0.70988   0.00000  Uiso   1.00
H75    H     0.13426   0.46388   0.40986   0.00000  Uiso   1.00
H76    H     0.34482   0.38504   0.77492   0.00000  Uiso   1.00
H77    H     0.30573   0.14739   0.57717   0.00000  Uiso   1.00
H78    H     0.53311   0.08772   0.61270   0.00000  Uiso   1.00
H79    H     0.13414   0.18612   0.47041   0.00000  Uiso   1.00
H80    H     0.23400   0.14874   0.64353   0.00000  Uiso   1.00
H81    H     0.81023   0.05248   0.65968   0.00000  Uiso   1.00
H82    H     0.96895   0.25997   0.35966   0.00000  Uiso   1.00
H83    H     0.17952   0.18113   0.72472   0.00000  Uiso   1.00
O84    O     0.04592   0.11949   0.70920   0.00000  Uiso   1.00
O85    O     0.94220   0.39171   0.31558   0.00000  Uiso   1.00
O86    O     0.21846   0.28827   0.79454   0.00000  Uiso   1.00
N87    N     0.90542   0.21659   0.69320   0.00000  Uiso   1.00
N88    N     0.11890   0.41057   0.41269   0.00000  Uiso   1.00
N89    N     0.31573   0.33688   0.75399   0.00000  Uiso   1.00
N90    N     0.81648   0.10687   0.66619   0.00000  Uiso   1.00
N91    N     0.02996   0.30085   0.38568   0.00000  Uiso   1.00
N92    N     0.22679   0.22715   0.72698   0.00000  Uiso   1.00
C93    C     0.02860   0.08111   0.87202   0.00000  Uiso   1.00
C94    C     0.09489   0.02231   0.85987   0.00000  Uiso   1.00
C95    C     0.15573   0.03354   0.83361   0.00000  Uiso   1.00
C96    C     0.21060   0.97267   0.82640   0.00000  Uiso   1.00
C97    C     0.31448   0.89195   0.80475   0.00000  Uiso   1.00
C98    C     0.09946   0.07791   0.93651   0.00000  Uiso   1.00
C99    C     0.16412   0.13590   0.97468   0.00000  Uiso   1.00
C100   C     0.22283   0.12183   0.03198   0.00000  Uiso   1.00
C101   C     0.33372   0.12746   0.12931   0.00000  Uiso   1.00
C102   C     0.88410   0.05533   0.84292   0.00000  Uiso   1.00
C103   C     0.76769   0.09434   0.80241   0.00000  Uiso   1.00
C104   C     0.64507   0.06127   0.78093   0.00000  Uiso   1.00
C105   C     0.42159   0.03183   0.73295   0.00000  Uiso   1.00
C106   C     0.01786   0.95302   0.90592   0.00000  Uiso   1.00
C107   C     0.08906   0.95273   0.87829   0.00000  Uiso   1.00
C108   C     0.14385   0.89182   0.87111   0.00000  Uiso   1.00
C109   C     0.20475   0.90297   0.84484   0.00000  Uiso   1.00
C110   C     0.09363   0.00834   0.95492   0.00000  Uiso   1.00
C111   C     0.15224   0.99418   0.01218   0.00000  Uiso   1.00
C112   C     0.21699   0.05213   0.05043   0.00000  Uiso   1.00
C113   C     0.87827   0.98576   0.86133   0.00000  Uiso   1.00
C114   C     0.75581   0.95262   0.83992   0.00000  Uiso   1.00
C115   C     0.63923   0.99157   0.79938   0.00000  Uiso   1.00
H116   H     0.03314   0.13528   0.85769   0.00000  Uiso   1.00
H117   H     0.16023   0.08740   0.81937   0.00000  Uiso   1.00
H118   H     0.16861   0.18974   0.96042   0.00000  Uiso   1.00
H119   H     0.77224   0.14818   0.78817   0.00000  Uiso   1.00
H120   H     0.29860   0.00363   0.78502   0.00000  Uiso   1.00
H121   H     0.31623   0.21943   0.08242   0.00000  Uiso   1.00
H122   H     0.48041   0.13181   0.71922   0.00000  Uiso   1.00
H123   H     0.01332   0.89885   0.92026   0.00000  Uiso   1.00
H124   H     0.13932   0.83799   0.88537   0.00000  Uiso   1.00
H125   H     0.14770   0.94033   0.02641   0.00000  Uiso   1.00
H126   H     0.75134   0.89878   0.85417   0.00000  Uiso   1.00
H127   H     0.28164   0.80120   0.83859   0.00000  Uiso   1.00
H128   H     0.29926   0.01701   0.13599   0.00000  Uiso   1.00
H129   H     0.46344   0.92938   0.77279   0.00000  Uiso   1.00
O130   O     0.37340   0.86666   0.78774   0.00000  Uiso   1.00
O131   O     0.39651   0.14978   0.17791   0.00000  Uiso   1.00
O132   O     0.29993   0.03481   0.70140   0.00000  Uiso   1.00
N133   N     0.27729   0.96434   0.80240   0.00000  Uiso   1.00
N134   N     0.29379   0.16610   0.08046   0.00000  Uiso   1.00
N135   N     0.51237   0.08418   0.74091   0.00000  Uiso   1.00
N136   N     0.26816   0.85542   0.83123   0.00000  Uiso   1.00
N137   N     0.28466   0.05717   0.10928   0.00000  Uiso   1.00
N138   N     0.50324   0.97526   0.76973   0.00000  Uiso   1.00
C139   C     0.89347   0.17243   0.12507   0.00000  Uiso   1.00
C140   C     0.99429   0.23102   0.13656   0.00000  Uiso   1.00
C141   C     0.13008   0.21958   0.16227   0.00000  Uiso   1.00
C142   C     0.20539   0.28028   0.16892   0.00000  Uiso   1.00
C143   C     0.37083   0.36065   0.18953   0.00000  Uiso   1.00
C144   C     0.77833   0.17541   0.06070   0.00000  Uiso   1.00
C145   C     0.73254   0.11721   0.02264   0.00000  Uiso   1.00
C146   C     0.62604   0.13110   0.96544   0.00000  Uiso   1.00
C147   C     0.45614   0.12513   0.86830   0.00000  Uiso   1.00
C148   C     0.83394   0.19867   0.15470   0.00000  Uiso   1.00
C149   C     0.83488   0.16003   0.19567   0.00000  Uiso   1.00
C150   C     0.77517   0.19350   0.21760   0.00000  Uiso   1.00
C151   C     0.69162   0.22365   0.26640   0.00000  Uiso   1.00
C152   C     0.78572   0.30056   0.09116   0.00000  Uiso   1.00
C153   C     0.93576   0.30061   0.11814   0.00000  Uiso   1.00
C154   C     0.01088   0.36134   0.12475   0.00000  Uiso   1.00
C155   C     0.14677   0.35000   0.15047   0.00000  Uiso   1.00
C156   C     0.71981   0.24500   0.04229   0.00000  Uiso   1.00
C157   C     0.61334   0.25898   0.98513   0.00000  Uiso   1.00
C158   C     0.56742   0.20082   0.94699   0.00000  Uiso   1.00
C159   C     0.77542   0.26827   0.13629   0.00000  Uiso   1.00
C160   C     0.71569   0.30180   0.15815   0.00000  Uiso   1.00
C161   C     0.71654   0.26322   0.19914   0.00000  Uiso   1.00
H162   H     0.93902   0.11825   0.13940   0.00000  Uiso   1.00
H163   H     0.17533   0.16571   0.17651   0.00000  Uiso   1.00
H164   H     0.77784   0.06336   0.03691   0.00000  Uiso   1.00
H165   H     0.88018   0.10618   0.20991   0.00000  Uiso   1.00
H166   H     0.41151   0.24902   0.20951   0.00000  Uiso   1.00
H167   H     0.57336   0.03321   0.91516   0.00000  Uiso   1.00
H168   H     0.78914   0.12349   0.27995   0.00000  Uiso   1.00
H169   H     0.74016   0.35475   0.07682   0.00000  Uiso   1.00
H170   H     0.96557   0.41519   0.11050   0.00000  Uiso   1.00
H171   H     0.56808   0.31284   0.97089   0.00000  Uiso   1.00
H172   H     0.67041   0.35566   0.14389   0.00000  Uiso   1.00
H173   H     0.24126   0.45151   0.15593   0.00000  Uiso   1.00
H174   H     0.40309   0.23569   0.86158   0.00000  Uiso   1.00
H175   H     0.61888   0.32598   0.22637   0.00000  Uiso   1.00
O176   O     0.47824   0.38576   0.20598   0.00000  Uiso   1.00
O177   O     0.37860   0.10261   0.81981   0.00000  Uiso   1.00
O178   O     0.66171   0.22106   0.29842   0.00000  Uiso   1.00
N179   N     0.34051   0.28839   0.19229   0.00000  Uiso   1.00
N180   N     0.55690   0.08661   0.91709   0.00000  Uiso   1.00
N181   N     0.75861   0.17101   0.25813   0.00000  Uiso   1.00
N182   N     0.24890   0.39734   0.16346   0.00000  Uiso   1.00
N183   N     0.46529   0.19557   0.88825   0.00000  Uiso   1.00
N184   N     0.66700   0.27997   0.22930   0.00000  Uiso   1.00
C185   C     0.59038   0.58554   0.87293   0.00000  Uiso   1.00
C186   C     0.65545   0.52734   0.85970   0.00000  Uiso   1.00
C187   C     0.71652   0.53961   0.83364   0.00000  Uiso   1.00
C188   C     0.77014   0.47914   0.82532   0.00000  Uiso   1.00
C189   C     0.87235   0.39945   0.80220   0.00000  Uiso   1.00
C190   C     0.66117   0.58037   0.93734   0.00000  Uiso   1.00
C191   C     0.72702   0.63724   0.97656   0.00000  Uiso   1.00
C192   C     0.78543   0.62141   0.03359   0.00000  Uiso   1.00
C193   C     0.89643   0.62407   0.13100   0.00000  Uiso   1.00
C194   C     0.44536   0.56036   0.84337   0.00000  Uiso   1.00
C195   C     0.32975   0.60041   0.80358   0.00000  Uiso   1.00
C196   C     0.20647   0.56774   0.78151   0.00000  Uiso   1.00
C197   C     0.98239   0.53932   0.73301   0.00000  Uiso   1.00
C198   C     0.57701   0.45632   0.90447   0.00000  Uiso   1.00
C199   C     0.64819   0.45715   0.87684   0.00000  Uiso   1.00
C200   C     0.70172   0.39664   0.86855   0.00000  Uiso   1.00
C201   C     0.76286   0.40882   0.84248   0.00000  Uiso   1.00
C202   C     0.65391   0.51019   0.95448   0.00000  Uiso   1.00
C203   C     0.71223   0.49427   0.01146   0.00000  Uiso   1.00
C204   C     0.77816   0.55110   0.05075   0.00000  Uiso   1.00
C205   C     0.43809   0.49017   0.86050   0.00000  Uiso   1.00
C206   C     0.31497   0.45744   0.83848   0.00000  Uiso   1.00
C207   C     0.19919   0.49742   0.79867   0.00000  Uiso   1.00
H208   H     0.59603   0.64019   0.85959   0.00000  Uiso   1.00
H209   H     0.72213   0.59394   0.82040   0.00000  Uiso   1.00
H210   H     0.73261   0.69155   0.96328   0.00000  Uiso   1.00
H211   H     0.33541   0.65472   0.79034   0.00000  Uiso   1.00
H212   H     0.85877   0.51171   0.78451   0.00000  Uiso   1.00
H213   H     0.88084   0.71754   0.08580   0.00000  Uiso   1.00
H214   H     0.04326   0.63988   0.72111   0.00000  Uiso   1.00
H215   H     0.57135   0.40167   0.91782   0.00000  Uiso   1.00
H216   H     0.69609   0.34233   0.88181   0.00000  Uiso   1.00
H217   H     0.70658   0.43995   0.02470   0.00000  Uiso   1.00
H218   H     0.30938   0.40312   0.85175   0.00000  Uiso   1.00
H219   H     0.83764   0.30750   0.83436   0.00000  Uiso   1.00
H220   H     0.85971   0.51334   0.13565   0.00000  Uiso   1.00
H221   H     0.02214   0.43567   0.77096   0.00000  Uiso   1.00
O222   O     0.93075   0.37488   0.78472   0.00000  Uiso   1.00
O223   O     0.95968   0.64493   0.17999   0.00000  Uiso   1.00
O224   O     0.86080   0.54304   0.70152   0.00000  Uiso   1.00
N225   N     0.83665   0.47179   0.80118   0.00000  Uiso   1.00
N226   N     0.85731   0.66423   0.08286   0.00000  Uiso   1.00
N227   N     0.07424   0.59163   0.74192   0.00000  Uiso   1.00
N228   N     0.82528   0.36191   0.82800   0.00000  Uiso   1.00
N229   N     0.84594   0.55435   0.10969   0.00000  Uiso   1.00
N230   N     0.06287   0.48175   0.76874   0.00000  Uiso   1.00
C231   C     0.45458   0.66901   0.12237   0.00000  Uiso   1.00
C232   C     0.55710   0.72736   0.13530   0.00000  Uiso   1.00
C233   C     0.69284   0.71529   0.16120   0.00000  Uiso   1.00
C234   C     0.76985   0.77586   0.16926   0.00000  Uiso   1.00
C235   C     0.93767   0.85579   0.19193   0.00000  Uiso   1.00
C236   C     0.34034   0.67390   0.05798   0.00000  Uiso   1.00
C237   C     0.29382   0.61688   0.01889   0.00000  Uiso   1.00
C238   C     0.18836   0.63245   0.96186   0.00000  Uiso   1.00
C239   C     0.01958   0.62936   0.86451   0.00000  Uiso   1.00
C240   C     0.39461   0.69421   0.15205   0.00000  Uiso   1.00
C241   C     0.39368   0.65427   0.19204   0.00000  Uiso   1.00
C242   C     0.33388   0.68694   0.21420   0.00000  Uiso   1.00
C243   C     0.24937   0.71539   0.26290   0.00000  Uiso   1.00
C244   C     0.34997   0.79804   0.09060   0.00000  Uiso   1.00
C245   C     0.50027   0.79744   0.11804   0.00000  Uiso   1.00
C246   C     0.57711   0.85805   0.12606   0.00000  Uiso   1.00
C247   C     0.71294   0.84608   0.15198   0.00000  Uiso   1.00
C248   C     0.28352   0.74398   0.04073   0.00000  Uiso   1.00
C249   C     0.17809   0.75963   0.98375   0.00000  Uiso   1.00
C250   C     0.13143   0.70266   0.94458   0.00000  Uiso   1.00
C251   C     0.33779   0.76430   0.13480   0.00000  Uiso   1.00
C252   C     0.27796   0.79703   0.15689   0.00000  Uiso   1.00
C253   C     0.27696   0.75715   0.19691   0.00000  Uiso   1.00
H254   H     0.49880   0.61445   0.13580   0.00000  Uiso   1.00
H255   H     0.73677   0.66104   0.17455   0.00000  Uiso   1.00
H256   H     0.33780   0.56265   0.03226   0.00000  Uiso   1.00
H257   H     0.43766   0.60003   0.20538   0.00000  Uiso   1.00
H258   H     0.97552   0.74361   0.20988   0.00000  Uiso   1.00
H259   H     0.13426   0.53612   0.90986   0.00000  Uiso   1.00
H260   H     0.34482   0.61496   0.27492   0.00000  Uiso   1.00
H261   H     0.30573   0.85261   0.07717   0.00000  Uiso   1.00
H262   H     0.53311   0.91228   0.11270   0.00000  Uiso   1.00
H263   H     0.13414   0.81388   0.97041   0.00000  Uiso   1.00
H264   H     0.23400   0.85126   0.14353   0.00000  Uiso   1.00
H265   H     0.81023   0.94752   0.15968   0.00000  Uiso   1.00
H266   H     0.96895   0.74003   0.85966   0.00000  Uiso   1.00
H267   H     0.17952   0.81887   0.22472   0.00000  Uiso   1.00
O268   O     0.04592   0.88051   0.20920   0.00000  Uiso   1.00
O269   O     0.94220   0.60829   0.81558   0.00000  Uiso   1.00
O270   O     0.21846   0.71173   0.29454   0.00000  Uiso   1.00
N271   N     0.90542   0.78341   0.19320   0.00000  Uiso   1.00
N272   N     0.11890   0.58943   0.91269   0.00000  Uiso   1.00
N273   N     0.31573   0.66312   0.25399   0.00000  Uiso   1.00
N274   N     0.81648   0.89313   0.16619   0.00000  Uiso   1.00
N275   N     0.02996   0.69915   0.88568   0.00000  Uiso   1.00
N276   N     0.22679   0.77285   0.22698   0.00000  Uiso   1.00
C277   C     0.02860   0.91889   0.37202   0.00000  Uiso   1.00
C278   C     0.09489   0.97769   0.35987   0.00000  Uiso   1.00
C279   C     0.15573   0.96646   0.33361   0.00000  Uiso   1.00
C280   C     0.21060   0.02733   0.32640   0.00000  Uiso   1.00
C281   C     0.31448   0.10805   0.30475   0.00000  Uiso   1.00
C282   C     0.09946   0.92209   0.43651   0.00000  Uiso   1.00
C283   C     0.16412   0.86410   0.47468   0.00000  Uiso   1.00
C284   C     0.22283   0.87817   0.53198   0.00000  Uiso   1.00
C285   C     0.33372   0.87254   0.62931   0.00000  Uiso   1.00
C286   C     0.88410   0.94467   0.34292   0.00000  Uiso   1.00
C287   C     0.76769   0.90566   0.30241   0.00000  Uiso   1.00
C288   C     0.64507   0.93873   0.28093   0.00000  Uiso   1.00
C289   C     0.42159   0.96817   0.23295   0.00000  Uiso   1.00
C290   C     0.01786   0.04698   0.40592   0.00000  Uiso   1.00
C291   C     0.08906   0.04727   0.37829   0.00000  Uiso   1.00
C292   C     0.14385   0.10818   0.37111   0.00000  Uiso   1.00
C293   C     0.20475   0.09703   0.34484   0.00000  Uiso   1.00
C294   C     0.09363   0.99166   0.45492   0.00000  Uiso   1.00
C295   C     0.15224   0.00582   0.51218   0.00000  Uiso   1.00
C296   C     0.21699   0.94787   0.55043   0.00000  Uiso   1.00
C297   C     0.87827   0.01424   0.36133   0.00000  Uiso   1.00
C298   C     0.75581   0.04738   0.33992   0.00000  Uiso   1.00
C299   C     0.63923   0.00843   0.29938   0.00000  Uiso   1.00
H300   H     0.03314   0.86472   0.35769   0.00000  Uiso   1.00
H301   H     0.16023   0.91260   0.31937   0.00000  Uiso   1.00
H302   H     0.16861   0.81026   0.46042   0.00000  Uiso   1.00
H303   H     0.77224   0.85182   0.28817   0.00000  Uiso   1.00
H304   H     0.29860   0.99637   0.28502   0.00000  Uiso   1.00
H305   H     0.31623   0.78057   0.58242   0.00000  Uiso   1.00
H306   H     0.48041   0.86819   0.21922   0.00000  Uiso   1.00
H307   H     0.01332   0.10115   0.42026   0.00000  Uiso   1.00
H308   H     0.13932   0.16201   0.38537   0.00000  Uiso   1.00
H309   H     0.14770   0.05967   0.52641   0.00000  Uiso   1.00
H310   H     0.75134   0.10122   0.35417   0.00000  Uiso   1.00
H311   H     0.28164   0.19880   0.33859   0.00000  Uiso   1.00
H312   H     0.29926   0.98299   0.63599   0.00000  Uiso   1.00
H313   H     0.46344   0.07062   0.27279   0.00000  Uiso   1.00
O314   O     0.37340   0.13334   0.28774   0.00000  Uiso   1.00
O315   O     0.39651   0.85022   0.67791   0.00000  Uiso   1.00
O316   O     0.29993   0.96519   0.20140   0.00000  Uiso   1.00
N317   N     0.27729   0.03566   0.30240   0.00000  Uiso   1.00
N318   N     0.29379   0.83390   0.58046   0.00000  Uiso   1.00
N319   N     0.51237   0.91582   0.24091   0.00000  Uiso   1.00
N320   N     0.26816   0.14458   0.33123   0.00000  Uiso   1.00
N321   N     0.28466   0.94283   0.60928   0.00000  Uiso   1.00
N322   N     0.50324   0.02474   0.26973   0.00000  Uiso   1.00
C323   C     0.89347   0.82757   0.62507   0.00000  Uiso   1.00
C324   C     0.99429   0.76898   0.63656   0.00000  Uiso   1.00
C325   C     0.13008   0.78042   0.66227   0.00000  Uiso   1.00
C326   C     0.20539   0.71972   0.66892   0.00000  Uiso   1.00
C327   C     0.37083   0.63935   0.68953   0.00000  Uiso   1.00
C328   C     0.77833   0.82459   0.56070   0.00000  Uiso   1.00
C329   C     0.73254   0.88279   0.52264   0.00000  Uiso   1.00
C330   C     0.62604   0.86890   0.46544   0.00000  Uiso   1.00
C331   C     0.45614   0.87487   0.36830   0.00000  Uiso   1.00
C332   C     0.83394   0.80133   0.65470   0.00000  Uiso   1.00
C333   C     0.83488   0.83997   0.69567   0.00000  Uiso   1.00
C334   C     0.77517   0.80650   0.71760   0.00000  Uiso   1.00
C335   C     0.69162   0.77635   0.76640   0.00000  Uiso   1.00
C336   C     0.78572   0.69944   0.59116   0.00000  Uiso   1.00
C337   C     0.93576   0.69939   0.61814   0.00000  Uiso   1.00
C338   C     0.01088   0.63866   0.62475   0.00000  Uiso   1.00
C339   C     0.14677   0.65000   0.65047   0.00000  Uiso   1.00
C340   C     0.71981   0.75500   0.54229   0.00000  Uiso   1.00
C341   C     0.61334   0.74102   0.48513   0.00000  Uiso   1.00
C342   C     0.56742   0.79918   0.44699   0.00000  Uiso   1.00
C343   C     0.77542   0.73173   0.63629   0.00000  Uiso   1.00
C344   C     0.71569   0.69820   0.65815   0.00000  Uiso   1.00
C345   C     0.71654   0.73678   0.69914   0.00000  Uiso   1.00
H346   H     0.93902   0.88175   0.63940   0.00000  Uiso   1.00
H347   H     0.17533   0.83429   0.67651   0.00000  Uiso   1.00
H348   H     0.77784   0.93664   0.53691   0.00000  Uiso   1.00
H349   H     0.88018   0.89382   0.70991   0.00000  Uiso   1.00
H350   H     0.41151   0.75098   0.70951   0.00000  Uiso   1.00
H351   H     0.57336   0.96679   0.41516   0.00000  Uiso   1.00
H352   H     0.78914   0.87651   0.77995   0.00000  Uiso   1.00
H353   H     0.74016   0.64525   0.57682   0.00000  Uiso   1.00
H354   H     0.96557   0.58481   0.61050   0.00000  Uiso   1.00
H355   H     0.56808   0.68716   0.47089   0.00000  Uiso   1.00
H356   H     0.67041   0.64434   0.64389   0.00000  Uiso   1.00
H357   H     0.24126   0.54849   0.65593   0.00000  Uiso   1.00
H358   H     0.40309   0.76431   0.36158   0.00000  Uiso   1.00
H359   H     0.61888   0.67402   0.72637   0.00000  Uiso   1.00
O360   O     0.47824   0.61424   0.70598   0.00000  Uiso   1.00
O361   O     0.37860   0.89739   0.31981   0.00000  Uiso   1.00
O362   O     0.66171   0.77894   0.79842   0.00000  Uiso   1.00
N363   N     0.34051   0.71161   0.69229   0.00000  Uiso   1.00
N364   N     0.55690   0.91339   0.41709   0.00000  Uiso   1.00
N365   N     0.75861   0.82899   0.75813   0.00000  Uiso   1.00
N366   N     0.24890   0.60266   0.66346   0.00000  Uiso   1.00
N367   N     0.46529   0.80443   0.38825   0.00000  Uiso   1.00
N368   N     0.66700   0.72003   0.72930   0.00000  Uiso   1.00
