data_job_02741
_audit_creation_date              2018-12-19
_audit_creation_method            'Materials Studio'
_symmetry_space_group_name_H-M    'P1'
_symmetry_Int_Tables_number       1
_symmetry_cell_setting            triclinic
loop_
_symmetry_equiv_pos_as_xyz
  x,y,z
_cell_length_a                    21.2407
_cell_length_b                    13.1397
_cell_length_c                    9.4456
_cell_angle_alpha                 90.0000
_cell_angle_beta                  80.7198
_cell_angle_gamma                 90.0000
loop_
_atom_site_label
_atom_site_type_symbol
_atom_site_fract_x
_atom_site_fract_y
_atom_site_fract_z
_atom_site_U_iso_or_equiv
_atom_site_adp_type
_atom_site_occupancy
C1     C     0.68517   0.41267   0.38904   0.00000  Uiso   1.00
C2     C     0.66781   0.49762   0.29231   0.00000  Uiso   1.00
C3     C     0.66935   0.49083   0.14517   0.00000  Uiso   1.00
C4     C     0.65172   0.57702   0.07607   0.00000  Uiso   1.00
C5     C     0.62760   0.69530   0.91439   0.00000  Uiso   1.00
C6     C     0.73740   0.45567   0.46523   0.00000  Uiso   1.00
C7     C     0.79745   0.41359   0.46349   0.00000  Uiso   1.00
C8     C     0.83840   0.46446   0.53997   0.00000  Uiso   1.00
C9     C     0.92232   0.51756   0.64683   0.00000  Uiso   1.00
C10    C     0.62697   0.39789   0.50479   0.00000  Uiso   1.00
C11    C     0.59418   0.30723   0.53634   0.00000  Uiso   1.00
C12    C     0.54216   0.30945   0.64615   0.00000  Uiso   1.00
C13    C     0.45461   0.27286   0.81443   0.00000  Uiso   1.00
C14    C     0.65112   0.57781   0.52797   0.00000  Uiso   1.00
C15    C     0.64931   0.58732   0.36778   0.00000  Uiso   1.00
C16    C     0.63167   0.67354   0.29888   0.00000  Uiso   1.00
C17    C     0.63318   0.66687   0.15167   0.00000  Uiso   1.00
C18    C     0.71891   0.54536   0.54069   0.00000  Uiso   1.00
C19    C     0.75978   0.59630   0.61720   0.00000  Uiso   1.00
C20    C     0.81987   0.55431   0.61557   0.00000  Uiso   1.00
C21    C     0.60847   0.48759   0.58025   0.00000  Uiso   1.00
C22    C     0.55650   0.48995   0.69004   0.00000  Uiso   1.00
C23    C     0.52363   0.39931   0.72175   0.00000  Uiso   1.00
H24    H     0.69957   0.34283   0.33029   0.00000  Uiso   1.00
H25    H     0.68367   0.42140   0.08681   0.00000  Uiso   1.00
H26    H     0.81175   0.34417   0.40509   0.00000  Uiso   1.00
H27    H     0.60851   0.23784   0.47792   0.00000  Uiso   1.00
H28    H     0.65790   0.54807   0.85014   0.00000  Uiso   1.00
H29    H     0.92796   0.38521   0.52129   0.00000  Uiso   1.00
H30    H     0.49938   0.16098   0.67487   0.00000  Uiso   1.00
H31    H     0.63672   0.64765   0.58673   0.00000  Uiso   1.00
H32    H     0.61736   0.74294   0.35731   0.00000  Uiso   1.00
H33    H     0.74544   0.66571   0.67559   0.00000  Uiso   1.00
H34    H     0.54220   0.55938   0.74842   0.00000  Uiso   1.00
H35    H     0.60409   0.80905   0.06968   0.00000  Uiso   1.00
H36    H     0.87415   0.64618   0.74084   0.00000  Uiso   1.00
H37    H     0.44556   0.42196   0.89441   0.00000  Uiso   1.00
O38    O     0.61942   0.73576   0.80436   0.00000  Uiso   1.00
O39    O     0.97372   0.52207   0.68490   0.00000  Uiso   1.00
O40    O     0.41143   0.22790   0.88639   0.00000  Uiso   1.00
N41    N     0.64788   0.59641   0.93329   0.00000  Uiso   1.00
N42    N     0.90037   0.44415   0.56076   0.00000  Uiso   1.00
N43    N     0.49970   0.23451   0.70437   0.00000  Uiso   1.00
N44    N     0.61892   0.73684   0.05143   0.00000  Uiso   1.00
N45    N     0.87141   0.58458   0.67890   0.00000  Uiso   1.00
N46    N     0.47074   0.37494   0.82251   0.00000  Uiso   1.00
C47    C     0.18517   0.91267   0.38904   0.00000  Uiso   1.00
C48    C     0.16781   0.99762   0.29231   0.00000  Uiso   1.00
C49    C     0.16935   0.99083   0.14517   0.00000  Uiso   1.00
C50    C     0.15172   0.07702   0.07607   0.00000  Uiso   1.00
C51    C     0.12760   0.19530   0.91439   0.00000  Uiso   1.00
C52    C     0.23740   0.95567   0.46523   0.00000  Uiso   1.00
C53    C     0.29745   0.91359   0.46349   0.00000  Uiso   1.00
C54    C     0.33840   0.96446   0.53997   0.00000  Uiso   1.00
C55    C     0.42232   0.01756   0.64683   0.00000  Uiso   1.00
C56    C     0.12697   0.89789   0.50479   0.00000  Uiso   1.00
C57    C     0.09418   0.80723   0.53634   0.00000  Uiso   1.00
C58    C     0.04216   0.80945   0.64615   0.00000  Uiso   1.00
C59    C     0.95461   0.77286   0.81443   0.00000  Uiso   1.00
C60    C     0.15112   0.07781   0.52797   0.00000  Uiso   1.00
C61    C     0.14931   0.08732   0.36778   0.00000  Uiso   1.00
C62    C     0.13167   0.17354   0.29888   0.00000  Uiso   1.00
C63    C     0.13318   0.16687   0.15167   0.00000  Uiso   1.00
C64    C     0.21891   0.04536   0.54069   0.00000  Uiso   1.00
C65    C     0.25978   0.09630   0.61720   0.00000  Uiso   1.00
C66    C     0.31987   0.05431   0.61557   0.00000  Uiso   1.00
C67    C     0.10847   0.98759   0.58025   0.00000  Uiso   1.00
C68    C     0.05650   0.98995   0.69004   0.00000  Uiso   1.00
C69    C     0.02363   0.89931   0.72175   0.00000  Uiso   1.00
H70    H     0.19957   0.84283   0.33029   0.00000  Uiso   1.00
H71    H     0.18367   0.92140   0.08681   0.00000  Uiso   1.00
H72    H     0.31175   0.84417   0.40509   0.00000  Uiso   1.00
H73    H     0.10851   0.73784   0.47792   0.00000  Uiso   1.00
H74    H     0.15790   0.04807   0.85014   0.00000  Uiso   1.00
H75    H     0.42796   0.88521   0.52129   0.00000  Uiso   1.00
H76    H     0.99938   0.66098   0.67487   0.00000  Uiso   1.00
H77    H     0.13672   0.14765   0.58673   0.00000  Uiso   1.00
H78    H     0.11736   0.24294   0.35731   0.00000  Uiso   1.00
H79    H     0.24544   0.16571   0.67559   0.00000  Uiso   1.00
H80    H     0.04220   0.05938   0.74842   0.00000  Uiso   1.00
H81    H     0.10409   0.30905   0.06968   0.00000  Uiso   1.00
H82    H     0.37415   0.14618   0.74084   0.00000  Uiso   1.00
H83    H     0.94556   0.92196   0.89441   0.00000  Uiso   1.00
O84    O     0.11942   0.23576   0.80436   0.00000  Uiso   1.00
O85    O     0.47372   0.02207   0.68490   0.00000  Uiso   1.00
O86    O     0.91143   0.72790   0.88639   0.00000  Uiso   1.00
N87    N     0.14788   0.09641   0.93329   0.00000  Uiso   1.00
N88    N     0.40037   0.94415   0.56076   0.00000  Uiso   1.00
N89    N     0.99970   0.73451   0.70437   0.00000  Uiso   1.00
N90    N     0.11892   0.23684   0.05143   0.00000  Uiso   1.00
N91    N     0.37141   0.08458   0.67890   0.00000  Uiso   1.00
N92    N     0.97074   0.87494   0.82251   0.00000  Uiso   1.00
C93    C     0.31483   0.41267   0.61096   0.00000  Uiso   1.00
C94    C     0.33219   0.49762   0.70769   0.00000  Uiso   1.00
C95    C     0.33065   0.49083   0.85483   0.00000  Uiso   1.00
C96    C     0.34828   0.57702   0.92393   0.00000  Uiso   1.00
C97    C     0.37240   0.69530   0.08561   0.00000  Uiso   1.00
C98    C     0.26260   0.45567   0.53477   0.00000  Uiso   1.00
C99    C     0.20255   0.41359   0.53651   0.00000  Uiso   1.00
C100   C     0.16160   0.46446   0.46003   0.00000  Uiso   1.00
C101   C     0.07768   0.51756   0.35317   0.00000  Uiso   1.00
C102   C     0.37303   0.39789   0.49521   0.00000  Uiso   1.00
C103   C     0.40582   0.30723   0.46366   0.00000  Uiso   1.00
C104   C     0.45784   0.30945   0.35385   0.00000  Uiso   1.00
C105   C     0.54539   0.27286   0.18557   0.00000  Uiso   1.00
C106   C     0.34888   0.57781   0.47203   0.00000  Uiso   1.00
C107   C     0.35069   0.58732   0.63222   0.00000  Uiso   1.00
C108   C     0.36833   0.67354   0.70112   0.00000  Uiso   1.00
C109   C     0.36682   0.66687   0.84833   0.00000  Uiso   1.00
C110   C     0.28109   0.54536   0.45931   0.00000  Uiso   1.00
C111   C     0.24022   0.59630   0.38280   0.00000  Uiso   1.00
C112   C     0.18013   0.55431   0.38443   0.00000  Uiso   1.00
C113   C     0.39153   0.48759   0.41975   0.00000  Uiso   1.00
C114   C     0.44350   0.48995   0.30996   0.00000  Uiso   1.00
C115   C     0.47637   0.39931   0.27825   0.00000  Uiso   1.00
H116   H     0.30043   0.34283   0.66971   0.00000  Uiso   1.00
H117   H     0.31633   0.42140   0.91319   0.00000  Uiso   1.00
H118   H     0.18825   0.34417   0.59491   0.00000  Uiso   1.00
H119   H     0.39149   0.23784   0.52208   0.00000  Uiso   1.00
H120   H     0.34210   0.54807   0.14986   0.00000  Uiso   1.00
H121   H     0.07204   0.38521   0.47871   0.00000  Uiso   1.00
H122   H     0.50062   0.16098   0.32513   0.00000  Uiso   1.00
H123   H     0.36328   0.64765   0.41327   0.00000  Uiso   1.00
H124   H     0.38264   0.74294   0.64269   0.00000  Uiso   1.00
H125   H     0.25456   0.66571   0.32441   0.00000  Uiso   1.00
H126   H     0.45780   0.55938   0.25158   0.00000  Uiso   1.00
H127   H     0.39591   0.80905   0.93032   0.00000  Uiso   1.00
H128   H     0.12585   0.64618   0.25916   0.00000  Uiso   1.00
H129   H     0.55444   0.42196   0.10559   0.00000  Uiso   1.00
O130   O     0.38058   0.73576   0.19564   0.00000  Uiso   1.00
O131   O     0.02628   0.52207   0.31510   0.00000  Uiso   1.00
O132   O     0.58857   0.22790   0.11361   0.00000  Uiso   1.00
N133   N     0.35212   0.59641   0.06671   0.00000  Uiso   1.00
N134   N     0.09963   0.44415   0.43924   0.00000  Uiso   1.00
N135   N     0.50030   0.23451   0.29563   0.00000  Uiso   1.00
N136   N     0.38108   0.73684   0.94857   0.00000  Uiso   1.00
N137   N     0.12859   0.58458   0.32110   0.00000  Uiso   1.00
N138   N     0.52926   0.37494   0.17749   0.00000  Uiso   1.00
C139   C     0.81483   0.91267   0.61096   0.00000  Uiso   1.00
C140   C     0.83219   0.99762   0.70769   0.00000  Uiso   1.00
C141   C     0.83065   0.99083   0.85483   0.00000  Uiso   1.00
C142   C     0.84828   0.07702   0.92393   0.00000  Uiso   1.00
C143   C     0.87240   0.19530   0.08561   0.00000  Uiso   1.00
C144   C     0.76260   0.95567   0.53477   0.00000  Uiso   1.00
C145   C     0.70255   0.91359   0.53651   0.00000  Uiso   1.00
C146   C     0.66160   0.96446   0.46003   0.00000  Uiso   1.00
C147   C     0.57768   0.01756   0.35317   0.00000  Uiso   1.00
C148   C     0.87303   0.89789   0.49521   0.00000  Uiso   1.00
C149   C     0.90582   0.80723   0.46366   0.00000  Uiso   1.00
C150   C     0.95784   0.80945   0.35385   0.00000  Uiso   1.00
C151   C     0.04539   0.77286   0.18557   0.00000  Uiso   1.00
C152   C     0.84888   0.07781   0.47203   0.00000  Uiso   1.00
C153   C     0.85069   0.08732   0.63222   0.00000  Uiso   1.00
C154   C     0.86833   0.17354   0.70112   0.00000  Uiso   1.00
C155   C     0.86682   0.16687   0.84833   0.00000  Uiso   1.00
C156   C     0.78109   0.04536   0.45931   0.00000  Uiso   1.00
C157   C     0.74022   0.09630   0.38280   0.00000  Uiso   1.00
C158   C     0.68013   0.05431   0.38443   0.00000  Uiso   1.00
C159   C     0.89153   0.98759   0.41975   0.00000  Uiso   1.00
C160   C     0.94350   0.98995   0.30996   0.00000  Uiso   1.00
C161   C     0.97637   0.89931   0.27825   0.00000  Uiso   1.00
H162   H     0.80043   0.84283   0.66971   0.00000  Uiso   1.00
H163   H     0.81633   0.92140   0.91319   0.00000  Uiso   1.00
H164   H     0.68825   0.84417   0.59491   0.00000  Uiso   1.00
H165   H     0.89149   0.73784   0.52208   0.00000  Uiso   1.00
H166   H     0.84210   0.04807   0.14986   0.00000  Uiso   1.00
H167   H     0.57204   0.88521   0.47871   0.00000  Uiso   1.00
H168   H     0.00062   0.66098   0.32513   0.00000  Uiso   1.00
H169   H     0.86328   0.14765   0.41327   0.00000  Uiso   1.00
H170   H     0.88264   0.24294   0.64269   0.00000  Uiso   1.00
H171   H     0.75456   0.16571   0.32441   0.00000  Uiso   1.00
H172   H     0.95780   0.05938   0.25158   0.00000  Uiso   1.00
H173   H     0.89591   0.30905   0.93032   0.00000  Uiso   1.00
H174   H     0.62585   0.14618   0.25916   0.00000  Uiso   1.00
H175   H     0.05444   0.92196   0.10559   0.00000  Uiso   1.00
O176   O     0.88058   0.23576   0.19564   0.00000  Uiso   1.00
O177   O     0.52628   0.02207   0.31510   0.00000  Uiso   1.00
O178   O     0.08857   0.72790   0.11361   0.00000  Uiso   1.00
N179   N     0.85212   0.09641   0.06671   0.00000  Uiso   1.00
N180   N     0.59963   0.94415   0.43924   0.00000  Uiso   1.00
N181   N     0.00030   0.73451   0.29563   0.00000  Uiso   1.00
N182   N     0.88108   0.23684   0.94857   0.00000  Uiso   1.00
N183   N     0.62859   0.08458   0.32110   0.00000  Uiso   1.00
N184   N     0.02926   0.87494   0.17749   0.00000  Uiso   1.00
