data_job_02691
_audit_creation_date              2018-12-19
_audit_creation_method            'Materials Studio'
_symmetry_space_group_name_H-M    'P1'
_symmetry_Int_Tables_number       1
_symmetry_cell_setting            triclinic
loop_
_symmetry_equiv_pos_as_xyz
  x,y,z
_cell_length_a                    17.5620
_cell_length_b                    17.5620
_cell_length_c                    16.8200
_cell_angle_alpha                 90.0000
_cell_angle_beta                  90.0000
_cell_angle_gamma                 90.0000
loop_
_atom_site_label
_atom_site_type_symbol
_atom_site_fract_x
_atom_site_fract_y
_atom_site_fract_z
_atom_site_U_iso_or_equiv
_atom_site_adp_type
_atom_site_occupancy
C1     C     0.76599   0.99735   0.11088   0.00000  Uiso   1.00
C2     C     0.70957   0.03549   0.16712   0.00000  Uiso   1.00
C3     C     0.72613   0.06320   0.24243   0.00000  Uiso   1.00
C4     C     0.66662   0.09611   0.28453   0.00000  Uiso   1.00
C5     C     0.59017   0.15454   0.37676   0.00000  Uiso   1.00
C6     C     0.73224   0.91964   0.09104   0.00000  Uiso   1.00
C7     C     0.76787   0.84994   0.10238   0.00000  Uiso   1.00
C8     C     0.72745   0.78533   0.08043   0.00000  Uiso   1.00
C9     C     0.68621   0.66390   0.05450   0.00000  Uiso   1.00
C10    C     0.76357   0.04321   0.03394   0.00000  Uiso   1.00
C11    C     0.82554   0.07740   0.99725   0.00000  Uiso   1.00
C12    C     0.81151   0.11682   0.92720   0.00000  Uiso   1.00
C13    C     0.81891   0.18725   0.81261   0.00000  Uiso   1.00
C14    C     0.63086   0.00654   0.05173   0.00000  Uiso   1.00
C15    C     0.63617   0.04048   0.13499   0.00000  Uiso   1.00
C16    C     0.57663   0.07336   0.17698   0.00000  Uiso   1.00
C17    C     0.59310   0.10111   0.25234   0.00000  Uiso   1.00
C18    C     0.65884   0.92463   0.05892   0.00000  Uiso   1.00
C19    C     0.61836   0.86010   0.03694   0.00000  Uiso   1.00
C20    C     0.65392   0.79033   0.04824   0.00000  Uiso   1.00
C21    C     0.69017   0.04820   0.00181   0.00000  Uiso   1.00
C22    C     0.67604   0.08757   0.93180   0.00000  Uiso   1.00
C23    C     0.73798   0.12181   0.89502   0.00000  Uiso   1.00
H24    H     0.82313   0.99346   0.13589   0.00000  Uiso   1.00
H25    H     0.78294   0.05932   0.26728   0.00000  Uiso   1.00
H26    H     0.82467   0.84610   0.12724   0.00000  Uiso   1.00
H27    H     0.88233   0.07353   0.02213   0.00000  Uiso   1.00
H28    H     0.70599   0.13451   0.39878   0.00000  Uiso   1.00
H29    H     0.79400   0.68492   0.10349   0.00000  Uiso   1.00
H30    H     0.91560   0.16450   0.88183   0.00000  Uiso   1.00
H31    H     0.57372   0.01042   0.02671   0.00000  Uiso   1.00
H32    H     0.51983   0.07721   0.15210   0.00000  Uiso   1.00
H33    H     0.56157   0.86399   0.01207   0.00000  Uiso   1.00
H34    H     0.61923   0.09141   0.90696   0.00000  Uiso   1.00
H35    H     0.49245   0.14903   0.30531   0.00000  Uiso   1.00
H36    H     0.58046   0.69944   0.01001   0.00000  Uiso   1.00
H37    H     0.70206   0.17901   0.78835   0.00000  Uiso   1.00
O38    O     0.56827   0.18538   0.43651   0.00000  Uiso   1.00
O39    O     0.68374   0.59554   0.04908   0.00000  Uiso   1.00
O40    O     0.84327   0.22473   0.75828   0.00000  Uiso   1.00
N41    N     0.66313   0.12878   0.35957   0.00000  Uiso   1.00
N42    N     0.74541   0.70844   0.08350   0.00000  Uiso   1.00
N43    N     0.85910   0.15678   0.87625   0.00000  Uiso   1.00
N44    N     0.54823   0.13659   0.30927   0.00000  Uiso   1.00
N45    N     0.63050   0.71625   0.03320   0.00000  Uiso   1.00
N46    N     0.74420   0.16459   0.82595   0.00000  Uiso   1.00
C47    C     0.26599   0.49735   0.61088   0.00000  Uiso   1.00
C48    C     0.20957   0.53549   0.66712   0.00000  Uiso   1.00
C49    C     0.22613   0.56320   0.74243   0.00000  Uiso   1.00
C50    C     0.16662   0.59611   0.78453   0.00000  Uiso   1.00
C51    C     0.09017   0.65454   0.87676   0.00000  Uiso   1.00
C52    C     0.23224   0.41964   0.59104   0.00000  Uiso   1.00
C53    C     0.26787   0.34994   0.60238   0.00000  Uiso   1.00
C54    C     0.22745   0.28533   0.58043   0.00000  Uiso   1.00
C55    C     0.18621   0.16390   0.55450   0.00000  Uiso   1.00
C56    C     0.26357   0.54321   0.53394   0.00000  Uiso   1.00
C57    C     0.32554   0.57740   0.49725   0.00000  Uiso   1.00
C58    C     0.31151   0.61682   0.42720   0.00000  Uiso   1.00
C59    C     0.31891   0.68725   0.31261   0.00000  Uiso   1.00
C60    C     0.13086   0.50654   0.55173   0.00000  Uiso   1.00
C61    C     0.13617   0.54048   0.63499   0.00000  Uiso   1.00
C62    C     0.07663   0.57336   0.67698   0.00000  Uiso   1.00
C63    C     0.09310   0.60111   0.75234   0.00000  Uiso   1.00
C64    C     0.15884   0.42463   0.55892   0.00000  Uiso   1.00
C65    C     0.11836   0.36010   0.53694   0.00000  Uiso   1.00
C66    C     0.15392   0.29033   0.54824   0.00000  Uiso   1.00
C67    C     0.19017   0.54820   0.50181   0.00000  Uiso   1.00
C68    C     0.17604   0.58757   0.43180   0.00000  Uiso   1.00
C69    C     0.23798   0.62181   0.39502   0.00000  Uiso   1.00
H70    H     0.32313   0.49346   0.63589   0.00000  Uiso   1.00
H71    H     0.28294   0.55932   0.76728   0.00000  Uiso   1.00
H72    H     0.32467   0.34610   0.62724   0.00000  Uiso   1.00
H73    H     0.38233   0.57353   0.52213   0.00000  Uiso   1.00
H74    H     0.20599   0.63451   0.89878   0.00000  Uiso   1.00
H75    H     0.29400   0.18492   0.60349   0.00000  Uiso   1.00
H76    H     0.41560   0.66450   0.38183   0.00000  Uiso   1.00
H77    H     0.07372   0.51042   0.52671   0.00000  Uiso   1.00
H78    H     0.01983   0.57721   0.65210   0.00000  Uiso   1.00
H79    H     0.06157   0.36399   0.51207   0.00000  Uiso   1.00
H80    H     0.11923   0.59141   0.40696   0.00000  Uiso   1.00
H81    H     0.99245   0.64903   0.80531   0.00000  Uiso   1.00
H82    H     0.08046   0.19944   0.51001   0.00000  Uiso   1.00
H83    H     0.20206   0.67901   0.28835   0.00000  Uiso   1.00
O84    O     0.06827   0.68538   0.93651   0.00000  Uiso   1.00
O85    O     0.18374   0.09554   0.54908   0.00000  Uiso   1.00
O86    O     0.34327   0.72473   0.25828   0.00000  Uiso   1.00
N87    N     0.16313   0.62878   0.85957   0.00000  Uiso   1.00
N88    N     0.24541   0.20844   0.58350   0.00000  Uiso   1.00
N89    N     0.35910   0.65678   0.37625   0.00000  Uiso   1.00
N90    N     0.04823   0.63659   0.80927   0.00000  Uiso   1.00
N91    N     0.13050   0.21625   0.53320   0.00000  Uiso   1.00
N92    N     0.24420   0.66459   0.32595   0.00000  Uiso   1.00
C93    C     0.73401   0.50265   0.61088   0.00000  Uiso   1.00
C94    C     0.79043   0.46451   0.66712   0.00000  Uiso   1.00
C95    C     0.77387   0.43680   0.74243   0.00000  Uiso   1.00
C96    C     0.83338   0.40389   0.78453   0.00000  Uiso   1.00
C97    C     0.90983   0.34546   0.87676   0.00000  Uiso   1.00
C98    C     0.76776   0.58036   0.59104   0.00000  Uiso   1.00
C99    C     0.73213   0.65006   0.60238   0.00000  Uiso   1.00
C100   C     0.77255   0.71467   0.58043   0.00000  Uiso   1.00
C101   C     0.81379   0.83610   0.55450   0.00000  Uiso   1.00
C102   C     0.73643   0.45679   0.53394   0.00000  Uiso   1.00
C103   C     0.67446   0.42260   0.49725   0.00000  Uiso   1.00
C104   C     0.68849   0.38318   0.42720   0.00000  Uiso   1.00
C105   C     0.68109   0.31275   0.31261   0.00000  Uiso   1.00
C106   C     0.86914   0.49346   0.55173   0.00000  Uiso   1.00
C107   C     0.86383   0.45952   0.63499   0.00000  Uiso   1.00
C108   C     0.92337   0.42664   0.67698   0.00000  Uiso   1.00
C109   C     0.90690   0.39889   0.75234   0.00000  Uiso   1.00
C110   C     0.84116   0.57537   0.55892   0.00000  Uiso   1.00
C111   C     0.88164   0.63990   0.53694   0.00000  Uiso   1.00
C112   C     0.84608   0.70967   0.54824   0.00000  Uiso   1.00
C113   C     0.80983   0.45180   0.50181   0.00000  Uiso   1.00
C114   C     0.82396   0.41243   0.43180   0.00000  Uiso   1.00
C115   C     0.76202   0.37819   0.39502   0.00000  Uiso   1.00
H116   H     0.67687   0.50654   0.63589   0.00000  Uiso   1.00
H117   H     0.71706   0.44068   0.76728   0.00000  Uiso   1.00
H118   H     0.67533   0.65390   0.62724   0.00000  Uiso   1.00
H119   H     0.61767   0.42647   0.52213   0.00000  Uiso   1.00
H120   H     0.79401   0.36549   0.89878   0.00000  Uiso   1.00
H121   H     0.70600   0.81508   0.60349   0.00000  Uiso   1.00
H122   H     0.58440   0.33550   0.38183   0.00000  Uiso   1.00
H123   H     0.92628   0.48958   0.52671   0.00000  Uiso   1.00
H124   H     0.98017   0.42279   0.65210   0.00000  Uiso   1.00
H125   H     0.93843   0.63601   0.51207   0.00000  Uiso   1.00
H126   H     0.88077   0.40859   0.40696   0.00000  Uiso   1.00
H127   H     0.00755   0.35097   0.80531   0.00000  Uiso   1.00
H128   H     0.91954   0.80056   0.51001   0.00000  Uiso   1.00
H129   H     0.79794   0.32099   0.28835   0.00000  Uiso   1.00
O130   O     0.93173   0.31462   0.93651   0.00000  Uiso   1.00
O131   O     0.81626   0.90446   0.54908   0.00000  Uiso   1.00
O132   O     0.65673   0.27527   0.25828   0.00000  Uiso   1.00
N133   N     0.83687   0.37122   0.85957   0.00000  Uiso   1.00
N134   N     0.75459   0.79156   0.58350   0.00000  Uiso   1.00
N135   N     0.64090   0.34322   0.37625   0.00000  Uiso   1.00
N136   N     0.95177   0.36341   0.80927   0.00000  Uiso   1.00
N137   N     0.86950   0.78375   0.53320   0.00000  Uiso   1.00
N138   N     0.75580   0.33541   0.32595   0.00000  Uiso   1.00
C139   C     0.23401   0.00265   0.11088   0.00000  Uiso   1.00
C140   C     0.29043   0.96451   0.16712   0.00000  Uiso   1.00
C141   C     0.27387   0.93680   0.24243   0.00000  Uiso   1.00
C142   C     0.33338   0.90389   0.28453   0.00000  Uiso   1.00
C143   C     0.40983   0.84546   0.37676   0.00000  Uiso   1.00
C144   C     0.26776   0.08036   0.09104   0.00000  Uiso   1.00
C145   C     0.23213   0.15006   0.10238   0.00000  Uiso   1.00
C146   C     0.27255   0.21467   0.08043   0.00000  Uiso   1.00
C147   C     0.31379   0.33610   0.05450   0.00000  Uiso   1.00
C148   C     0.23643   0.95679   0.03394   0.00000  Uiso   1.00
C149   C     0.17446   0.92260   0.99725   0.00000  Uiso   1.00
C150   C     0.18849   0.88318   0.92720   0.00000  Uiso   1.00
C151   C     0.18109   0.81275   0.81261   0.00000  Uiso   1.00
C152   C     0.36914   0.99346   0.05173   0.00000  Uiso   1.00
C153   C     0.36383   0.95952   0.13499   0.00000  Uiso   1.00
C154   C     0.42337   0.92664   0.17698   0.00000  Uiso   1.00
C155   C     0.40690   0.89889   0.25234   0.00000  Uiso   1.00
C156   C     0.34116   0.07537   0.05892   0.00000  Uiso   1.00
C157   C     0.38164   0.13990   0.03694   0.00000  Uiso   1.00
C158   C     0.34608   0.20967   0.04824   0.00000  Uiso   1.00
C159   C     0.30983   0.95180   0.00181   0.00000  Uiso   1.00
C160   C     0.32396   0.91243   0.93180   0.00000  Uiso   1.00
C161   C     0.26202   0.87819   0.89502   0.00000  Uiso   1.00
H162   H     0.17687   0.00654   0.13589   0.00000  Uiso   1.00
H163   H     0.21706   0.94068   0.26728   0.00000  Uiso   1.00
H164   H     0.17533   0.15390   0.12724   0.00000  Uiso   1.00
H165   H     0.11767   0.92647   0.02213   0.00000  Uiso   1.00
H166   H     0.29401   0.86549   0.39878   0.00000  Uiso   1.00
H167   H     0.20600   0.31508   0.10349   0.00000  Uiso   1.00
H168   H     0.08440   0.83550   0.88183   0.00000  Uiso   1.00
H169   H     0.42628   0.98958   0.02671   0.00000  Uiso   1.00
H170   H     0.48017   0.92279   0.15210   0.00000  Uiso   1.00
H171   H     0.43843   0.13601   0.01207   0.00000  Uiso   1.00
H172   H     0.38077   0.90859   0.90696   0.00000  Uiso   1.00
H173   H     0.50755   0.85097   0.30531   0.00000  Uiso   1.00
H174   H     0.41954   0.30056   0.01001   0.00000  Uiso   1.00
H175   H     0.29794   0.82099   0.78835   0.00000  Uiso   1.00
O176   O     0.43173   0.81462   0.43651   0.00000  Uiso   1.00
O177   O     0.31626   0.40446   0.04908   0.00000  Uiso   1.00
O178   O     0.15673   0.77527   0.75828   0.00000  Uiso   1.00
N179   N     0.33687   0.87122   0.35957   0.00000  Uiso   1.00
N180   N     0.25459   0.29156   0.08350   0.00000  Uiso   1.00
N181   N     0.14090   0.84322   0.87625   0.00000  Uiso   1.00
N182   N     0.45177   0.86341   0.30927   0.00000  Uiso   1.00
N183   N     0.36950   0.28375   0.03320   0.00000  Uiso   1.00
N184   N     0.25580   0.83541   0.82595   0.00000  Uiso   1.00
C185   C     0.00265   0.26599   0.36088   0.00000  Uiso   1.00
C186   C     0.96451   0.20957   0.41712   0.00000  Uiso   1.00
C187   C     0.93680   0.22613   0.49243   0.00000  Uiso   1.00
C188   C     0.90389   0.16662   0.53453   0.00000  Uiso   1.00
C189   C     0.84546   0.09017   0.62676   0.00000  Uiso   1.00
C190   C     0.08036   0.23224   0.34104   0.00000  Uiso   1.00
C191   C     0.15006   0.26787   0.35238   0.00000  Uiso   1.00
C192   C     0.21467   0.22745   0.33043   0.00000  Uiso   1.00
C193   C     0.33610   0.18621   0.30450   0.00000  Uiso   1.00
C194   C     0.95679   0.26357   0.28394   0.00000  Uiso   1.00
C195   C     0.92260   0.32554   0.24725   0.00000  Uiso   1.00
C196   C     0.88318   0.31151   0.17720   0.00000  Uiso   1.00
C197   C     0.81275   0.31891   0.06261   0.00000  Uiso   1.00
C198   C     0.99346   0.13086   0.30173   0.00000  Uiso   1.00
C199   C     0.95952   0.13617   0.38499   0.00000  Uiso   1.00
C200   C     0.92664   0.07663   0.42698   0.00000  Uiso   1.00
C201   C     0.89889   0.09310   0.50234   0.00000  Uiso   1.00
C202   C     0.07537   0.15884   0.30892   0.00000  Uiso   1.00
C203   C     0.13990   0.11836   0.28694   0.00000  Uiso   1.00
C204   C     0.20967   0.15392   0.29824   0.00000  Uiso   1.00
C205   C     0.95180   0.19017   0.25181   0.00000  Uiso   1.00
C206   C     0.91243   0.17604   0.18180   0.00000  Uiso   1.00
C207   C     0.87819   0.23798   0.14502   0.00000  Uiso   1.00
H208   H     0.00654   0.32313   0.38589   0.00000  Uiso   1.00
H209   H     0.94068   0.28294   0.51728   0.00000  Uiso   1.00
H210   H     0.15390   0.32467   0.37724   0.00000  Uiso   1.00
H211   H     0.92647   0.38233   0.27213   0.00000  Uiso   1.00
H212   H     0.86549   0.20599   0.64878   0.00000  Uiso   1.00
H213   H     0.31508   0.29400   0.35349   0.00000  Uiso   1.00
H214   H     0.83550   0.41560   0.13183   0.00000  Uiso   1.00
H215   H     0.98958   0.07372   0.27671   0.00000  Uiso   1.00
H216   H     0.92279   0.01983   0.40210   0.00000  Uiso   1.00
H217   H     0.13601   0.06157   0.26207   0.00000  Uiso   1.00
H218   H     0.90859   0.11923   0.15696   0.00000  Uiso   1.00
H219   H     0.85097   0.99245   0.55531   0.00000  Uiso   1.00
H220   H     0.30056   0.08046   0.26001   0.00000  Uiso   1.00
H221   H     0.82099   0.20206   0.03835   0.00000  Uiso   1.00
O222   O     0.81462   0.06827   0.68651   0.00000  Uiso   1.00
O223   O     0.40446   0.18374   0.29908   0.00000  Uiso   1.00
O224   O     0.77527   0.34327   0.00828   0.00000  Uiso   1.00
N225   N     0.87122   0.16313   0.60957   0.00000  Uiso   1.00
N226   N     0.29156   0.24541   0.33350   0.00000  Uiso   1.00
N227   N     0.84322   0.35910   0.12625   0.00000  Uiso   1.00
N228   N     0.86341   0.04823   0.55927   0.00000  Uiso   1.00
N229   N     0.28375   0.13050   0.28320   0.00000  Uiso   1.00
N230   N     0.83541   0.24420   0.07595   0.00000  Uiso   1.00
C231   C     0.50265   0.76599   0.86088   0.00000  Uiso   1.00
C232   C     0.46451   0.70957   0.91712   0.00000  Uiso   1.00
C233   C     0.43680   0.72613   0.99243   0.00000  Uiso   1.00
C234   C     0.40389   0.66662   0.03453   0.00000  Uiso   1.00
C235   C     0.34546   0.59017   0.12676   0.00000  Uiso   1.00
C236   C     0.58036   0.73224   0.84104   0.00000  Uiso   1.00
C237   C     0.65006   0.76787   0.85238   0.00000  Uiso   1.00
C238   C     0.71467   0.72745   0.83043   0.00000  Uiso   1.00
C239   C     0.83610   0.68621   0.80450   0.00000  Uiso   1.00
C240   C     0.45679   0.76357   0.78394   0.00000  Uiso   1.00
C241   C     0.42260   0.82554   0.74725   0.00000  Uiso   1.00
C242   C     0.38318   0.81151   0.67720   0.00000  Uiso   1.00
C243   C     0.31275   0.81891   0.56261   0.00000  Uiso   1.00
C244   C     0.49346   0.63086   0.80173   0.00000  Uiso   1.00
C245   C     0.45952   0.63617   0.88499   0.00000  Uiso   1.00
C246   C     0.42664   0.57663   0.92698   0.00000  Uiso   1.00
C247   C     0.39889   0.59310   0.00234   0.00000  Uiso   1.00
C248   C     0.57537   0.65884   0.80892   0.00000  Uiso   1.00
C249   C     0.63990   0.61836   0.78694   0.00000  Uiso   1.00
C250   C     0.70967   0.65392   0.79824   0.00000  Uiso   1.00
C251   C     0.45180   0.69017   0.75181   0.00000  Uiso   1.00
C252   C     0.41243   0.67604   0.68180   0.00000  Uiso   1.00
C253   C     0.37819   0.73798   0.64502   0.00000  Uiso   1.00
H254   H     0.50654   0.82313   0.88589   0.00000  Uiso   1.00
H255   H     0.44068   0.78294   0.01728   0.00000  Uiso   1.00
H256   H     0.65390   0.82467   0.87724   0.00000  Uiso   1.00
H257   H     0.42647   0.88233   0.77213   0.00000  Uiso   1.00
H258   H     0.36549   0.70599   0.14878   0.00000  Uiso   1.00
H259   H     0.81508   0.79400   0.85349   0.00000  Uiso   1.00
H260   H     0.33550   0.91560   0.63183   0.00000  Uiso   1.00
H261   H     0.48958   0.57372   0.77671   0.00000  Uiso   1.00
H262   H     0.42279   0.51983   0.90210   0.00000  Uiso   1.00
H263   H     0.63601   0.56157   0.76207   0.00000  Uiso   1.00
H264   H     0.40859   0.61923   0.65696   0.00000  Uiso   1.00
H265   H     0.35097   0.49245   0.05531   0.00000  Uiso   1.00
H266   H     0.80056   0.58046   0.76001   0.00000  Uiso   1.00
H267   H     0.32099   0.70206   0.53835   0.00000  Uiso   1.00
O268   O     0.31462   0.56827   0.18651   0.00000  Uiso   1.00
O269   O     0.90446   0.68374   0.79908   0.00000  Uiso   1.00
O270   O     0.27527   0.84327   0.50828   0.00000  Uiso   1.00
N271   N     0.37122   0.66313   0.10957   0.00000  Uiso   1.00
N272   N     0.79156   0.74541   0.83350   0.00000  Uiso   1.00
N273   N     0.34322   0.85910   0.62625   0.00000  Uiso   1.00
N274   N     0.36341   0.54823   0.05927   0.00000  Uiso   1.00
N275   N     0.78375   0.63050   0.78320   0.00000  Uiso   1.00
N276   N     0.33541   0.74420   0.57595   0.00000  Uiso   1.00
C277   C     0.49735   0.23401   0.86088   0.00000  Uiso   1.00
C278   C     0.53549   0.29043   0.91712   0.00000  Uiso   1.00
C279   C     0.56320   0.27387   0.99243   0.00000  Uiso   1.00
C280   C     0.59611   0.33338   0.03453   0.00000  Uiso   1.00
C281   C     0.65454   0.40983   0.12676   0.00000  Uiso   1.00
C282   C     0.41964   0.26776   0.84104   0.00000  Uiso   1.00
C283   C     0.34994   0.23213   0.85238   0.00000  Uiso   1.00
C284   C     0.28533   0.27255   0.83043   0.00000  Uiso   1.00
C285   C     0.16390   0.31379   0.80450   0.00000  Uiso   1.00
C286   C     0.54321   0.23643   0.78394   0.00000  Uiso   1.00
C287   C     0.57740   0.17446   0.74725   0.00000  Uiso   1.00
C288   C     0.61682   0.18849   0.67720   0.00000  Uiso   1.00
C289   C     0.68725   0.18109   0.56261   0.00000  Uiso   1.00
C290   C     0.50654   0.36914   0.80173   0.00000  Uiso   1.00
C291   C     0.54048   0.36383   0.88499   0.00000  Uiso   1.00
C292   C     0.57336   0.42337   0.92698   0.00000  Uiso   1.00
C293   C     0.60111   0.40690   0.00234   0.00000  Uiso   1.00
C294   C     0.42463   0.34116   0.80892   0.00000  Uiso   1.00
C295   C     0.36010   0.38164   0.78694   0.00000  Uiso   1.00
C296   C     0.29033   0.34608   0.79824   0.00000  Uiso   1.00
C297   C     0.54820   0.30983   0.75181   0.00000  Uiso   1.00
C298   C     0.58757   0.32396   0.68180   0.00000  Uiso   1.00
C299   C     0.62181   0.26202   0.64502   0.00000  Uiso   1.00
H300   H     0.49346   0.17687   0.88589   0.00000  Uiso   1.00
H301   H     0.55932   0.21706   0.01728   0.00000  Uiso   1.00
H302   H     0.34610   0.17533   0.87724   0.00000  Uiso   1.00
H303   H     0.57353   0.11767   0.77213   0.00000  Uiso   1.00
H304   H     0.63451   0.29401   0.14878   0.00000  Uiso   1.00
H305   H     0.18492   0.20600   0.85349   0.00000  Uiso   1.00
H306   H     0.66450   0.08440   0.63183   0.00000  Uiso   1.00
H307   H     0.51042   0.42628   0.77671   0.00000  Uiso   1.00
H308   H     0.57721   0.48017   0.90210   0.00000  Uiso   1.00
H309   H     0.36399   0.43843   0.76207   0.00000  Uiso   1.00
H310   H     0.59141   0.38077   0.65696   0.00000  Uiso   1.00
H311   H     0.64903   0.50755   0.05531   0.00000  Uiso   1.00
H312   H     0.19944   0.41954   0.76001   0.00000  Uiso   1.00
H313   H     0.67901   0.29794   0.53835   0.00000  Uiso   1.00
O314   O     0.68538   0.43173   0.18651   0.00000  Uiso   1.00
O315   O     0.09554   0.31626   0.79908   0.00000  Uiso   1.00
O316   O     0.72473   0.15673   0.50828   0.00000  Uiso   1.00
N317   N     0.62878   0.33687   0.10957   0.00000  Uiso   1.00
N318   N     0.20844   0.25459   0.83350   0.00000  Uiso   1.00
N319   N     0.65678   0.14090   0.62625   0.00000  Uiso   1.00
N320   N     0.63659   0.45177   0.05927   0.00000  Uiso   1.00
N321   N     0.21625   0.36950   0.78320   0.00000  Uiso   1.00
N322   N     0.66459   0.25580   0.57595   0.00000  Uiso   1.00
C323   C     0.99735   0.73401   0.36088   0.00000  Uiso   1.00
C324   C     0.03549   0.79043   0.41712   0.00000  Uiso   1.00
C325   C     0.06320   0.77387   0.49243   0.00000  Uiso   1.00
C326   C     0.09611   0.83338   0.53453   0.00000  Uiso   1.00
C327   C     0.15454   0.90983   0.62676   0.00000  Uiso   1.00
C328   C     0.91964   0.76776   0.34104   0.00000  Uiso   1.00
C329   C     0.84994   0.73213   0.35238   0.00000  Uiso   1.00
C330   C     0.78533   0.77255   0.33043   0.00000  Uiso   1.00
C331   C     0.66390   0.81379   0.30450   0.00000  Uiso   1.00
C332   C     0.04321   0.73643   0.28394   0.00000  Uiso   1.00
C333   C     0.07740   0.67446   0.24725   0.00000  Uiso   1.00
C334   C     0.11682   0.68849   0.17720   0.00000  Uiso   1.00
C335   C     0.18725   0.68109   0.06261   0.00000  Uiso   1.00
C336   C     0.00654   0.86914   0.30173   0.00000  Uiso   1.00
C337   C     0.04048   0.86383   0.38499   0.00000  Uiso   1.00
C338   C     0.07336   0.92337   0.42698   0.00000  Uiso   1.00
C339   C     0.10111   0.90690   0.50234   0.00000  Uiso   1.00
C340   C     0.92463   0.84116   0.30892   0.00000  Uiso   1.00
C341   C     0.86010   0.88164   0.28694   0.00000  Uiso   1.00
C342   C     0.79033   0.84608   0.29824   0.00000  Uiso   1.00
C343   C     0.04820   0.80983   0.25181   0.00000  Uiso   1.00
C344   C     0.08757   0.82396   0.18180   0.00000  Uiso   1.00
C345   C     0.12181   0.76202   0.14502   0.00000  Uiso   1.00
H346   H     0.99346   0.67687   0.38589   0.00000  Uiso   1.00
H347   H     0.05932   0.71706   0.51728   0.00000  Uiso   1.00
H348   H     0.84610   0.67533   0.37724   0.00000  Uiso   1.00
H349   H     0.07353   0.61767   0.27213   0.00000  Uiso   1.00
H350   H     0.13451   0.79401   0.64878   0.00000  Uiso   1.00
H351   H     0.68492   0.70600   0.35349   0.00000  Uiso   1.00
H352   H     0.16450   0.58440   0.13183   0.00000  Uiso   1.00
H353   H     0.01042   0.92628   0.27671   0.00000  Uiso   1.00
H354   H     0.07721   0.98017   0.40210   0.00000  Uiso   1.00
H355   H     0.86399   0.93843   0.26207   0.00000  Uiso   1.00
H356   H     0.09141   0.88077   0.15696   0.00000  Uiso   1.00
H357   H     0.14903   0.00755   0.55531   0.00000  Uiso   1.00
H358   H     0.69944   0.91954   0.26001   0.00000  Uiso   1.00
H359   H     0.17901   0.79794   0.03835   0.00000  Uiso   1.00
O360   O     0.18538   0.93173   0.68651   0.00000  Uiso   1.00
O361   O     0.59554   0.81626   0.29908   0.00000  Uiso   1.00
O362   O     0.22473   0.65673   0.00828   0.00000  Uiso   1.00
N363   N     0.12878   0.83687   0.60957   0.00000  Uiso   1.00
N364   N     0.70844   0.75459   0.33350   0.00000  Uiso   1.00
N365   N     0.15678   0.64090   0.12625   0.00000  Uiso   1.00
N366   N     0.13659   0.95177   0.55927   0.00000  Uiso   1.00
N367   N     0.71625   0.86950   0.28320   0.00000  Uiso   1.00
N368   N     0.16459   0.75580   0.07595   0.00000  Uiso   1.00
