data_job_01305
_audit_creation_date              2018-12-19
_audit_creation_method            'Materials Studio'
_symmetry_space_group_name_H-M    'P1'
_symmetry_Int_Tables_number       1
_symmetry_cell_setting            triclinic
loop_
_symmetry_equiv_pos_as_xyz
  x,y,z
_cell_length_a                    10.6931
_cell_length_b                    24.5173
_cell_length_c                    9.5667
_cell_angle_alpha                 90.0000
_cell_angle_beta                  101.4002
_cell_angle_gamma                 90.0000
loop_
_atom_site_label
_atom_site_type_symbol
_atom_site_fract_x
_atom_site_fract_y
_atom_site_fract_z
_atom_site_U_iso_or_equiv
_atom_site_adp_type
_atom_site_occupancy
C1     C     0.08815   0.41004   0.20407   0.00000  Uiso   1.00
C2     C     0.17174   0.44442   0.31874   0.00000  Uiso   1.00
C3     C     0.15900   0.50003   0.33904   0.00000  Uiso   1.00
C4     C     0.24496   0.52398   0.44983   0.00000  Uiso   1.00
C5     C     0.36032   0.58203   0.61456   0.00000  Uiso   1.00
C6     C     0.17869   0.38270   0.12083   0.00000  Uiso   1.00
C7     C     0.17178   0.38641   0.97475   0.00000  Uiso   1.00
C8     C     0.26357   0.35839   0.91894   0.00000  Uiso   1.00
C9     C     0.38966   0.32059   0.77642   0.00000  Uiso   1.00
C10    C     0.03416   0.36436   0.28271   0.00000  Uiso   1.00
C11    C     0.90572   0.35264   0.27270   0.00000  Uiso   1.00
C12    C     0.87583   0.30917   0.35316   0.00000  Uiso   1.00
C13    C     0.77751   0.24289   0.46196   0.00000  Uiso   1.00
C14    C     0.26346   0.35366   0.36471   0.00000  Uiso   1.00
C15    C     0.26697   0.41380   0.40599   0.00000  Uiso   1.00
C16    C     0.35296   0.43766   0.51678   0.00000  Uiso   1.00
C17    C     0.34035   0.49330   0.53725   0.00000  Uiso   1.00
C18    C     0.27391   0.35208   0.20809   0.00000  Uiso   1.00
C19    C     0.36574   0.32404   0.15249   0.00000  Uiso   1.00
C20    C     0.35897   0.32771   0.00635   0.00000  Uiso   1.00
C21    C     0.12938   0.33374   0.36997   0.00000  Uiso   1.00
C22    C     0.09968   0.29027   0.45045   0.00000  Uiso   1.00
C23    C     0.97122   0.27849   0.44057   0.00000  Uiso   1.00
H24    H     0.01402   0.43388   0.13612   0.00000  Uiso   1.00
H25    H     0.08531   0.52372   0.27148   0.00000  Uiso   1.00
H26    H     0.09807   0.41011   0.90725   0.00000  Uiso   1.00
H27    H     0.83206   0.37635   0.20516   0.00000  Uiso   1.00
H28    H     0.20636   0.60983   0.46000   0.00000  Uiso   1.00
H29    H     0.23325   0.37026   0.69198   0.00000  Uiso   1.00
H30    H     0.67231   0.29906   0.32019   0.00000  Uiso   1.00
H31    H     0.33760   0.32982   0.43265   0.00000  Uiso   1.00
H32    H     0.42664   0.41396   0.58429   0.00000  Uiso   1.00
H33    H     0.43941   0.30035   0.22004   0.00000  Uiso   1.00
H34    H     0.17340   0.26658   0.51796   0.00000  Uiso   1.00
H35    H     0.48341   0.52074   0.71388   0.00000  Uiso   1.00
H36    H     0.51029   0.28117   0.94585   0.00000  Uiso   1.00
H37    H     0.94936   0.20997   0.57406   0.00000  Uiso   1.00
O38    O     0.39765   0.62251   0.68131   0.00000  Uiso   1.00
O39    O     0.43291   0.30820   0.67369   0.00000  Uiso   1.00
O40    O     0.69697   0.21479   0.49789   0.00000  Uiso   1.00
N41    N     0.25933   0.57731   0.49896   0.00000  Uiso   1.00
N42    N     0.28448   0.35334   0.78091   0.00000  Uiso   1.00
N43    N     0.76005   0.28676   0.36820   0.00000  Uiso   1.00
N44    N     0.40841   0.52937   0.63557   0.00000  Uiso   1.00
N45    N     0.43356   0.30540   0.91752   0.00000  Uiso   1.00
N46    N     0.90912   0.23883   0.50481   0.00000  Uiso   1.00
C47    C     0.91185   0.91004   0.29593   0.00000  Uiso   1.00
C48    C     0.82826   0.94442   0.18126   0.00000  Uiso   1.00
C49    C     0.84100   0.00003   0.16096   0.00000  Uiso   1.00
C50    C     0.75504   0.02398   0.05017   0.00000  Uiso   1.00
C51    C     0.63968   0.08203   0.88544   0.00000  Uiso   1.00
C52    C     0.82131   0.88270   0.37917   0.00000  Uiso   1.00
C53    C     0.82822   0.88641   0.52525   0.00000  Uiso   1.00
C54    C     0.73643   0.85839   0.58106   0.00000  Uiso   1.00
C55    C     0.61034   0.82059   0.72358   0.00000  Uiso   1.00
C56    C     0.96584   0.86436   0.21729   0.00000  Uiso   1.00
C57    C     0.09428   0.85264   0.22730   0.00000  Uiso   1.00
C58    C     0.12417   0.80917   0.14684   0.00000  Uiso   1.00
C59    C     0.22249   0.74289   0.03804   0.00000  Uiso   1.00
C60    C     0.73654   0.85366   0.13529   0.00000  Uiso   1.00
C61    C     0.73303   0.91380   0.09401   0.00000  Uiso   1.00
C62    C     0.64704   0.93766   0.98322   0.00000  Uiso   1.00
C63    C     0.65965   0.99330   0.96275   0.00000  Uiso   1.00
C64    C     0.72609   0.85208   0.29191   0.00000  Uiso   1.00
C65    C     0.63426   0.82404   0.34751   0.00000  Uiso   1.00
C66    C     0.64103   0.82771   0.49365   0.00000  Uiso   1.00
C67    C     0.87062   0.83374   0.13003   0.00000  Uiso   1.00
C68    C     0.90032   0.79027   0.04955   0.00000  Uiso   1.00
C69    C     0.02878   0.77849   0.05943   0.00000  Uiso   1.00
H70    H     0.98598   0.93388   0.36388   0.00000  Uiso   1.00
H71    H     0.91469   0.02372   0.22852   0.00000  Uiso   1.00
H72    H     0.90193   0.91011   0.59275   0.00000  Uiso   1.00
H73    H     0.16794   0.87635   0.29484   0.00000  Uiso   1.00
H74    H     0.79364   0.10983   0.04000   0.00000  Uiso   1.00
H75    H     0.76675   0.87026   0.80802   0.00000  Uiso   1.00
H76    H     0.32769   0.79906   0.17981   0.00000  Uiso   1.00
H77    H     0.66240   0.82982   0.06735   0.00000  Uiso   1.00
H78    H     0.57336   0.91396   0.91571   0.00000  Uiso   1.00
H79    H     0.56059   0.80035   0.27996   0.00000  Uiso   1.00
H80    H     0.82660   0.76658   0.98204   0.00000  Uiso   1.00
H81    H     0.51659   0.02074   0.78612   0.00000  Uiso   1.00
H82    H     0.48971   0.78117   0.55415   0.00000  Uiso   1.00
H83    H     0.05064   0.70997   0.92594   0.00000  Uiso   1.00
O84    O     0.60235   0.12251   0.81869   0.00000  Uiso   1.00
O85    O     0.56709   0.80820   0.82631   0.00000  Uiso   1.00
O86    O     0.30303   0.71479   0.00211   0.00000  Uiso   1.00
N87    N     0.74067   0.07731   0.00104   0.00000  Uiso   1.00
N88    N     0.71552   0.85334   0.71909   0.00000  Uiso   1.00
N89    N     0.23995   0.78676   0.13180   0.00000  Uiso   1.00
N90    N     0.59159   0.02937   0.86443   0.00000  Uiso   1.00
N91    N     0.56644   0.80540   0.58248   0.00000  Uiso   1.00
N92    N     0.09088   0.73883   0.99519   0.00000  Uiso   1.00
C93    C     0.91185   0.58996   0.79593   0.00000  Uiso   1.00
C94    C     0.82826   0.55558   0.68126   0.00000  Uiso   1.00
C95    C     0.84100   0.49997   0.66096   0.00000  Uiso   1.00
C96    C     0.75504   0.47602   0.55017   0.00000  Uiso   1.00
C97    C     0.63968   0.41797   0.38544   0.00000  Uiso   1.00
C98    C     0.82131   0.61730   0.87917   0.00000  Uiso   1.00
C99    C     0.82822   0.61359   0.02525   0.00000  Uiso   1.00
C100   C     0.73643   0.64161   0.08106   0.00000  Uiso   1.00
C101   C     0.61034   0.67941   0.22358   0.00000  Uiso   1.00
C102   C     0.96584   0.63564   0.71729   0.00000  Uiso   1.00
C103   C     0.09428   0.64736   0.72730   0.00000  Uiso   1.00
C104   C     0.12417   0.69083   0.64684   0.00000  Uiso   1.00
C105   C     0.22249   0.75711   0.53804   0.00000  Uiso   1.00
C106   C     0.73654   0.64634   0.63529   0.00000  Uiso   1.00
C107   C     0.73303   0.58620   0.59401   0.00000  Uiso   1.00
C108   C     0.64704   0.56234   0.48322   0.00000  Uiso   1.00
C109   C     0.65965   0.50670   0.46275   0.00000  Uiso   1.00
C110   C     0.72609   0.64792   0.79191   0.00000  Uiso   1.00
C111   C     0.63426   0.67596   0.84751   0.00000  Uiso   1.00
C112   C     0.64103   0.67229   0.99365   0.00000  Uiso   1.00
C113   C     0.87062   0.66626   0.63003   0.00000  Uiso   1.00
C114   C     0.90032   0.70973   0.54955   0.00000  Uiso   1.00
C115   C     0.02878   0.72151   0.55943   0.00000  Uiso   1.00
H116   H     0.98598   0.56612   0.86388   0.00000  Uiso   1.00
H117   H     0.91469   0.47628   0.72852   0.00000  Uiso   1.00
H118   H     0.90193   0.58989   0.09275   0.00000  Uiso   1.00
H119   H     0.16794   0.62365   0.79484   0.00000  Uiso   1.00
H120   H     0.79364   0.39017   0.54000   0.00000  Uiso   1.00
H121   H     0.76675   0.62974   0.30802   0.00000  Uiso   1.00
H122   H     0.32769   0.70094   0.67981   0.00000  Uiso   1.00
H123   H     0.66240   0.67018   0.56735   0.00000  Uiso   1.00
H124   H     0.57336   0.58604   0.41571   0.00000  Uiso   1.00
H125   H     0.56059   0.69965   0.77996   0.00000  Uiso   1.00
H126   H     0.82660   0.73342   0.48204   0.00000  Uiso   1.00
H127   H     0.51659   0.47926   0.28612   0.00000  Uiso   1.00
H128   H     0.48971   0.71883   0.05415   0.00000  Uiso   1.00
H129   H     0.05064   0.79003   0.42594   0.00000  Uiso   1.00
O130   O     0.60235   0.37749   0.31869   0.00000  Uiso   1.00
O131   O     0.56709   0.69180   0.32631   0.00000  Uiso   1.00
O132   O     0.30303   0.78521   0.50211   0.00000  Uiso   1.00
N133   N     0.74067   0.42269   0.50104   0.00000  Uiso   1.00
N134   N     0.71552   0.64666   0.21909   0.00000  Uiso   1.00
N135   N     0.23995   0.71324   0.63180   0.00000  Uiso   1.00
N136   N     0.59159   0.47063   0.36443   0.00000  Uiso   1.00
N137   N     0.56644   0.69460   0.08248   0.00000  Uiso   1.00
N138   N     0.09088   0.76117   0.49519   0.00000  Uiso   1.00
C139   C     0.08815   0.08996   0.70407   0.00000  Uiso   1.00
C140   C     0.17174   0.05558   0.81874   0.00000  Uiso   1.00
C141   C     0.15900   0.99997   0.83904   0.00000  Uiso   1.00
C142   C     0.24496   0.97602   0.94983   0.00000  Uiso   1.00
C143   C     0.36032   0.91797   0.11456   0.00000  Uiso   1.00
C144   C     0.17869   0.11730   0.62083   0.00000  Uiso   1.00
C145   C     0.17178   0.11359   0.47475   0.00000  Uiso   1.00
C146   C     0.26357   0.14161   0.41894   0.00000  Uiso   1.00
C147   C     0.38966   0.17941   0.27642   0.00000  Uiso   1.00
C148   C     0.03416   0.13564   0.78271   0.00000  Uiso   1.00
C149   C     0.90572   0.14736   0.77270   0.00000  Uiso   1.00
C150   C     0.87583   0.19083   0.85316   0.00000  Uiso   1.00
C151   C     0.77751   0.25711   0.96196   0.00000  Uiso   1.00
C152   C     0.26346   0.14634   0.86471   0.00000  Uiso   1.00
C153   C     0.26697   0.08620   0.90599   0.00000  Uiso   1.00
C154   C     0.35296   0.06234   0.01678   0.00000  Uiso   1.00
C155   C     0.34035   0.00670   0.03725   0.00000  Uiso   1.00
C156   C     0.27391   0.14792   0.70809   0.00000  Uiso   1.00
C157   C     0.36574   0.17596   0.65249   0.00000  Uiso   1.00
C158   C     0.35897   0.17229   0.50635   0.00000  Uiso   1.00
C159   C     0.12938   0.16626   0.86997   0.00000  Uiso   1.00
C160   C     0.09968   0.20973   0.95045   0.00000  Uiso   1.00
C161   C     0.97122   0.22151   0.94057   0.00000  Uiso   1.00
H162   H     0.01402   0.06612   0.63612   0.00000  Uiso   1.00
H163   H     0.08531   0.97628   0.77148   0.00000  Uiso   1.00
H164   H     0.09807   0.08989   0.40725   0.00000  Uiso   1.00
H165   H     0.83206   0.12365   0.70516   0.00000  Uiso   1.00
H166   H     0.20636   0.89017   0.96000   0.00000  Uiso   1.00
H167   H     0.23325   0.12974   0.19198   0.00000  Uiso   1.00
H168   H     0.67231   0.20094   0.82019   0.00000  Uiso   1.00
H169   H     0.33760   0.17018   0.93265   0.00000  Uiso   1.00
H170   H     0.42664   0.08604   0.08429   0.00000  Uiso   1.00
H171   H     0.43941   0.19965   0.72004   0.00000  Uiso   1.00
H172   H     0.17340   0.23342   0.01796   0.00000  Uiso   1.00
H173   H     0.48341   0.97926   0.21388   0.00000  Uiso   1.00
H174   H     0.51029   0.21883   0.44585   0.00000  Uiso   1.00
H175   H     0.94936   0.29003   0.07406   0.00000  Uiso   1.00
O176   O     0.39765   0.87749   0.18131   0.00000  Uiso   1.00
O177   O     0.43291   0.19180   0.17369   0.00000  Uiso   1.00
O178   O     0.69697   0.28521   0.99789   0.00000  Uiso   1.00
N179   N     0.25933   0.92269   0.99896   0.00000  Uiso   1.00
N180   N     0.28448   0.14666   0.28091   0.00000  Uiso   1.00
N181   N     0.76005   0.21324   0.86820   0.00000  Uiso   1.00
N182   N     0.40841   0.97063   0.13557   0.00000  Uiso   1.00
N183   N     0.43356   0.19460   0.41752   0.00000  Uiso   1.00
N184   N     0.90912   0.26117   0.00481   0.00000  Uiso   1.00
