data_job_06410
_audit_creation_date              2018-12-19
_audit_creation_method            'Materials Studio'
_symmetry_space_group_name_H-M    'P1'
_symmetry_Int_Tables_number       1
_symmetry_cell_setting            triclinic
loop_
_symmetry_equiv_pos_as_xyz
  x,y,z
_cell_length_a                    7.4171
_cell_length_b                    35.8274
_cell_length_c                    36.0572
_cell_angle_alpha                 119.5200
_cell_angle_beta                  84.9255
_cell_angle_gamma                 88.3736
loop_
_atom_site_label
_atom_site_type_symbol
_atom_site_fract_x
_atom_site_fract_y
_atom_site_fract_z
_atom_site_U_iso_or_equiv
_atom_site_adp_type
_atom_site_occupancy
C1     C     0.41721   0.42688   0.21267   0.00000  Uiso   1.00
C2     C     0.35008   0.41034   0.16889   0.00000  Uiso   1.00
C3     C     0.45910   0.39367   0.12997   0.00000  Uiso   1.00
C4     C     0.37156   0.38027   0.09350   0.00000  Uiso   1.00
C5     C     0.29618   0.35413   0.02515   0.00000  Uiso   1.00
C6     C     0.33347   0.47306   0.24043   0.00000  Uiso   1.00
C7     C     0.42854   0.50914   0.26167   0.00000  Uiso   1.00
C8     C     0.32701   0.54854   0.28543   0.00000  Uiso   1.00
C9     C     0.22584   0.61978   0.32818   0.00000  Uiso   1.00
C10    C     0.32868   0.40123   0.23174   0.00000  Uiso   1.00
C11    C     0.41972   0.37692   0.24569   0.00000  Uiso   1.00
C12    C     0.31416   0.35585   0.26215   0.00000  Uiso   1.00
C13    C     0.20556   0.31556   0.29141   0.00000  Uiso   1.00
C14    C     0.06786   0.43271   0.21712   0.00000  Uiso   1.00
C15    C     0.16032   0.41351   0.17130   0.00000  Uiso   1.00
C16    C     0.07259   0.40012   0.13489   0.00000  Uiso   1.00
C17    C     0.18147   0.38344   0.09592   0.00000  Uiso   1.00
C18    C     0.14372   0.47623   0.24284   0.00000  Uiso   1.00
C19    C     0.04202   0.51559   0.26659   0.00000  Uiso   1.00
C20    C     0.13691   0.55172   0.28785   0.00000  Uiso   1.00
C21    C     0.13893   0.40440   0.23416   0.00000  Uiso   1.00
C22    C     0.03321   0.38337   0.25060   0.00000  Uiso   1.00
C23    C     0.12406   0.35903   0.26457   0.00000  Uiso   1.00
H24    H     0.56494   0.42441   0.21079   0.00000  Uiso   1.00
H25    H     0.60595   0.39123   0.12811   0.00000  Uiso   1.00
H26    H     0.57538   0.50668   0.25980   0.00000  Uiso   1.00
H27    H     0.56656   0.37448   0.24382   0.00000  Uiso   1.00
H28    H     0.56773   0.35585   0.03752   0.00000  Uiso   1.00
H29    H     0.50328   0.59928   0.31519   0.00000  Uiso   1.00
H30    H     0.48469   0.32050   0.28149   0.00000  Uiso   1.00
H31    H     0.92012   0.43518   0.21900   0.00000  Uiso   1.00
H32    H     0.92574   0.40258   0.13677   0.00000  Uiso   1.00
H33    H     0.89518   0.51803   0.26845   0.00000  Uiso   1.00
H34    H     0.88637   0.38583   0.25247   0.00000  Uiso   1.00
H35    H     0.01565   0.36507   0.04454   0.00000  Uiso   1.00
H36    H     0.95121   0.60849   0.32221   0.00000  Uiso   1.00
H37    H     0.93261   0.32972   0.28851   0.00000  Uiso   1.00
O38    O     0.30703   0.33883   0.98679   0.00000  Uiso   1.00
O39    O     0.22247   0.65820   0.35109   0.00000  Uiso   1.00
O40    O     0.19808   0.29246   0.30687   0.00000  Uiso   1.00
N41    N     0.43703   0.36248   0.05045   0.00000  Uiso   1.00
N42    N     0.37677   0.59007   0.31005   0.00000  Uiso   1.00
N43    N     0.35939   0.32946   0.27856   0.00000  Uiso   1.00
N44    N     0.13996   0.36744   0.05423   0.00000  Uiso   1.00
N45    N     0.07970   0.59503   0.31383   0.00000  Uiso   1.00
N46    N     0.06232   0.33442   0.28234   0.00000  Uiso   1.00
C47    C     0.63516   0.78833   0.21370   0.00000  Uiso   1.00
C48    C     0.52623   0.83177   0.24130   0.00000  Uiso   1.00
C49    C     0.59844   0.87124   0.26306   0.00000  Uiso   1.00
C50    C     0.47603   0.90726   0.28657   0.00000  Uiso   1.00
C51    C     0.33547   0.97522   0.32918   0.00000  Uiso   1.00
C52    C     0.57364   0.76008   0.23233   0.00000  Uiso   1.00
C53    C     0.68572   0.73927   0.24653   0.00000  Uiso   1.00
C54    C     0.60322   0.71493   0.26248   0.00000  Uiso   1.00
C55    C     0.53629   0.67156   0.29114   0.00000  Uiso   1.00
C56    C     0.56863   0.76889   0.16959   0.00000  Uiso   1.00
C57    C     0.67650   0.75546   0.13105   0.00000  Uiso   1.00
C58    C     0.58978   0.73853   0.09417   0.00000  Uiso   1.00
C59    C     0.51506   0.70883   0.02542   0.00000  Uiso   1.00
C60    C     0.28937   0.78212   0.21677   0.00000  Uiso   1.00
C61    C     0.33841   0.82840   0.24296   0.00000  Uiso   1.00
C62    C     0.21586   0.86437   0.26645   0.00000  Uiso   1.00
C63    C     0.28788   0.90388   0.28823   0.00000  Uiso   1.00
C64    C     0.38583   0.75671   0.23399   0.00000  Uiso   1.00
C65    C     0.30315   0.73239   0.24992   0.00000  Uiso   1.00
C66    C     0.41507   0.71155   0.26415   0.00000  Uiso   1.00
C67    C     0.38081   0.76551   0.17126   0.00000  Uiso   1.00
C68    C     0.29392   0.74859   0.13444   0.00000  Uiso   1.00
C69    C     0.40162   0.73514   0.09584   0.00000  Uiso   1.00
H70    H     0.78138   0.79096   0.21241   0.00000  Uiso   1.00
H71    H     0.74380   0.87384   0.26176   0.00000  Uiso   1.00
H72    H     0.83107   0.74188   0.24524   0.00000  Uiso   1.00
H73    H     0.82183   0.75808   0.12977   0.00000  Uiso   1.00
H74    H     0.61930   0.96424   0.31723   0.00000  Uiso   1.00
H75    H     0.80332   0.68599   0.28237   0.00000  Uiso   1.00
H76    H     0.78386   0.72014   0.03888   0.00000  Uiso   1.00
H77    H     0.14314   0.77949   0.21807   0.00000  Uiso   1.00
H78    H     0.07053   0.86174   0.26773   0.00000  Uiso   1.00
H79    H     0.15780   0.72978   0.25120   0.00000  Uiso   1.00
H80    H     0.14857   0.74598   0.13574   0.00000  Uiso   1.00
H81    H     0.07285   0.95442   0.32207   0.00000  Uiso   1.00
H82    H     0.25688   0.67616   0.28721   0.00000  Uiso   1.00
H83    H     0.23741   0.71032   0.04373   0.00000  Uiso   1.00
O84    O     0.30983   0.01364   0.35223   0.00000  Uiso   1.00
O85    O     0.55126   0.64858   0.30648   0.00000  Uiso   1.00
O86    O     0.52573   0.69339   0.98704   0.00000  Uiso   1.00
N87    N     0.50066   0.95064   0.31154   0.00000  Uiso   1.00
N88    N     0.67270   0.69050   0.27896   0.00000  Uiso   1.00
N89    N     0.65452   0.72241   0.05132   0.00000  Uiso   1.00
N90    N     0.20662   0.94536   0.31415   0.00000  Uiso   1.00
N91    N     0.37866   0.68521   0.28156   0.00000  Uiso   1.00
N92    N     0.36047   0.71713   0.05392   0.00000  Uiso   1.00
C93    C     0.85288   0.78738   0.57365   0.00000  Uiso   1.00
C94    C     0.76633   0.75917   0.58982   0.00000  Uiso   1.00
C95    C     0.85565   0.73771   0.60700   0.00000  Uiso   1.00
C96    C     0.75240   0.71353   0.61994   0.00000  Uiso   1.00
C97    C     0.64631   0.67011   0.64566   0.00000  Uiso   1.00
C98    C     0.81324   0.76852   0.52726   0.00000  Uiso   1.00
C99    C     0.94200   0.75494   0.49183   0.00000  Uiso   1.00
C100   C     0.87824   0.73863   0.45210   0.00000  Uiso   1.00
C101   C     0.84496   0.70976   0.38069   0.00000  Uiso   1.00
C102   C     0.74458   0.83115   0.59868   0.00000  Uiso   1.00
C103   C     0.81561   0.87024   0.62329   0.00000  Uiso   1.00
C104   C     0.69404   0.90668   0.64369   0.00000  Uiso   1.00
C105   C     0.55415   0.97505   0.68317   0.00000  Uiso   1.00
C106   C     0.51069   0.78258   0.56609   0.00000  Uiso   1.00
C107   C     0.58047   0.75656   0.58572   0.00000  Uiso   1.00
C108   C     0.47706   0.73241   0.59864   0.00000  Uiso   1.00
C109   C     0.56621   0.71093   0.61583   0.00000  Uiso   1.00
C110   C     0.62738   0.76591   0.52315   0.00000  Uiso   1.00
C111   C     0.56341   0.74963   0.48347   0.00000  Uiso   1.00
C112   C     0.69204   0.73602   0.44799   0.00000  Uiso   1.00
C113   C     0.55871   0.82855   0.59457   0.00000  Uiso   1.00
C114   C     0.43701   0.86493   0.61493   0.00000  Uiso   1.00
C115   C     0.50784   0.90407   0.63957   0.00000  Uiso   1.00
H116   H     0.99758   0.78940   0.57684   0.00000  Uiso   1.00
H117   H     0.99949   0.73973   0.61017   0.00000  Uiso   1.00
H118   H     0.08582   0.75696   0.49502   0.00000  Uiso   1.00
H119   H     0.95944   0.87224   0.62646   0.00000  Uiso   1.00
H120   H     0.91965   0.68351   0.64529   0.00000  Uiso   1.00
H121   H     0.10169   0.71984   0.40249   0.00000  Uiso   1.00
H122   H     0.83520   0.96294   0.67966   0.00000  Uiso   1.00
H123   H     0.36599   0.78056   0.56289   0.00000  Uiso   1.00
H124   H     0.33323   0.73040   0.59546   0.00000  Uiso   1.00
H125   H     0.41957   0.74762   0.48031   0.00000  Uiso   1.00
H126   H     0.29319   0.86291   0.61175   0.00000  Uiso   1.00
H127   H     0.37889   0.67593   0.63335   0.00000  Uiso   1.00
H128   H     0.56094   0.71226   0.39055   0.00000  Uiso   1.00
H129   H     0.29444   0.95536   0.66772   0.00000  Uiso   1.00
O130   O     0.63914   0.64687   0.66098   0.00000  Uiso   1.00
O131   O     0.87796   0.69455   0.34244   0.00000  Uiso   1.00
O132   O     0.52833   0.01349   0.70608   0.00000  Uiso   1.00
N133   N     0.79687   0.68861   0.63802   0.00000  Uiso   1.00
N134   N     0.96707   0.72257   0.41102   0.00000  Uiso   1.00
N135   N     0.71793   0.94985   0.67014   0.00000  Uiso   1.00
N136   N     0.50589   0.68454   0.63160   0.00000  Uiso   1.00
N137   N     0.67609   0.71850   0.40459   0.00000  Uiso   1.00
N138   N     0.42695   0.94578   0.66372   0.00000  Uiso   1.00
C139   C     0.12976   0.21432   0.78746   0.00000  Uiso   1.00
C140   C     0.01892   0.24150   0.83123   0.00000  Uiso   1.00
C141   C     0.08908   0.26371   0.87015   0.00000  Uiso   1.00
C142   C     0.96514   0.28672   0.90660   0.00000  Uiso   1.00
C143   C     0.82152   0.32884   0.97492   0.00000  Uiso   1.00
C144   C     0.07377   0.23275   0.75964   0.00000  Uiso   1.00
C145   C     0.19006   0.24760   0.73838   0.00000  Uiso   1.00
C146   C     0.11228   0.26324   0.71456   0.00000  Uiso   1.00
C147   C     0.05384   0.29174   0.67173   0.00000  Uiso   1.00
C148   C     0.06026   0.16965   0.76843   0.00000  Uiso   1.00
C149   C     0.16519   0.13144   0.75454   0.00000  Uiso   1.00
C150   C     0.07604   0.09395   0.73812   0.00000  Uiso   1.00
C151   C     0.99663   0.02447   0.70894   0.00000  Uiso   1.00
C152   C     0.78487   0.21569   0.78297   0.00000  Uiso   1.00
C153   C     0.83159   0.24225   0.82879   0.00000  Uiso   1.00
C154   C     0.70750   0.26523   0.86519   0.00000  Uiso   1.00
C155   C     0.77747   0.28747   0.90416   0.00000  Uiso   1.00
C156   C     0.88644   0.23350   0.75721   0.00000  Uiso   1.00
C157   C     0.80848   0.24912   0.73341   0.00000  Uiso   1.00
C158   C     0.92462   0.26399   0.71212   0.00000  Uiso   1.00
C159   C     0.87292   0.17040   0.76600   0.00000  Uiso   1.00
C160   C     0.78360   0.13296   0.74959   0.00000  Uiso   1.00
C161   C     0.88838   0.09469   0.73568   0.00000  Uiso   1.00
H162   H     0.27561   0.21374   0.78935   0.00000  Uiso   1.00
H163   H     0.23407   0.26313   0.87202   0.00000  Uiso   1.00
H164   H     0.33502   0.24701   0.74026   0.00000  Uiso   1.00
H165   H     0.31015   0.13087   0.75644   0.00000  Uiso   1.00
H166   H     0.10540   0.31823   0.96259   0.00000  Uiso   1.00
H167   H     0.31828   0.28423   0.68477   0.00000  Uiso   1.00
H168   H     0.26584   0.03932   0.71887   0.00000  Uiso   1.00
H169   H     0.63902   0.21627   0.78108   0.00000  Uiso   1.00
H170   H     0.56254   0.26580   0.86329   0.00000  Uiso   1.00
H171   H     0.66351   0.24969   0.73153   0.00000  Uiso   1.00
H172   H     0.63863   0.13355   0.74771   0.00000  Uiso   1.00
H173   H     0.56036   0.32040   0.95551   0.00000  Uiso   1.00
H174   H     0.77325   0.28641   0.67768   0.00000  Uiso   1.00
H175   H     0.72081   0.04150   0.71178   0.00000  Uiso   1.00
O176   O     0.79406   0.35186   0.01328   0.00000  Uiso   1.00
O177   O     0.07336   0.30725   0.64878   0.00000  Uiso   1.00
O178   O     0.00456   0.98594   0.69352   0.00000  Uiso   1.00
N179   N     0.98762   0.31194   0.94964   0.00000  Uiso   1.00
N180   N     0.18665   0.28016   0.68990   0.00000  Uiso   1.00
N181   N     0.13763   0.05119   0.72177   0.00000  Uiso   1.00
N182   N     0.69434   0.31310   0.94583   0.00000  Uiso   1.00
N183   N     0.89337   0.28133   0.68609   0.00000  Uiso   1.00
N184   N     0.84435   0.05236   0.71796   0.00000  Uiso   1.00
C185   C     0.34899   0.57452   0.78630   0.00000  Uiso   1.00
C186   C     0.26764   0.59037   0.75865   0.00000  Uiso   1.00
C187   C     0.36159   0.60809   0.73686   0.00000  Uiso   1.00
C188   C     0.26268   0.62061   0.71330   0.00000  Uiso   1.00
C189   C     0.16471   0.64596   0.67060   0.00000  Uiso   1.00
C190   C     0.30604   0.52770   0.76773   0.00000  Uiso   1.00
C191   C     0.43228   0.49272   0.75358   0.00000  Uiso   1.00
C192   C     0.36568   0.45247   0.73767   0.00000  Uiso   1.00
C193   C     0.32732   0.38053   0.70911   0.00000  Uiso   1.00
C194   C     0.23842   0.59913   0.83040   0.00000  Uiso   1.00
C195   C     0.30779   0.62421   0.86895   0.00000  Uiso   1.00
C196   C     0.18427   0.64409   0.90581   0.00000  Uiso   1.00
C197   C     0.04091   0.68306   0.97454   0.00000  Uiso   1.00
C198   C     0.00627   0.56523   0.78321   0.00000  Uiso   1.00
C199   C     0.08149   0.58533   0.75697   0.00000  Uiso   1.00
C200   C     0.98241   0.59782   0.73345   0.00000  Uiso   1.00
C201   C     0.07620   0.61555   0.71162   0.00000  Uiso   1.00
C202   C     0.11990   0.52265   0.76605   0.00000  Uiso   1.00
C203   C     0.05310   0.48245   0.75017   0.00000  Uiso   1.00
C204   C     0.17920   0.44742   0.73599   0.00000  Uiso   1.00
C205   C     0.05226   0.59409   0.82873   0.00000  Uiso   1.00
C206   C     0.92861   0.61393   0.86553   0.00000  Uiso   1.00
C207   C     0.99778   0.63904   0.90413   0.00000  Uiso   1.00
H208   H     0.49391   0.57845   0.78761   0.00000  Uiso   1.00
H209   H     0.50565   0.61199   0.73816   0.00000  Uiso   1.00
H210   H     0.57632   0.49664   0.75489   0.00000  Uiso   1.00
H211   H     0.45185   0.62810   0.87023   0.00000  Uiso   1.00
H212   H     0.43659   0.64694   0.68259   0.00000  Uiso   1.00
H213   H     0.58559   0.40371   0.71787   0.00000  Uiso   1.00
H214   H     0.32313   0.68093   0.96110   0.00000  Uiso   1.00
H215   H     0.86134   0.56131   0.78191   0.00000  Uiso   1.00
H216   H     0.83836   0.59391   0.73215   0.00000  Uiso   1.00
H217   H     0.90904   0.47856   0.74888   0.00000  Uiso   1.00
H218   H     0.78457   0.61002   0.86422   0.00000  Uiso   1.00
H219   H     0.89499   0.63226   0.67771   0.00000  Uiso   1.00
H220   H     0.04400   0.38903   0.71299   0.00000  Uiso   1.00
H221   H     0.78154   0.66626   0.95622   0.00000  Uiso   1.00
O222   O     0.16210   0.66134   0.64751   0.00000  Uiso   1.00
O223   O     0.35759   0.34224   0.69381   0.00000  Uiso   1.00
O224   O     0.01325   0.70595   0.01292   0.00000  Uiso   1.00
N225   N     0.31227   0.63902   0.68828   0.00000  Uiso   1.00
N226   N     0.45158   0.41161   0.72126   0.00000  Uiso   1.00
N227   N     0.20621   0.67078   0.94866   0.00000  Uiso   1.00
N228   N     0.02084   0.63112   0.68565   0.00000  Uiso   1.00
N229   N     0.16015   0.40372   0.71863   0.00000  Uiso   1.00
N230   N     0.91478   0.66289   0.94604   0.00000  Uiso   1.00
C231   C     0.92650   0.21375   0.42626   0.00000  Uiso   1.00
C232   C     0.85608   0.16940   0.41013   0.00000  Uiso   1.00
C233   C     0.96251   0.13082   0.39302   0.00000  Uiso   1.00
C234   C     0.87218   0.09374   0.38011   0.00000  Uiso   1.00
C235   C     0.79173   0.02466   0.35447   0.00000  Uiso   1.00
C236   C     0.84054   0.24122   0.47264   0.00000  Uiso   1.00
C237   C     0.93393   0.26302   0.50807   0.00000  Uiso   1.00
C238   C     0.83051   0.28639   0.54779   0.00000  Uiso   1.00
C239   C     0.72594   0.32883   0.61918   0.00000  Uiso   1.00
C240   C     0.84322   0.23249   0.40118   0.00000  Uiso   1.00
C241   C     0.93884   0.24698   0.37653   0.00000  Uiso   1.00
C242   C     0.83766   0.26302   0.35608   0.00000  Uiso   1.00
C243   C     0.73724   0.29192   0.31651   0.00000  Uiso   1.00
C244   C     0.57678   0.21648   0.43379   0.00000  Uiso   1.00
C245   C     0.66612   0.17089   0.41422   0.00000  Uiso   1.00
C246   C     0.57560   0.13385   0.40134   0.00000  Uiso   1.00
C247   C     0.68188   0.09522   0.38421   0.00000  Uiso   1.00
C248   C     0.65060   0.24270   0.47673   0.00000  Uiso   1.00
C249   C     0.54701   0.26605   0.51640   0.00000  Uiso   1.00
C250   C     0.64021   0.28788   0.55188   0.00000  Uiso   1.00
C251   C     0.65326   0.23398   0.40526   0.00000  Uiso   1.00
C252   C     0.55192   0.25000   0.38485   0.00000  Uiso   1.00
C253   C     0.64737   0.26451   0.36018   0.00000  Uiso   1.00
H254   H     0.07438   0.21259   0.42308   0.00000  Uiso   1.00
H255   H     0.10952   0.12969   0.38986   0.00000  Uiso   1.00
H256   H     0.08092   0.26187   0.50490   0.00000  Uiso   1.00
H257   H     0.08583   0.24582   0.37337   0.00000  Uiso   1.00
H258   H     0.06470   0.03843   0.35485   0.00000  Uiso   1.00
H259   H     0.00441   0.31715   0.59741   0.00000  Uiso   1.00
H260   H     0.01477   0.28332   0.32006   0.00000  Uiso   1.00
H261   H     0.42889   0.21764   0.43697   0.00000  Uiso   1.00
H262   H     0.42860   0.13501   0.40451   0.00000  Uiso   1.00
H263   H     0.40002   0.26719   0.51955   0.00000  Uiso   1.00
H264   H     0.40493   0.25115   0.38802   0.00000  Uiso   1.00
H265   H     0.51204   0.04275   0.36673   0.00000  Uiso   1.00
H266   H     0.45176   0.32148   0.60930   0.00000  Uiso   1.00
H267   H     0.46211   0.28765   0.33195   0.00000  Uiso   1.00
O268   O     0.79982   0.98615   0.33920   0.00000  Uiso   1.00
O269   O     0.72074   0.35183   0.65743   0.00000  Uiso   1.00
O270   O     0.73433   0.30744   0.29356   0.00000  Uiso   1.00
N271   N     0.93467   0.05079   0.36209   0.00000  Uiso   1.00
N272   N     0.87831   0.31137   0.58887   0.00000  Uiso   1.00
N273   N     0.88799   0.27975   0.32959   0.00000  Uiso   1.00
N274   N     0.63729   0.05311   0.36849   0.00000  Uiso   1.00
N275   N     0.58093   0.31370   0.59527   0.00000  Uiso   1.00
N276   N     0.59061   0.28208   0.33598   0.00000  Uiso   1.00
