data_job_02748
_audit_creation_date              2018-12-19
_audit_creation_method            'Materials Studio'
_symmetry_space_group_name_H-M    'P1'
_symmetry_Int_Tables_number       1
_symmetry_cell_setting            triclinic
loop_
_symmetry_equiv_pos_as_xyz
  x,y,z
_cell_length_a                    10.1937
_cell_length_b                    13.2802
_cell_length_c                    14.7878
_cell_angle_alpha                 98.6814
_cell_angle_beta                  94.2833
_cell_angle_gamma                 81.5955
loop_
_atom_site_label
_atom_site_type_symbol
_atom_site_fract_x
_atom_site_fract_y
_atom_site_fract_z
_atom_site_U_iso_or_equiv
_atom_site_adp_type
_atom_site_occupancy
C1     C     0.86876   0.13867   0.21692   0.00000  Uiso   1.00
C2     C     0.77198   0.17405   0.29285   0.00000  Uiso   1.00
C3     C     0.72637   0.27544   0.32649   0.00000  Uiso   1.00
C4     C     0.63821   0.29180   0.39609   0.00000  Uiso   1.00
C5     C     0.49423   0.35923   0.50875   0.00000  Uiso   1.00
C6     C     0.98412   0.06994   0.25767   0.00000  Uiso   1.00
C7     C     0.11688   0.08379   0.26172   0.00000  Uiso   1.00
C8     C     0.20729   0.01250   0.30169   0.00000  Uiso   1.00
C9     C     0.39267   0.91826   0.35967   0.00000  Uiso   1.00
C10    C     0.79847   0.06837   0.14396   0.00000  Uiso   1.00
C11    C     0.77515   0.08088   0.05238   0.00000  Uiso   1.00
C12    C     0.70929   0.00824   0.99661   0.00000  Uiso   1.00
C13    C     0.60642   0.91156   0.87803   0.00000  Uiso   1.00
C14    C     0.79328   0.98742   0.28070   0.00000  Uiso   1.00
C15    C     0.73099   0.09190   0.32749   0.00000  Uiso   1.00
C16    C     0.64287   0.10810   0.39705   0.00000  Uiso   1.00
C17    C     0.59714   0.20950   0.43079   0.00000  Uiso   1.00
C18    C     0.94313   0.98779   0.29231   0.00000  Uiso   1.00
C19    C     0.03337   0.91646   0.33228   0.00000  Uiso   1.00
C20    C     0.16623   0.93020   0.33639   0.00000  Uiso   1.00
C21    C     0.75747   0.98622   0.17859   0.00000  Uiso   1.00
C22    C     0.69164   0.91354   0.12294   0.00000  Uiso   1.00
C23    C     0.66823   0.92594   0.03131   0.00000  Uiso   1.00
H24    H     0.90068   0.20263   0.18996   0.00000  Uiso   1.00
H25    H     0.75813   0.33899   0.29968   0.00000  Uiso   1.00
H26    H     0.14857   0.14737   0.23490   0.00000  Uiso   1.00
H27    H     0.80689   0.14446   0.02560   0.00000  Uiso   1.00
H28    H     0.58205   0.45395   0.43662   0.00000  Uiso   1.00
H29    H     0.40531   0.04989   0.30001   0.00000  Uiso   1.00
H30    H     0.68483   0.04374   0.85866   0.00000  Uiso   1.00
H31    H     0.76137   0.92346   0.30766   0.00000  Uiso   1.00
H32    H     0.61117   0.04451   0.42384   0.00000  Uiso   1.00
H33    H     0.00161   0.85289   0.35907   0.00000  Uiso   1.00
H34    H     0.65993   0.84998   0.14977   0.00000  Uiso   1.00
H35    H     0.46277   0.21494   0.53740   0.00000  Uiso   1.00
H36    H     0.28604   0.81087   0.40079   0.00000  Uiso   1.00
H37    H     0.56555   0.80473   0.95944   0.00000  Uiso   1.00
O38    O     0.42615   0.41912   0.56133   0.00000  Uiso   1.00
O39    O     0.50625   0.88899   0.38209   0.00000  Uiso   1.00
O40    O     0.56098   0.88093   0.80305   0.00000  Uiso   1.00
N41    N     0.57457   0.38109   0.44438   0.00000  Uiso   1.00
N42    N     0.34427   0.00332   0.31667   0.00000  Uiso   1.00
N43    N     0.67071   0.99756   0.90404   0.00000  Uiso   1.00
N44    N     0.51038   0.25248   0.49861   0.00000  Uiso   1.00
N45    N     0.28009   0.87471   0.37090   0.00000  Uiso   1.00
N46    N     0.60652   0.86895   0.95827   0.00000  Uiso   1.00
C47    C     0.13124   0.86133   0.78308   0.00000  Uiso   1.00
C48    C     0.22802   0.82595   0.70715   0.00000  Uiso   1.00
C49    C     0.27363   0.72456   0.67351   0.00000  Uiso   1.00
C50    C     0.36179   0.70820   0.60391   0.00000  Uiso   1.00
C51    C     0.50577   0.64077   0.49125   0.00000  Uiso   1.00
C52    C     0.01588   0.93006   0.74233   0.00000  Uiso   1.00
C53    C     0.88312   0.91621   0.73828   0.00000  Uiso   1.00
C54    C     0.79271   0.98750   0.69831   0.00000  Uiso   1.00
C55    C     0.60733   0.08174   0.64033   0.00000  Uiso   1.00
C56    C     0.20153   0.93163   0.85604   0.00000  Uiso   1.00
C57    C     0.22485   0.91912   0.94762   0.00000  Uiso   1.00
C58    C     0.29071   0.99176   0.00339   0.00000  Uiso   1.00
C59    C     0.39358   0.08844   0.12197   0.00000  Uiso   1.00
C60    C     0.20672   0.01258   0.71930   0.00000  Uiso   1.00
C61    C     0.26901   0.90810   0.67251   0.00000  Uiso   1.00
C62    C     0.35713   0.89190   0.60295   0.00000  Uiso   1.00
C63    C     0.40286   0.79050   0.56921   0.00000  Uiso   1.00
C64    C     0.05687   0.01221   0.70769   0.00000  Uiso   1.00
C65    C     0.96663   0.08354   0.66772   0.00000  Uiso   1.00
C66    C     0.83377   0.06980   0.66361   0.00000  Uiso   1.00
C67    C     0.24253   0.01378   0.82141   0.00000  Uiso   1.00
C68    C     0.30836   0.08646   0.87706   0.00000  Uiso   1.00
C69    C     0.33177   0.07406   0.96869   0.00000  Uiso   1.00
H70    H     0.09932   0.79737   0.81004   0.00000  Uiso   1.00
H71    H     0.24187   0.66101   0.70032   0.00000  Uiso   1.00
H72    H     0.85143   0.85263   0.76510   0.00000  Uiso   1.00
H73    H     0.19311   0.85554   0.97440   0.00000  Uiso   1.00
H74    H     0.41795   0.54605   0.56338   0.00000  Uiso   1.00
H75    H     0.59469   0.95011   0.69999   0.00000  Uiso   1.00
H76    H     0.31517   0.95626   0.14134   0.00000  Uiso   1.00
H77    H     0.23863   0.07654   0.69234   0.00000  Uiso   1.00
H78    H     0.38883   0.95549   0.57616   0.00000  Uiso   1.00
H79    H     0.99839   0.14711   0.64093   0.00000  Uiso   1.00
H80    H     0.34007   0.15002   0.85023   0.00000  Uiso   1.00
H81    H     0.53723   0.78506   0.46260   0.00000  Uiso   1.00
H82    H     0.71396   0.18913   0.59921   0.00000  Uiso   1.00
H83    H     0.43445   0.19527   0.04056   0.00000  Uiso   1.00
O84    O     0.57385   0.58088   0.43867   0.00000  Uiso   1.00
O85    O     0.49375   0.11101   0.61791   0.00000  Uiso   1.00
O86    O     0.43902   0.11907   0.19695   0.00000  Uiso   1.00
N87    N     0.42543   0.61891   0.55562   0.00000  Uiso   1.00
N88    N     0.65573   0.99668   0.68333   0.00000  Uiso   1.00
N89    N     0.32929   0.00244   0.09596   0.00000  Uiso   1.00
N90    N     0.48962   0.74752   0.50139   0.00000  Uiso   1.00
N91    N     0.71991   0.12529   0.62910   0.00000  Uiso   1.00
N92    N     0.39348   0.13105   0.04173   0.00000  Uiso   1.00
