data_job_01655
_audit_creation_date              2018-12-19
_audit_creation_method            'Materials Studio'
_symmetry_space_group_name_H-M    'P1'
_symmetry_Int_Tables_number       1
_symmetry_cell_setting            triclinic
loop_
_symmetry_equiv_pos_as_xyz
  x,y,z
_cell_length_a                    28.9409
_cell_length_b                    10.1114
_cell_length_c                    27.6440
_cell_angle_alpha                 90.0000
_cell_angle_beta                  162.5541
_cell_angle_gamma                 90.0000
loop_
_atom_site_label
_atom_site_type_symbol
_atom_site_fract_x
_atom_site_fract_y
_atom_site_fract_z
_atom_site_U_iso_or_equiv
_atom_site_adp_type
_atom_site_occupancy
C1     C     0.87560   0.77268   0.27751   0.00000  Uiso   1.00
C2     C     0.81301   0.72708   0.16622   0.00000  Uiso   1.00
C3     C     0.88323   0.63690   0.20560   0.00000  Uiso   1.00
C4     C     0.80752   0.60825   0.08699   0.00000  Uiso   1.00
C5     C     0.73178   0.52846   0.93740   0.00000  Uiso   1.00
C6     C     0.88650   0.92299   0.28545   0.00000  Uiso   1.00
C7     C     0.01852   0.99751   0.42509   0.00000  Uiso   1.00
C8     C     0.00465   0.13378   0.40684   0.00000  Uiso   1.00
C9     C     0.04300   0.35813   0.44237   0.00000  Uiso   1.00
C10    C     0.74958   0.74301   0.18853   0.00000  Uiso   1.00
C11    C     0.76648   0.66624   0.24669   0.00000  Uiso   1.00
C12    C     0.63735   0.65101   0.14686   0.00000  Uiso   1.00
C13    C     0.46311   0.59593   0.03190   0.00000  Uiso   1.00
C14    C     0.61625   0.88217   0.99684   0.00000  Uiso   1.00
C15    C     0.67214   0.78656   0.01377   0.00000  Uiso   1.00
C16    C     0.59629   0.75804   0.89507   0.00000  Uiso   1.00
C17    C     0.66639   0.66783   0.93426   0.00000  Uiso   1.00
C18    C     0.74563   0.98246   0.13301   0.00000  Uiso   1.00
C19    C     0.73157   0.11865   0.11455   0.00000  Uiso   1.00
C20    C     0.86353   0.19336   0.25412   0.00000  Uiso   1.00
C21    C     0.60871   0.80248   0.03608   0.00000  Uiso   1.00
C22    C     0.47953   0.78738   0.93615   0.00000  Uiso   1.00
C23    C     0.49623   0.71060   0.99413   0.00000  Uiso   1.00
H24    H     0.98528   0.72639   0.39621   0.00000  Uiso   1.00
H25    H     0.99226   0.59090   0.32360   0.00000  Uiso   1.00
H26    H     0.12751   0.95146   0.54304   0.00000  Uiso   1.00
H27    H     0.87551   0.62024   0.36467   0.00000  Uiso   1.00
H28    H     0.93790   0.46696   0.17589   0.00000  Uiso   1.00
H29    H     0.22307   0.22721   0.63861   0.00000  Uiso   1.00
H30    H     0.69169   0.52877   0.26247   0.00000  Uiso   1.00
H31    H     0.50657   0.92848   0.87815   0.00000  Uiso   1.00
H32    H     0.48727   0.80408   0.77711   0.00000  Uiso   1.00
H33    H     0.62254   0.16464   0.99656   0.00000  Uiso   1.00
H34    H     0.37054   0.83342   0.81818   0.00000  Uiso   1.00
H35    H     0.52804   0.63999   0.73234   0.00000  Uiso   1.00
H36    H     0.81322   0.40024   0.19506   0.00000  Uiso   1.00
H37    H     0.28183   0.70180   0.81892   0.00000  Uiso   1.00
O38    O     0.72894   0.46803   0.89701   0.00000  Uiso   1.00
O39    O     0.10308   0.46544   0.50408   0.00000  Uiso   1.00
O40    O     0.40591   0.54910   0.01060   0.00000  Uiso   1.00
N41    N     0.84407   0.52474   0.08535   0.00000  Uiso   1.00
N42    N     0.11070   0.23552   0.51797   0.00000  Uiso   1.00
N43    N     0.61391   0.58257   0.16633   0.00000  Uiso   1.00
N44    N     0.62353   0.61784   0.84668   0.00000  Uiso   1.00
N45    N     0.89016   0.32863   0.27930   0.00000  Uiso   1.00
N46    N     0.39337   0.67567   0.92766   0.00000  Uiso   1.00
C47    C     0.12440   0.27268   0.22249   0.00000  Uiso   1.00
C48    C     0.18699   0.22708   0.33378   0.00000  Uiso   1.00
C49    C     0.11677   0.13690   0.29440   0.00000  Uiso   1.00
C50    C     0.19248   0.10825   0.41301   0.00000  Uiso   1.00
C51    C     0.26822   0.02846   0.56260   0.00000  Uiso   1.00
C52    C     0.11350   0.42299   0.21455   0.00000  Uiso   1.00
C53    C     0.98148   0.49751   0.07491   0.00000  Uiso   1.00
C54    C     0.99535   0.63378   0.09316   0.00000  Uiso   1.00
C55    C     0.95700   0.85813   0.05763   0.00000  Uiso   1.00
C56    C     0.25042   0.24301   0.31147   0.00000  Uiso   1.00
C57    C     0.23352   0.16624   0.25331   0.00000  Uiso   1.00
C58    C     0.36265   0.15101   0.35314   0.00000  Uiso   1.00
C59    C     0.53689   0.09593   0.46810   0.00000  Uiso   1.00
C60    C     0.38375   0.38217   0.50316   0.00000  Uiso   1.00
C61    C     0.32786   0.28656   0.48623   0.00000  Uiso   1.00
C62    C     0.40371   0.25804   0.60493   0.00000  Uiso   1.00
C63    C     0.33361   0.16783   0.56574   0.00000  Uiso   1.00
C64    C     0.25437   0.48246   0.36699   0.00000  Uiso   1.00
C65    C     0.26843   0.61865   0.38545   0.00000  Uiso   1.00
C66    C     0.13647   0.69336   0.24588   0.00000  Uiso   1.00
C67    C     0.39129   0.30248   0.46392   0.00000  Uiso   1.00
C68    C     0.52047   0.28738   0.56385   0.00000  Uiso   1.00
C69    C     0.50377   0.21060   0.50587   0.00000  Uiso   1.00
H70    H     0.01472   0.22639   0.10379   0.00000  Uiso   1.00
H71    H     0.00774   0.09090   0.17640   0.00000  Uiso   1.00
H72    H     0.87249   0.45146   0.95696   0.00000  Uiso   1.00
H73    H     0.12449   0.12024   0.13533   0.00000  Uiso   1.00
H74    H     0.06210   0.96696   0.32411   0.00000  Uiso   1.00
H75    H     0.77693   0.72721   0.86139   0.00000  Uiso   1.00
H76    H     0.30831   0.02877   0.23753   0.00000  Uiso   1.00
H77    H     0.49343   0.42848   0.62185   0.00000  Uiso   1.00
H78    H     0.51273   0.30408   0.72289   0.00000  Uiso   1.00
H79    H     0.37746   0.66464   0.50344   0.00000  Uiso   1.00
H80    H     0.62946   0.33342   0.68182   0.00000  Uiso   1.00
H81    H     0.47196   0.13999   0.76766   0.00000  Uiso   1.00
H82    H     0.18678   0.90024   0.30494   0.00000  Uiso   1.00
H83    H     0.71817   0.20180   0.68108   0.00000  Uiso   1.00
O84    O     0.27106   0.96803   0.60299   0.00000  Uiso   1.00
O85    O     0.89692   0.96544   0.99592   0.00000  Uiso   1.00
O86    O     0.59409   0.04910   0.48940   0.00000  Uiso   1.00
N87    N     0.15593   0.02474   0.41465   0.00000  Uiso   1.00
N88    N     0.88930   0.73552   0.98203   0.00000  Uiso   1.00
N89    N     0.38609   0.08257   0.33367   0.00000  Uiso   1.00
N90    N     0.37647   0.11784   0.65332   0.00000  Uiso   1.00
N91    N     0.10984   0.82863   0.22070   0.00000  Uiso   1.00
N92    N     0.60663   0.17567   0.57234   0.00000  Uiso   1.00
C93    C     0.12440   0.22732   0.72249   0.00000  Uiso   1.00
C94    C     0.18699   0.27292   0.83378   0.00000  Uiso   1.00
C95    C     0.11677   0.36310   0.79440   0.00000  Uiso   1.00
C96    C     0.19248   0.39175   0.91301   0.00000  Uiso   1.00
C97    C     0.26822   0.47154   0.06260   0.00000  Uiso   1.00
C98    C     0.11350   0.07701   0.71455   0.00000  Uiso   1.00
C99    C     0.98148   0.00249   0.57491   0.00000  Uiso   1.00
C100   C     0.99535   0.86622   0.59316   0.00000  Uiso   1.00
C101   C     0.95700   0.64187   0.55763   0.00000  Uiso   1.00
C102   C     0.25042   0.25699   0.81147   0.00000  Uiso   1.00
C103   C     0.23352   0.33376   0.75331   0.00000  Uiso   1.00
C104   C     0.36265   0.34899   0.85314   0.00000  Uiso   1.00
C105   C     0.53689   0.40407   0.96810   0.00000  Uiso   1.00
C106   C     0.38375   0.11783   0.00316   0.00000  Uiso   1.00
C107   C     0.32786   0.21344   0.98623   0.00000  Uiso   1.00
C108   C     0.40371   0.24196   0.10493   0.00000  Uiso   1.00
C109   C     0.33361   0.33217   0.06574   0.00000  Uiso   1.00
C110   C     0.25437   0.01754   0.86699   0.00000  Uiso   1.00
C111   C     0.26843   0.88135   0.88545   0.00000  Uiso   1.00
C112   C     0.13647   0.80664   0.74588   0.00000  Uiso   1.00
C113   C     0.39129   0.19752   0.96392   0.00000  Uiso   1.00
C114   C     0.52047   0.21262   0.06385   0.00000  Uiso   1.00
C115   C     0.50377   0.28940   0.00587   0.00000  Uiso   1.00
H116   H     0.01472   0.27361   0.60379   0.00000  Uiso   1.00
H117   H     0.00774   0.40910   0.67640   0.00000  Uiso   1.00
H118   H     0.87249   0.04854   0.45696   0.00000  Uiso   1.00
H119   H     0.12449   0.37976   0.63533   0.00000  Uiso   1.00
H120   H     0.06210   0.53304   0.82411   0.00000  Uiso   1.00
H121   H     0.77693   0.77279   0.36139   0.00000  Uiso   1.00
H122   H     0.30831   0.47123   0.73753   0.00000  Uiso   1.00
H123   H     0.49343   0.07152   0.12185   0.00000  Uiso   1.00
H124   H     0.51273   0.19592   0.22289   0.00000  Uiso   1.00
H125   H     0.37746   0.83536   0.00344   0.00000  Uiso   1.00
H126   H     0.62946   0.16658   0.18182   0.00000  Uiso   1.00
H127   H     0.47196   0.36001   0.26766   0.00000  Uiso   1.00
H128   H     0.18678   0.59976   0.80494   0.00000  Uiso   1.00
H129   H     0.71817   0.29820   0.18108   0.00000  Uiso   1.00
O130   O     0.27106   0.53197   0.10299   0.00000  Uiso   1.00
O131   O     0.89692   0.53456   0.49592   0.00000  Uiso   1.00
O132   O     0.59409   0.45090   0.98940   0.00000  Uiso   1.00
N133   N     0.15593   0.47526   0.91465   0.00000  Uiso   1.00
N134   N     0.88930   0.76448   0.48203   0.00000  Uiso   1.00
N135   N     0.38609   0.41743   0.83367   0.00000  Uiso   1.00
N136   N     0.37647   0.38216   0.15332   0.00000  Uiso   1.00
N137   N     0.10984   0.67137   0.72070   0.00000  Uiso   1.00
N138   N     0.60663   0.32433   0.07234   0.00000  Uiso   1.00
C139   C     0.87560   0.72732   0.77751   0.00000  Uiso   1.00
C140   C     0.81301   0.77292   0.66622   0.00000  Uiso   1.00
C141   C     0.88323   0.86310   0.70560   0.00000  Uiso   1.00
C142   C     0.80752   0.89175   0.58699   0.00000  Uiso   1.00
C143   C     0.73178   0.97154   0.43740   0.00000  Uiso   1.00
C144   C     0.88650   0.57701   0.78545   0.00000  Uiso   1.00
C145   C     0.01852   0.50249   0.92509   0.00000  Uiso   1.00
C146   C     0.00465   0.36622   0.90684   0.00000  Uiso   1.00
C147   C     0.04300   0.14187   0.94237   0.00000  Uiso   1.00
C148   C     0.74958   0.75699   0.68853   0.00000  Uiso   1.00
C149   C     0.76648   0.83376   0.74669   0.00000  Uiso   1.00
C150   C     0.63735   0.84899   0.64686   0.00000  Uiso   1.00
C151   C     0.46311   0.90407   0.53190   0.00000  Uiso   1.00
C152   C     0.61625   0.61783   0.49684   0.00000  Uiso   1.00
C153   C     0.67214   0.71344   0.51377   0.00000  Uiso   1.00
C154   C     0.59629   0.74196   0.39507   0.00000  Uiso   1.00
C155   C     0.66639   0.83217   0.43426   0.00000  Uiso   1.00
C156   C     0.74563   0.51754   0.63301   0.00000  Uiso   1.00
C157   C     0.73157   0.38135   0.61455   0.00000  Uiso   1.00
C158   C     0.86353   0.30664   0.75412   0.00000  Uiso   1.00
C159   C     0.60871   0.69752   0.53608   0.00000  Uiso   1.00
C160   C     0.47953   0.71262   0.43615   0.00000  Uiso   1.00
C161   C     0.49623   0.78940   0.49413   0.00000  Uiso   1.00
H162   H     0.98528   0.77361   0.89621   0.00000  Uiso   1.00
H163   H     0.99226   0.90910   0.82360   0.00000  Uiso   1.00
H164   H     0.12751   0.54854   0.04304   0.00000  Uiso   1.00
H165   H     0.87551   0.87976   0.86467   0.00000  Uiso   1.00
H166   H     0.93790   0.03304   0.67589   0.00000  Uiso   1.00
H167   H     0.22307   0.27279   0.13861   0.00000  Uiso   1.00
H168   H     0.69169   0.97123   0.76247   0.00000  Uiso   1.00
H169   H     0.50657   0.57152   0.37815   0.00000  Uiso   1.00
H170   H     0.48727   0.69592   0.27711   0.00000  Uiso   1.00
H171   H     0.62254   0.33536   0.49656   0.00000  Uiso   1.00
H172   H     0.37054   0.66658   0.31818   0.00000  Uiso   1.00
H173   H     0.52804   0.86001   0.23234   0.00000  Uiso   1.00
H174   H     0.81322   0.09976   0.69506   0.00000  Uiso   1.00
H175   H     0.28183   0.79820   0.31892   0.00000  Uiso   1.00
O176   O     0.72894   0.03197   0.39701   0.00000  Uiso   1.00
O177   O     0.10308   0.03456   0.00408   0.00000  Uiso   1.00
O178   O     0.40591   0.95090   0.51060   0.00000  Uiso   1.00
N179   N     0.84407   0.97526   0.58535   0.00000  Uiso   1.00
N180   N     0.11070   0.26448   0.01797   0.00000  Uiso   1.00
N181   N     0.61391   0.91743   0.66633   0.00000  Uiso   1.00
N182   N     0.62353   0.88216   0.34668   0.00000  Uiso   1.00
N183   N     0.89016   0.17137   0.77930   0.00000  Uiso   1.00
N184   N     0.39337   0.82433   0.42766   0.00000  Uiso   1.00
