data_job_04607
_audit_creation_date              2018-12-19
_audit_creation_method            'Materials Studio'
_symmetry_space_group_name_H-M    'P1'
_symmetry_Int_Tables_number       1
_symmetry_cell_setting            triclinic
loop_
_symmetry_equiv_pos_as_xyz
  x,y,z
_cell_length_a                    12.4209
_cell_length_b                    12.0263
_cell_length_c                    15.5103
_cell_angle_alpha                 90.0000
_cell_angle_beta                  98.0051
_cell_angle_gamma                 90.0000
loop_
_atom_site_label
_atom_site_type_symbol
_atom_site_fract_x
_atom_site_fract_y
_atom_site_fract_z
_atom_site_U_iso_or_equiv
_atom_site_adp_type
_atom_site_occupancy
C1     C     0.71566   0.34211   0.51527   0.00000  Uiso   1.00
C2     C     0.73997   0.28031   0.60164   0.00000  Uiso   1.00
C3     C     0.73483   0.32525   0.68338   0.00000  Uiso   1.00
C4     C     0.76011   0.25506   0.75438   0.00000  Uiso   1.00
C5     C     0.79345   0.17602   0.89008   0.00000  Uiso   1.00
C6     C     0.81715   0.33028   0.47087   0.00000  Uiso   1.00
C7     C     0.87689   0.41724   0.44265   0.00000  Uiso   1.00
C8     C     0.96713   0.38911   0.40357   0.00000  Uiso   1.00
C9     C     0.12025   0.38764   0.33619   0.00000  Uiso   1.00
C10    C     0.62690   0.27557   0.46011   0.00000  Uiso   1.00
C11    C     0.52668   0.31652   0.42282   0.00000  Uiso   1.00
C12    C     0.45676   0.24232   0.37465   0.00000  Uiso   1.00
C13    C     0.31448   0.15590   0.29056   0.00000  Uiso   1.00
C14    C     0.76970   0.13755   0.49602   0.00000  Uiso   1.00
C15    C     0.76932   0.16920   0.59118   0.00000  Uiso   1.00
C16    C     0.79462   0.09893   0.66208   0.00000  Uiso   1.00
C17    C     0.78951   0.14375   0.74391   0.00000  Uiso   1.00
C18    C     0.84650   0.21918   0.46042   0.00000  Uiso   1.00
C19    C     0.93668   0.19091   0.42136   0.00000  Uiso   1.00
C20    C     0.99654   0.27780   0.39309   0.00000  Uiso   1.00
C21    C     0.65625   0.16446   0.44965   0.00000  Uiso   1.00
C22    C     0.58647   0.09019   0.40153   0.00000  Uiso   1.00
C23    C     0.48617   0.13102   0.36417   0.00000  Uiso   1.00
H24    H     0.69281   0.42862   0.52341   0.00000  Uiso   1.00
H25    H     0.71212   0.41124   0.69144   0.00000  Uiso   1.00
H26    H     0.85415   0.50321   0.45075   0.00000  Uiso   1.00
H27    H     0.50400   0.40250   0.43093   0.00000  Uiso   1.00
H28    H     0.74651   0.34299   0.87313   0.00000  Uiso   1.00
H29    H     0.04596   0.53691   0.36559   0.00000  Uiso   1.00
H30    H     0.30760   0.32455   0.32378   0.00000  Uiso   1.00
H31    H     0.79255   0.05105   0.48788   0.00000  Uiso   1.00
H32    H     0.81733   0.01295   0.65397   0.00000  Uiso   1.00
H33    H     0.95936   0.10492   0.41327   0.00000  Uiso   1.00
H34    H     0.60921   0.00421   0.39345   0.00000  Uiso   1.00
H35    H     0.83191   0.01972   0.84271   0.00000  Uiso   1.00
H36    H     0.13136   0.21365   0.33516   0.00000  Uiso   1.00
H37    H     0.39300   0.00128   0.29336   0.00000  Uiso   1.00
O38    O     0.80374   0.16312   0.96782   0.00000  Uiso   1.00
O39    O     0.19660   0.41753   0.30193   0.00000  Uiso   1.00
O40    O     0.22789   0.13892   0.24708   0.00000  Uiso   1.00
N41    N     0.76318   0.27213   0.84318   0.00000  Uiso   1.00
N42    N     0.04317   0.45344   0.36867   0.00000  Uiso   1.00
N43    N     0.35287   0.25491   0.32956   0.00000  Uiso   1.00
N44    N     0.80914   0.09818   0.82681   0.00000  Uiso   1.00
N45    N     0.08912   0.27949   0.35230   0.00000  Uiso   1.00
N46    N     0.39882   0.08096   0.31319   0.00000  Uiso   1.00
C47    C     0.28434   0.34211   0.98473   0.00000  Uiso   1.00
C48    C     0.26003   0.28031   0.89836   0.00000  Uiso   1.00
C49    C     0.26517   0.32525   0.81662   0.00000  Uiso   1.00
C50    C     0.23989   0.25506   0.74562   0.00000  Uiso   1.00
C51    C     0.20655   0.17602   0.60992   0.00000  Uiso   1.00
C52    C     0.18285   0.33028   0.02913   0.00000  Uiso   1.00
C53    C     0.12311   0.41724   0.05735   0.00000  Uiso   1.00
C54    C     0.03287   0.38911   0.09643   0.00000  Uiso   1.00
C55    C     0.87975   0.38764   0.16381   0.00000  Uiso   1.00
C56    C     0.37310   0.27557   0.03989   0.00000  Uiso   1.00
C57    C     0.47332   0.31652   0.07718   0.00000  Uiso   1.00
C58    C     0.54324   0.24232   0.12535   0.00000  Uiso   1.00
C59    C     0.68552   0.15590   0.20944   0.00000  Uiso   1.00
C60    C     0.23030   0.13755   0.00398   0.00000  Uiso   1.00
C61    C     0.23068   0.16920   0.90882   0.00000  Uiso   1.00
C62    C     0.20538   0.09893   0.83792   0.00000  Uiso   1.00
C63    C     0.21049   0.14375   0.75609   0.00000  Uiso   1.00
C64    C     0.15350   0.21918   0.03958   0.00000  Uiso   1.00
C65    C     0.06332   0.19091   0.07864   0.00000  Uiso   1.00
C66    C     0.00346   0.27780   0.10691   0.00000  Uiso   1.00
C67    C     0.34375   0.16446   0.05035   0.00000  Uiso   1.00
C68    C     0.41353   0.09019   0.09847   0.00000  Uiso   1.00
C69    C     0.51383   0.13102   0.13583   0.00000  Uiso   1.00
H70    H     0.30719   0.42862   0.97659   0.00000  Uiso   1.00
H71    H     0.28788   0.41124   0.80856   0.00000  Uiso   1.00
H72    H     0.14585   0.50321   0.04925   0.00000  Uiso   1.00
H73    H     0.49600   0.40250   0.06907   0.00000  Uiso   1.00
H74    H     0.25349   0.34299   0.62687   0.00000  Uiso   1.00
H75    H     0.95404   0.53691   0.13441   0.00000  Uiso   1.00
H76    H     0.69240   0.32455   0.17622   0.00000  Uiso   1.00
H77    H     0.20745   0.05105   0.01212   0.00000  Uiso   1.00
H78    H     0.18267   0.01295   0.84603   0.00000  Uiso   1.00
H79    H     0.04064   0.10492   0.08673   0.00000  Uiso   1.00
H80    H     0.39079   0.00421   0.10655   0.00000  Uiso   1.00
H81    H     0.16809   0.01972   0.65729   0.00000  Uiso   1.00
H82    H     0.86864   0.21365   0.16484   0.00000  Uiso   1.00
H83    H     0.60700   0.00128   0.20664   0.00000  Uiso   1.00
O84    O     0.19626   0.16312   0.53218   0.00000  Uiso   1.00
O85    O     0.80340   0.41753   0.19807   0.00000  Uiso   1.00
O86    O     0.77211   0.13892   0.25292   0.00000  Uiso   1.00
N87    N     0.23682   0.27213   0.65682   0.00000  Uiso   1.00
N88    N     0.95683   0.45344   0.13133   0.00000  Uiso   1.00
N89    N     0.64713   0.25491   0.17044   0.00000  Uiso   1.00
N90    N     0.19086   0.09818   0.67319   0.00000  Uiso   1.00
N91    N     0.91088   0.27949   0.14770   0.00000  Uiso   1.00
N92    N     0.60118   0.08096   0.18681   0.00000  Uiso   1.00
C93    C     0.28434   0.65789   0.48473   0.00000  Uiso   1.00
C94    C     0.26003   0.71969   0.39836   0.00000  Uiso   1.00
C95    C     0.26517   0.67475   0.31662   0.00000  Uiso   1.00
C96    C     0.23989   0.74494   0.24562   0.00000  Uiso   1.00
C97    C     0.20655   0.82398   0.10992   0.00000  Uiso   1.00
C98    C     0.18285   0.66972   0.52913   0.00000  Uiso   1.00
C99    C     0.12311   0.58276   0.55735   0.00000  Uiso   1.00
C100   C     0.03287   0.61089   0.59643   0.00000  Uiso   1.00
C101   C     0.87975   0.61236   0.66381   0.00000  Uiso   1.00
C102   C     0.37310   0.72443   0.53989   0.00000  Uiso   1.00
C103   C     0.47332   0.68348   0.57718   0.00000  Uiso   1.00
C104   C     0.54324   0.75768   0.62535   0.00000  Uiso   1.00
C105   C     0.68552   0.84410   0.70944   0.00000  Uiso   1.00
C106   C     0.23030   0.86245   0.50398   0.00000  Uiso   1.00
C107   C     0.23068   0.83080   0.40882   0.00000  Uiso   1.00
C108   C     0.20538   0.90107   0.33792   0.00000  Uiso   1.00
C109   C     0.21049   0.85625   0.25609   0.00000  Uiso   1.00
C110   C     0.15350   0.78082   0.53958   0.00000  Uiso   1.00
C111   C     0.06332   0.80909   0.57864   0.00000  Uiso   1.00
C112   C     0.00346   0.72220   0.60691   0.00000  Uiso   1.00
C113   C     0.34375   0.83554   0.55035   0.00000  Uiso   1.00
C114   C     0.41353   0.90981   0.59847   0.00000  Uiso   1.00
C115   C     0.51383   0.86898   0.63583   0.00000  Uiso   1.00
H116   H     0.30719   0.57138   0.47659   0.00000  Uiso   1.00
H117   H     0.28788   0.58876   0.30856   0.00000  Uiso   1.00
H118   H     0.14585   0.49679   0.54925   0.00000  Uiso   1.00
H119   H     0.49600   0.59750   0.56907   0.00000  Uiso   1.00
H120   H     0.25349   0.65701   0.12687   0.00000  Uiso   1.00
H121   H     0.95404   0.46309   0.63441   0.00000  Uiso   1.00
H122   H     0.69240   0.67545   0.67622   0.00000  Uiso   1.00
H123   H     0.20745   0.94895   0.51212   0.00000  Uiso   1.00
H124   H     0.18267   0.98705   0.34603   0.00000  Uiso   1.00
H125   H     0.04064   0.89508   0.58673   0.00000  Uiso   1.00
H126   H     0.39079   0.99579   0.60655   0.00000  Uiso   1.00
H127   H     0.16809   0.98028   0.15729   0.00000  Uiso   1.00
H128   H     0.86864   0.78635   0.66484   0.00000  Uiso   1.00
H129   H     0.60700   0.99872   0.70664   0.00000  Uiso   1.00
O130   O     0.19626   0.83688   0.03218   0.00000  Uiso   1.00
O131   O     0.80340   0.58247   0.69807   0.00000  Uiso   1.00
O132   O     0.77211   0.86108   0.75292   0.00000  Uiso   1.00
N133   N     0.23682   0.72787   0.15682   0.00000  Uiso   1.00
N134   N     0.95683   0.54656   0.63133   0.00000  Uiso   1.00
N135   N     0.64713   0.74509   0.67044   0.00000  Uiso   1.00
N136   N     0.19086   0.90182   0.17319   0.00000  Uiso   1.00
N137   N     0.91088   0.72051   0.64770   0.00000  Uiso   1.00
N138   N     0.60118   0.91904   0.68681   0.00000  Uiso   1.00
C139   C     0.71566   0.65789   0.01527   0.00000  Uiso   1.00
C140   C     0.73997   0.71969   0.10164   0.00000  Uiso   1.00
C141   C     0.73483   0.67475   0.18338   0.00000  Uiso   1.00
C142   C     0.76011   0.74494   0.25438   0.00000  Uiso   1.00
C143   C     0.79345   0.82398   0.39008   0.00000  Uiso   1.00
C144   C     0.81715   0.66972   0.97087   0.00000  Uiso   1.00
C145   C     0.87689   0.58276   0.94265   0.00000  Uiso   1.00
C146   C     0.96713   0.61089   0.90357   0.00000  Uiso   1.00
C147   C     0.12025   0.61236   0.83619   0.00000  Uiso   1.00
C148   C     0.62690   0.72443   0.96011   0.00000  Uiso   1.00
C149   C     0.52668   0.68348   0.92282   0.00000  Uiso   1.00
C150   C     0.45676   0.75768   0.87465   0.00000  Uiso   1.00
C151   C     0.31448   0.84410   0.79056   0.00000  Uiso   1.00
C152   C     0.76970   0.86245   0.99602   0.00000  Uiso   1.00
C153   C     0.76932   0.83080   0.09118   0.00000  Uiso   1.00
C154   C     0.79462   0.90107   0.16208   0.00000  Uiso   1.00
C155   C     0.78951   0.85625   0.24391   0.00000  Uiso   1.00
C156   C     0.84650   0.78082   0.96042   0.00000  Uiso   1.00
C157   C     0.93668   0.80909   0.92136   0.00000  Uiso   1.00
C158   C     0.99654   0.72220   0.89309   0.00000  Uiso   1.00
C159   C     0.65625   0.83554   0.94965   0.00000  Uiso   1.00
C160   C     0.58647   0.90981   0.90153   0.00000  Uiso   1.00
C161   C     0.48617   0.86898   0.86417   0.00000  Uiso   1.00
H162   H     0.69281   0.57138   0.02341   0.00000  Uiso   1.00
H163   H     0.71212   0.58876   0.19144   0.00000  Uiso   1.00
H164   H     0.85415   0.49679   0.95075   0.00000  Uiso   1.00
H165   H     0.50400   0.59750   0.93093   0.00000  Uiso   1.00
H166   H     0.74651   0.65701   0.37313   0.00000  Uiso   1.00
H167   H     0.04596   0.46309   0.86559   0.00000  Uiso   1.00
H168   H     0.30760   0.67545   0.82378   0.00000  Uiso   1.00
H169   H     0.79255   0.94895   0.98788   0.00000  Uiso   1.00
H170   H     0.81733   0.98705   0.15397   0.00000  Uiso   1.00
H171   H     0.95936   0.89508   0.91327   0.00000  Uiso   1.00
H172   H     0.60921   0.99579   0.89345   0.00000  Uiso   1.00
H173   H     0.83191   0.98028   0.34271   0.00000  Uiso   1.00
H174   H     0.13136   0.78635   0.83516   0.00000  Uiso   1.00
H175   H     0.39300   0.99872   0.79336   0.00000  Uiso   1.00
O176   O     0.80374   0.83688   0.46782   0.00000  Uiso   1.00
O177   O     0.19660   0.58247   0.80193   0.00000  Uiso   1.00
O178   O     0.22789   0.86108   0.74708   0.00000  Uiso   1.00
N179   N     0.76318   0.72787   0.34318   0.00000  Uiso   1.00
N180   N     0.04317   0.54656   0.86867   0.00000  Uiso   1.00
N181   N     0.35287   0.74509   0.82956   0.00000  Uiso   1.00
N182   N     0.80914   0.90182   0.32681   0.00000  Uiso   1.00
N183   N     0.08912   0.72051   0.85230   0.00000  Uiso   1.00
N184   N     0.39882   0.91904   0.81319   0.00000  Uiso   1.00
