data_job_04100
_audit_creation_date              2018-12-19
_audit_creation_method            'Materials Studio'
_symmetry_space_group_name_H-M    'P1'
_symmetry_Int_Tables_number       1
_symmetry_cell_setting            triclinic
loop_
_symmetry_equiv_pos_as_xyz
  x,y,z
_cell_length_a                    20.3088
_cell_length_b                    20.3088
_cell_length_c                    15.2265
_cell_angle_alpha                 90.0000
_cell_angle_beta                  90.0000
_cell_angle_gamma                 90.0000
loop_
_atom_site_label
_atom_site_type_symbol
_atom_site_fract_x
_atom_site_fract_y
_atom_site_fract_z
_atom_site_U_iso_or_equiv
_atom_site_adp_type
_atom_site_occupancy
C1     C     0.65042   0.76532   0.31503   0.00000  Uiso   1.00
C2     C     0.60090   0.79668   0.25245   0.00000  Uiso   1.00
C3     C     0.55644   0.84603   0.27385   0.00000  Uiso   1.00
C4     C     0.51527   0.86812   0.20729   0.00000  Uiso   1.00
C5     C     0.43786   0.92082   0.12304   0.00000  Uiso   1.00
C6     C     0.63662   0.69153   0.31294   0.00000  Uiso   1.00
C7     C     0.62220   0.65246   0.38520   0.00000  Uiso   1.00
C8     C     0.61110   0.58603   0.36956   0.00000  Uiso   1.00
C9     C     0.58919   0.47545   0.37923   0.00000  Uiso   1.00
C10    C     0.71782   0.77448   0.27262   0.00000  Uiso   1.00
C11    C     0.77169   0.80515   0.31099   0.00000  Uiso   1.00
C12    C     0.82896   0.80855   0.26141   0.00000  Uiso   1.00
C13    C     0.93313   0.82678   0.20848   0.00000  Uiso   1.00
C14    C     0.65637   0.71680   0.15875   0.00000  Uiso   1.00
C15    C     0.60413   0.77033   0.16756   0.00000  Uiso   1.00
C16    C     0.56302   0.79236   0.10095   0.00000  Uiso   1.00
C17    C     0.51851   0.84173   0.12225   0.00000  Uiso   1.00
C18    C     0.63985   0.66517   0.22806   0.00000  Uiso   1.00
C19    C     0.62877   0.59878   0.21230   0.00000  Uiso   1.00
C20    C     0.61433   0.55963   0.28453   0.00000  Uiso   1.00
C21    C     0.72105   0.74813   0.18773   0.00000  Uiso   1.00
C22    C     0.77826   0.75148   0.13809   0.00000  Uiso   1.00
C23    C     0.83220   0.78215   0.17637   0.00000  Uiso   1.00
H24    H     0.64791   0.78583   0.38112   0.00000  Uiso   1.00
H25    H     0.55396   0.86641   0.33955   0.00000  Uiso   1.00
H26    H     0.61971   0.67286   0.45088   0.00000  Uiso   1.00
H27    H     0.76917   0.82554   0.37668   0.00000  Uiso   1.00
H28    H     0.45120   0.94411   0.25604   0.00000  Uiso   1.00
H29    H     0.58986   0.53601   0.49080   0.00000  Uiso   1.00
H30    H     0.90503   0.85795   0.33433   0.00000  Uiso   1.00
H31    H     0.65888   0.69628   0.09267   0.00000  Uiso   1.00
H32    H     0.56553   0.77195   0.03527   0.00000  Uiso   1.00
H33    H     0.63128   0.57841   0.14661   0.00000  Uiso   1.00
H34    H     0.78074   0.73108   0.07240   0.00000  Uiso   1.00
H35    H     0.46059   0.86744   0.00908   0.00000  Uiso   1.00
H36    H     0.59925   0.45934   0.24384   0.00000  Uiso   1.00
H37    H     0.91442   0.78128   0.08736   0.00000  Uiso   1.00
O38    O     0.39427   0.95715   0.10002   0.00000  Uiso   1.00
O39    O     0.57620   0.42174   0.40801   0.00000  Uiso   1.00
O40    O     0.98969   0.84412   0.20272   0.00000  Uiso   1.00
N41    N     0.46623   0.91569   0.20579   0.00000  Uiso   1.00
N42    N     0.59586   0.53414   0.42528   0.00000  Uiso   1.00
N43    N     0.89052   0.83512   0.27900   0.00000  Uiso   1.00
N44    N     0.47128   0.87444   0.07290   0.00000  Uiso   1.00
N45    N     0.60091   0.49289   0.29239   0.00000  Uiso   1.00
N46    N     0.89558   0.79386   0.14610   0.00000  Uiso   1.00
C47    C     0.34958   0.23468   0.31503   0.00000  Uiso   1.00
C48    C     0.39910   0.20332   0.25245   0.00000  Uiso   1.00
C49    C     0.44356   0.15397   0.27385   0.00000  Uiso   1.00
C50    C     0.48473   0.13188   0.20729   0.00000  Uiso   1.00
C51    C     0.56214   0.07918   0.12304   0.00000  Uiso   1.00
C52    C     0.36338   0.30847   0.31294   0.00000  Uiso   1.00
C53    C     0.37780   0.34754   0.38520   0.00000  Uiso   1.00
C54    C     0.38890   0.41397   0.36956   0.00000  Uiso   1.00
C55    C     0.41081   0.52455   0.37923   0.00000  Uiso   1.00
C56    C     0.28218   0.22552   0.27262   0.00000  Uiso   1.00
C57    C     0.22831   0.19485   0.31099   0.00000  Uiso   1.00
C58    C     0.17104   0.19145   0.26141   0.00000  Uiso   1.00
C59    C     0.06687   0.17322   0.20848   0.00000  Uiso   1.00
C60    C     0.34363   0.28320   0.15875   0.00000  Uiso   1.00
C61    C     0.39587   0.22967   0.16756   0.00000  Uiso   1.00
C62    C     0.43698   0.20764   0.10095   0.00000  Uiso   1.00
C63    C     0.48149   0.15827   0.12225   0.00000  Uiso   1.00
C64    C     0.36015   0.33483   0.22806   0.00000  Uiso   1.00
C65    C     0.37123   0.40122   0.21230   0.00000  Uiso   1.00
C66    C     0.38567   0.44037   0.28453   0.00000  Uiso   1.00
C67    C     0.27895   0.25187   0.18773   0.00000  Uiso   1.00
C68    C     0.22174   0.24852   0.13809   0.00000  Uiso   1.00
C69    C     0.16780   0.21785   0.17637   0.00000  Uiso   1.00
H70    H     0.35209   0.21417   0.38112   0.00000  Uiso   1.00
H71    H     0.44604   0.13359   0.33955   0.00000  Uiso   1.00
H72    H     0.38029   0.32714   0.45088   0.00000  Uiso   1.00
H73    H     0.23083   0.17446   0.37668   0.00000  Uiso   1.00
H74    H     0.54880   0.05589   0.25604   0.00000  Uiso   1.00
H75    H     0.41014   0.46399   0.49080   0.00000  Uiso   1.00
H76    H     0.09497   0.14205   0.33433   0.00000  Uiso   1.00
H77    H     0.34112   0.30372   0.09267   0.00000  Uiso   1.00
H78    H     0.43447   0.22805   0.03527   0.00000  Uiso   1.00
H79    H     0.36872   0.42159   0.14661   0.00000  Uiso   1.00
H80    H     0.21926   0.26892   0.07240   0.00000  Uiso   1.00
H81    H     0.53941   0.13256   0.00908   0.00000  Uiso   1.00
H82    H     0.40075   0.54066   0.24384   0.00000  Uiso   1.00
H83    H     0.08558   0.21872   0.08736   0.00000  Uiso   1.00
O84    O     0.60573   0.04285   0.10002   0.00000  Uiso   1.00
O85    O     0.42380   0.57826   0.40801   0.00000  Uiso   1.00
O86    O     0.01031   0.15588   0.20272   0.00000  Uiso   1.00
N87    N     0.53377   0.08431   0.20579   0.00000  Uiso   1.00
N88    N     0.40414   0.46586   0.42528   0.00000  Uiso   1.00
N89    N     0.10948   0.16488   0.27900   0.00000  Uiso   1.00
N90    N     0.52872   0.12556   0.07290   0.00000  Uiso   1.00
N91    N     0.39909   0.50711   0.29239   0.00000  Uiso   1.00
N92    N     0.10442   0.20614   0.14610   0.00000  Uiso   1.00
C93    C     0.76532   0.34958   0.68497   0.00000  Uiso   1.00
C94    C     0.79668   0.39910   0.74755   0.00000  Uiso   1.00
C95    C     0.84603   0.44356   0.72615   0.00000  Uiso   1.00
C96    C     0.86812   0.48473   0.79271   0.00000  Uiso   1.00
C97    C     0.92082   0.56214   0.87696   0.00000  Uiso   1.00
C98    C     0.69153   0.36338   0.68706   0.00000  Uiso   1.00
C99    C     0.65246   0.37780   0.61480   0.00000  Uiso   1.00
C100   C     0.58603   0.38890   0.63044   0.00000  Uiso   1.00
C101   C     0.47545   0.41081   0.62077   0.00000  Uiso   1.00
C102   C     0.77448   0.28218   0.72738   0.00000  Uiso   1.00
C103   C     0.80515   0.22831   0.68901   0.00000  Uiso   1.00
C104   C     0.80855   0.17104   0.73859   0.00000  Uiso   1.00
C105   C     0.82678   0.06687   0.79152   0.00000  Uiso   1.00
C106   C     0.71680   0.34363   0.84125   0.00000  Uiso   1.00
C107   C     0.77033   0.39587   0.83244   0.00000  Uiso   1.00
C108   C     0.79236   0.43698   0.89905   0.00000  Uiso   1.00
C109   C     0.84173   0.48149   0.87775   0.00000  Uiso   1.00
C110   C     0.66517   0.36015   0.77194   0.00000  Uiso   1.00
C111   C     0.59878   0.37123   0.78770   0.00000  Uiso   1.00
C112   C     0.55963   0.38567   0.71547   0.00000  Uiso   1.00
C113   C     0.74813   0.27895   0.81227   0.00000  Uiso   1.00
C114   C     0.75148   0.22174   0.86191   0.00000  Uiso   1.00
C115   C     0.78215   0.16780   0.82363   0.00000  Uiso   1.00
H116   H     0.78583   0.35209   0.61888   0.00000  Uiso   1.00
H117   H     0.86641   0.44604   0.66045   0.00000  Uiso   1.00
H118   H     0.67286   0.38029   0.54912   0.00000  Uiso   1.00
H119   H     0.82554   0.23083   0.62332   0.00000  Uiso   1.00
H120   H     0.94411   0.54880   0.74396   0.00000  Uiso   1.00
H121   H     0.53601   0.41014   0.50920   0.00000  Uiso   1.00
H122   H     0.85795   0.09497   0.66567   0.00000  Uiso   1.00
H123   H     0.69628   0.34112   0.90733   0.00000  Uiso   1.00
H124   H     0.77195   0.43447   0.96473   0.00000  Uiso   1.00
H125   H     0.57841   0.36872   0.85339   0.00000  Uiso   1.00
H126   H     0.73108   0.21926   0.92760   0.00000  Uiso   1.00
H127   H     0.86744   0.53941   0.99092   0.00000  Uiso   1.00
H128   H     0.45934   0.40075   0.75616   0.00000  Uiso   1.00
H129   H     0.78128   0.08558   0.91264   0.00000  Uiso   1.00
O130   O     0.95715   0.60573   0.89998   0.00000  Uiso   1.00
O131   O     0.42174   0.42380   0.59199   0.00000  Uiso   1.00
O132   O     0.84412   0.01031   0.79728   0.00000  Uiso   1.00
N133   N     0.91569   0.53377   0.79421   0.00000  Uiso   1.00
N134   N     0.53414   0.40414   0.57472   0.00000  Uiso   1.00
N135   N     0.83512   0.10948   0.72100   0.00000  Uiso   1.00
N136   N     0.87444   0.52872   0.92710   0.00000  Uiso   1.00
N137   N     0.49289   0.39909   0.70761   0.00000  Uiso   1.00
N138   N     0.79386   0.10442   0.85390   0.00000  Uiso   1.00
C139   C     0.23468   0.65042   0.68497   0.00000  Uiso   1.00
C140   C     0.20332   0.60090   0.74755   0.00000  Uiso   1.00
C141   C     0.15397   0.55644   0.72615   0.00000  Uiso   1.00
C142   C     0.13188   0.51527   0.79271   0.00000  Uiso   1.00
C143   C     0.07918   0.43786   0.87696   0.00000  Uiso   1.00
C144   C     0.30847   0.63662   0.68706   0.00000  Uiso   1.00
C145   C     0.34754   0.62220   0.61480   0.00000  Uiso   1.00
C146   C     0.41397   0.61110   0.63044   0.00000  Uiso   1.00
C147   C     0.52455   0.58919   0.62077   0.00000  Uiso   1.00
C148   C     0.22552   0.71782   0.72738   0.00000  Uiso   1.00
C149   C     0.19485   0.77169   0.68901   0.00000  Uiso   1.00
C150   C     0.19145   0.82896   0.73859   0.00000  Uiso   1.00
C151   C     0.17322   0.93313   0.79152   0.00000  Uiso   1.00
C152   C     0.28320   0.65637   0.84125   0.00000  Uiso   1.00
C153   C     0.22967   0.60413   0.83244   0.00000  Uiso   1.00
C154   C     0.20764   0.56302   0.89905   0.00000  Uiso   1.00
C155   C     0.15827   0.51851   0.87775   0.00000  Uiso   1.00
C156   C     0.33483   0.63985   0.77194   0.00000  Uiso   1.00
C157   C     0.40122   0.62877   0.78770   0.00000  Uiso   1.00
C158   C     0.44037   0.61433   0.71547   0.00000  Uiso   1.00
C159   C     0.25187   0.72105   0.81227   0.00000  Uiso   1.00
C160   C     0.24852   0.77826   0.86191   0.00000  Uiso   1.00
C161   C     0.21785   0.83220   0.82363   0.00000  Uiso   1.00
H162   H     0.21417   0.64791   0.61888   0.00000  Uiso   1.00
H163   H     0.13359   0.55396   0.66045   0.00000  Uiso   1.00
H164   H     0.32714   0.61971   0.54912   0.00000  Uiso   1.00
H165   H     0.17446   0.76917   0.62332   0.00000  Uiso   1.00
H166   H     0.05589   0.45120   0.74396   0.00000  Uiso   1.00
H167   H     0.46399   0.58986   0.50920   0.00000  Uiso   1.00
H168   H     0.14205   0.90503   0.66567   0.00000  Uiso   1.00
H169   H     0.30372   0.65888   0.90733   0.00000  Uiso   1.00
H170   H     0.22805   0.56553   0.96473   0.00000  Uiso   1.00
H171   H     0.42159   0.63128   0.85339   0.00000  Uiso   1.00
H172   H     0.26892   0.78074   0.92760   0.00000  Uiso   1.00
H173   H     0.13256   0.46059   0.99092   0.00000  Uiso   1.00
H174   H     0.54066   0.59925   0.75616   0.00000  Uiso   1.00
H175   H     0.21872   0.91442   0.91264   0.00000  Uiso   1.00
O176   O     0.04285   0.39427   0.89998   0.00000  Uiso   1.00
O177   O     0.57826   0.57620   0.59199   0.00000  Uiso   1.00
O178   O     0.15588   0.98969   0.79728   0.00000  Uiso   1.00
N179   N     0.08431   0.46623   0.79421   0.00000  Uiso   1.00
N180   N     0.46586   0.59586   0.57472   0.00000  Uiso   1.00
N181   N     0.16488   0.89052   0.72100   0.00000  Uiso   1.00
N182   N     0.12556   0.47128   0.92710   0.00000  Uiso   1.00
N183   N     0.50711   0.60091   0.70761   0.00000  Uiso   1.00
N184   N     0.20614   0.89558   0.85390   0.00000  Uiso   1.00
C185   C     0.15042   0.73468   0.31503   0.00000  Uiso   1.00
C186   C     0.10090   0.70332   0.25245   0.00000  Uiso   1.00
C187   C     0.05644   0.65397   0.27385   0.00000  Uiso   1.00
C188   C     0.01527   0.63188   0.20729   0.00000  Uiso   1.00
C189   C     0.93786   0.57918   0.12304   0.00000  Uiso   1.00
C190   C     0.13662   0.80847   0.31294   0.00000  Uiso   1.00
C191   C     0.12220   0.84754   0.38520   0.00000  Uiso   1.00
C192   C     0.11110   0.91397   0.36956   0.00000  Uiso   1.00
C193   C     0.08919   0.02455   0.37923   0.00000  Uiso   1.00
C194   C     0.21782   0.72552   0.27262   0.00000  Uiso   1.00
C195   C     0.27169   0.69485   0.31099   0.00000  Uiso   1.00
C196   C     0.32896   0.69145   0.26141   0.00000  Uiso   1.00
C197   C     0.43313   0.67322   0.20848   0.00000  Uiso   1.00
C198   C     0.15637   0.78320   0.15875   0.00000  Uiso   1.00
C199   C     0.10413   0.72967   0.16756   0.00000  Uiso   1.00
C200   C     0.06302   0.70764   0.10095   0.00000  Uiso   1.00
C201   C     0.01851   0.65827   0.12225   0.00000  Uiso   1.00
C202   C     0.13985   0.83483   0.22806   0.00000  Uiso   1.00
C203   C     0.12877   0.90122   0.21230   0.00000  Uiso   1.00
C204   C     0.11433   0.94037   0.28453   0.00000  Uiso   1.00
C205   C     0.22105   0.75187   0.18773   0.00000  Uiso   1.00
C206   C     0.27826   0.74852   0.13809   0.00000  Uiso   1.00
C207   C     0.33220   0.71785   0.17637   0.00000  Uiso   1.00
H208   H     0.14791   0.71417   0.38112   0.00000  Uiso   1.00
H209   H     0.05396   0.63359   0.33955   0.00000  Uiso   1.00
H210   H     0.11971   0.82714   0.45088   0.00000  Uiso   1.00
H211   H     0.26917   0.67446   0.37668   0.00000  Uiso   1.00
H212   H     0.95120   0.55589   0.25604   0.00000  Uiso   1.00
H213   H     0.08986   0.96399   0.49080   0.00000  Uiso   1.00
H214   H     0.40503   0.64205   0.33433   0.00000  Uiso   1.00
H215   H     0.15888   0.80372   0.09267   0.00000  Uiso   1.00
H216   H     0.06553   0.72805   0.03527   0.00000  Uiso   1.00
H217   H     0.13128   0.92159   0.14661   0.00000  Uiso   1.00
H218   H     0.28074   0.76892   0.07240   0.00000  Uiso   1.00
H219   H     0.96059   0.63256   0.00908   0.00000  Uiso   1.00
H220   H     0.09925   0.04066   0.24384   0.00000  Uiso   1.00
H221   H     0.41442   0.71872   0.08736   0.00000  Uiso   1.00
O222   O     0.89427   0.54285   0.10002   0.00000  Uiso   1.00
O223   O     0.07620   0.07826   0.40801   0.00000  Uiso   1.00
O224   O     0.48969   0.65588   0.20272   0.00000  Uiso   1.00
N225   N     0.96623   0.58431   0.20579   0.00000  Uiso   1.00
N226   N     0.09586   0.96586   0.42528   0.00000  Uiso   1.00
N227   N     0.39052   0.66488   0.27900   0.00000  Uiso   1.00
N228   N     0.97128   0.62556   0.07290   0.00000  Uiso   1.00
N229   N     0.10091   0.00711   0.29239   0.00000  Uiso   1.00
N230   N     0.39558   0.70614   0.14610   0.00000  Uiso   1.00
C231   C     0.84958   0.26532   0.31503   0.00000  Uiso   1.00
C232   C     0.89910   0.29668   0.25245   0.00000  Uiso   1.00
C233   C     0.94356   0.34603   0.27385   0.00000  Uiso   1.00
C234   C     0.98473   0.36812   0.20729   0.00000  Uiso   1.00
C235   C     0.06214   0.42082   0.12304   0.00000  Uiso   1.00
C236   C     0.86338   0.19153   0.31294   0.00000  Uiso   1.00
C237   C     0.87780   0.15246   0.38520   0.00000  Uiso   1.00
C238   C     0.88890   0.08603   0.36956   0.00000  Uiso   1.00
C239   C     0.91081   0.97545   0.37923   0.00000  Uiso   1.00
C240   C     0.78218   0.27448   0.27262   0.00000  Uiso   1.00
C241   C     0.72831   0.30515   0.31099   0.00000  Uiso   1.00
C242   C     0.67104   0.30855   0.26141   0.00000  Uiso   1.00
C243   C     0.56687   0.32678   0.20848   0.00000  Uiso   1.00
C244   C     0.84363   0.21680   0.15875   0.00000  Uiso   1.00
C245   C     0.89587   0.27033   0.16756   0.00000  Uiso   1.00
C246   C     0.93698   0.29236   0.10095   0.00000  Uiso   1.00
C247   C     0.98149   0.34173   0.12225   0.00000  Uiso   1.00
C248   C     0.86015   0.16517   0.22806   0.00000  Uiso   1.00
C249   C     0.87123   0.09878   0.21230   0.00000  Uiso   1.00
C250   C     0.88567   0.05963   0.28453   0.00000  Uiso   1.00
C251   C     0.77895   0.24813   0.18773   0.00000  Uiso   1.00
C252   C     0.72174   0.25148   0.13809   0.00000  Uiso   1.00
C253   C     0.66780   0.28215   0.17637   0.00000  Uiso   1.00
H254   H     0.85209   0.28583   0.38112   0.00000  Uiso   1.00
H255   H     0.94604   0.36641   0.33955   0.00000  Uiso   1.00
H256   H     0.88029   0.17286   0.45088   0.00000  Uiso   1.00
H257   H     0.73083   0.32554   0.37668   0.00000  Uiso   1.00
H258   H     0.04880   0.44411   0.25604   0.00000  Uiso   1.00
H259   H     0.91014   0.03601   0.49080   0.00000  Uiso   1.00
H260   H     0.59497   0.35795   0.33433   0.00000  Uiso   1.00
H261   H     0.84112   0.19628   0.09267   0.00000  Uiso   1.00
H262   H     0.93447   0.27195   0.03527   0.00000  Uiso   1.00
H263   H     0.86872   0.07841   0.14661   0.00000  Uiso   1.00
H264   H     0.71926   0.23108   0.07240   0.00000  Uiso   1.00
H265   H     0.03941   0.36744   0.00908   0.00000  Uiso   1.00
H266   H     0.90075   0.95934   0.24384   0.00000  Uiso   1.00
H267   H     0.58558   0.28128   0.08736   0.00000  Uiso   1.00
O268   O     0.10573   0.45715   0.10002   0.00000  Uiso   1.00
O269   O     0.92380   0.92174   0.40801   0.00000  Uiso   1.00
O270   O     0.51031   0.34412   0.20272   0.00000  Uiso   1.00
N271   N     0.03377   0.41569   0.20579   0.00000  Uiso   1.00
N272   N     0.90414   0.03414   0.42528   0.00000  Uiso   1.00
N273   N     0.60948   0.33512   0.27900   0.00000  Uiso   1.00
N274   N     0.02872   0.37444   0.07290   0.00000  Uiso   1.00
N275   N     0.89909   0.99289   0.29239   0.00000  Uiso   1.00
N276   N     0.60442   0.29386   0.14610   0.00000  Uiso   1.00
C277   C     0.26532   0.15042   0.68497   0.00000  Uiso   1.00
C278   C     0.29668   0.10090   0.74755   0.00000  Uiso   1.00
C279   C     0.34603   0.05644   0.72615   0.00000  Uiso   1.00
C280   C     0.36812   0.01527   0.79271   0.00000  Uiso   1.00
C281   C     0.42082   0.93786   0.87696   0.00000  Uiso   1.00
C282   C     0.19153   0.13662   0.68706   0.00000  Uiso   1.00
C283   C     0.15246   0.12220   0.61480   0.00000  Uiso   1.00
C284   C     0.08603   0.11110   0.63044   0.00000  Uiso   1.00
C285   C     0.97545   0.08919   0.62077   0.00000  Uiso   1.00
C286   C     0.27448   0.21782   0.72738   0.00000  Uiso   1.00
C287   C     0.30515   0.27169   0.68901   0.00000  Uiso   1.00
C288   C     0.30855   0.32896   0.73859   0.00000  Uiso   1.00
C289   C     0.32678   0.43313   0.79152   0.00000  Uiso   1.00
C290   C     0.21680   0.15637   0.84125   0.00000  Uiso   1.00
C291   C     0.27033   0.10413   0.83244   0.00000  Uiso   1.00
C292   C     0.29236   0.06302   0.89905   0.00000  Uiso   1.00
C293   C     0.34173   0.01851   0.87775   0.00000  Uiso   1.00
C294   C     0.16517   0.13985   0.77194   0.00000  Uiso   1.00
C295   C     0.09878   0.12877   0.78770   0.00000  Uiso   1.00
C296   C     0.05963   0.11433   0.71547   0.00000  Uiso   1.00
C297   C     0.24813   0.22105   0.81227   0.00000  Uiso   1.00
C298   C     0.25148   0.27826   0.86191   0.00000  Uiso   1.00
C299   C     0.28215   0.33220   0.82363   0.00000  Uiso   1.00
H300   H     0.28583   0.14791   0.61888   0.00000  Uiso   1.00
H301   H     0.36641   0.05396   0.66045   0.00000  Uiso   1.00
H302   H     0.17286   0.11971   0.54912   0.00000  Uiso   1.00
H303   H     0.32554   0.26917   0.62332   0.00000  Uiso   1.00
H304   H     0.44411   0.95120   0.74396   0.00000  Uiso   1.00
H305   H     0.03601   0.08986   0.50920   0.00000  Uiso   1.00
H306   H     0.35795   0.40503   0.66567   0.00000  Uiso   1.00
H307   H     0.19628   0.15888   0.90733   0.00000  Uiso   1.00
H308   H     0.27195   0.06553   0.96473   0.00000  Uiso   1.00
H309   H     0.07841   0.13128   0.85339   0.00000  Uiso   1.00
H310   H     0.23108   0.28074   0.92760   0.00000  Uiso   1.00
H311   H     0.36744   0.96059   0.99092   0.00000  Uiso   1.00
H312   H     0.95934   0.09925   0.75616   0.00000  Uiso   1.00
H313   H     0.28128   0.41442   0.91264   0.00000  Uiso   1.00
O314   O     0.45715   0.89427   0.89998   0.00000  Uiso   1.00
O315   O     0.92174   0.07620   0.59199   0.00000  Uiso   1.00
O316   O     0.34412   0.48969   0.79728   0.00000  Uiso   1.00
N317   N     0.41569   0.96623   0.79421   0.00000  Uiso   1.00
N318   N     0.03414   0.09586   0.57472   0.00000  Uiso   1.00
N319   N     0.33512   0.39052   0.72100   0.00000  Uiso   1.00
N320   N     0.37444   0.97128   0.92710   0.00000  Uiso   1.00
N321   N     0.99289   0.10091   0.70761   0.00000  Uiso   1.00
N322   N     0.29386   0.39558   0.85390   0.00000  Uiso   1.00
C323   C     0.73468   0.84958   0.68497   0.00000  Uiso   1.00
C324   C     0.70332   0.89910   0.74755   0.00000  Uiso   1.00
C325   C     0.65397   0.94356   0.72615   0.00000  Uiso   1.00
C326   C     0.63188   0.98473   0.79271   0.00000  Uiso   1.00
C327   C     0.57918   0.06214   0.87696   0.00000  Uiso   1.00
C328   C     0.80847   0.86338   0.68706   0.00000  Uiso   1.00
C329   C     0.84754   0.87780   0.61480   0.00000  Uiso   1.00
C330   C     0.91397   0.88890   0.63044   0.00000  Uiso   1.00
C331   C     0.02455   0.91081   0.62077   0.00000  Uiso   1.00
C332   C     0.72552   0.78218   0.72738   0.00000  Uiso   1.00
C333   C     0.69485   0.72831   0.68901   0.00000  Uiso   1.00
C334   C     0.69145   0.67104   0.73859   0.00000  Uiso   1.00
C335   C     0.67322   0.56687   0.79152   0.00000  Uiso   1.00
C336   C     0.78320   0.84363   0.84125   0.00000  Uiso   1.00
C337   C     0.72967   0.89587   0.83244   0.00000  Uiso   1.00
C338   C     0.70764   0.93698   0.89905   0.00000  Uiso   1.00
C339   C     0.65827   0.98149   0.87775   0.00000  Uiso   1.00
C340   C     0.83483   0.86015   0.77194   0.00000  Uiso   1.00
C341   C     0.90122   0.87123   0.78770   0.00000  Uiso   1.00
C342   C     0.94037   0.88567   0.71547   0.00000  Uiso   1.00
C343   C     0.75187   0.77895   0.81227   0.00000  Uiso   1.00
C344   C     0.74852   0.72174   0.86191   0.00000  Uiso   1.00
C345   C     0.71785   0.66780   0.82363   0.00000  Uiso   1.00
H346   H     0.71417   0.85209   0.61888   0.00000  Uiso   1.00
H347   H     0.63359   0.94604   0.66045   0.00000  Uiso   1.00
H348   H     0.82714   0.88029   0.54912   0.00000  Uiso   1.00
H349   H     0.67446   0.73083   0.62332   0.00000  Uiso   1.00
H350   H     0.55589   0.04880   0.74396   0.00000  Uiso   1.00
H351   H     0.96399   0.91014   0.50920   0.00000  Uiso   1.00
H352   H     0.64205   0.59497   0.66567   0.00000  Uiso   1.00
H353   H     0.80372   0.84112   0.90733   0.00000  Uiso   1.00
H354   H     0.72805   0.93447   0.96473   0.00000  Uiso   1.00
H355   H     0.92159   0.86872   0.85339   0.00000  Uiso   1.00
H356   H     0.76892   0.71926   0.92760   0.00000  Uiso   1.00
H357   H     0.63256   0.03941   0.99092   0.00000  Uiso   1.00
H358   H     0.04066   0.90075   0.75616   0.00000  Uiso   1.00
H359   H     0.71872   0.58558   0.91264   0.00000  Uiso   1.00
O360   O     0.54285   0.10573   0.89998   0.00000  Uiso   1.00
O361   O     0.07826   0.92380   0.59199   0.00000  Uiso   1.00
O362   O     0.65588   0.51031   0.79728   0.00000  Uiso   1.00
N363   N     0.58431   0.03377   0.79421   0.00000  Uiso   1.00
N364   N     0.96586   0.90414   0.57472   0.00000  Uiso   1.00
N365   N     0.66488   0.60948   0.72100   0.00000  Uiso   1.00
N366   N     0.62556   0.02872   0.92710   0.00000  Uiso   1.00
N367   N     0.00711   0.89909   0.70761   0.00000  Uiso   1.00
N368   N     0.70614   0.60442   0.85390   0.00000  Uiso   1.00
