data_job_00983
_audit_creation_date              2018-12-19
_audit_creation_method            'Materials Studio'
_symmetry_space_group_name_H-M    'P1'
_symmetry_Int_Tables_number       1
_symmetry_cell_setting            triclinic
loop_
_symmetry_equiv_pos_as_xyz
  x,y,z
_cell_length_a                    12.4190
_cell_length_b                    13.6207
_cell_length_c                    30.1050
_cell_angle_alpha                 90.0000
_cell_angle_beta                  103.8910
_cell_angle_gamma                 90.0000
loop_
_atom_site_label
_atom_site_type_symbol
_atom_site_fract_x
_atom_site_fract_y
_atom_site_fract_z
_atom_site_U_iso_or_equiv
_atom_site_adp_type
_atom_site_occupancy
C1     C     0.46258   0.62677   0.18929   0.00000  Uiso   1.00
C2     C     0.52873   0.66891   0.15710   0.00000  Uiso   1.00
C3     C     0.63563   0.70632   0.17009   0.00000  Uiso   1.00
C4     C     0.68169   0.74144   0.13548   0.00000  Uiso   1.00
C5     C     0.79333   0.80726   0.09249   0.00000  Uiso   1.00
C6     C     0.35502   0.68554   0.18056   0.00000  Uiso   1.00
C7     C     0.31587   0.73692   0.21328   0.00000  Uiso   1.00
C8     C     0.21571   0.78602   0.19842   0.00000  Uiso   1.00
C9     C     0.05762   0.87760   0.19186   0.00000  Uiso   1.00
C10    C     0.42977   0.52303   0.17226   0.00000  Uiso   1.00
C11    C     0.45345   0.43777   0.19800   0.00000  Uiso   1.00
C12    C     0.41619   0.35006   0.17615   0.00000  Uiso   1.00
C13    C     0.37417   0.18931   0.15670   0.00000  Uiso   1.00
C14    C     0.35429   0.62261   0.10473   0.00000  Uiso   1.00
C15    C     0.46990   0.66665   0.11117   0.00000  Uiso   1.00
C16    C     0.51582   0.70172   0.07654   0.00000  Uiso   1.00
C17    C     0.62277   0.73917   0.08947   0.00000  Uiso   1.00
C18    C     0.29620   0.68328   0.13464   0.00000  Uiso   1.00
C19    C     0.19606   0.73232   0.11973   0.00000  Uiso   1.00
C20    C     0.15678   0.78376   0.15241   0.00000  Uiso   1.00
C21    C     0.37095   0.52077   0.12633   0.00000  Uiso   1.00
C22    C     0.33364   0.43317   0.10445   0.00000  Uiso   1.00
C23    C     0.35726   0.34779   0.13014   0.00000  Uiso   1.00
H24    H     0.50836   0.62854   0.22504   0.00000  Uiso   1.00
H25    H     0.68112   0.70807   0.20563   0.00000  Uiso   1.00
H26    H     0.36140   0.73865   0.24882   0.00000  Uiso   1.00
H27    H     0.49896   0.43955   0.23353   0.00000  Uiso   1.00
H28    H     0.84669   0.79528   0.16386   0.00000  Uiso   1.00
H29    H     0.17254   0.85973   0.25492   0.00000  Uiso   1.00
H30    H     0.46261   0.22902   0.22270   0.00000  Uiso   1.00
H31    H     0.30849   0.62085   0.06898   0.00000  Uiso   1.00
H32    H     0.47028   0.69996   0.04100   0.00000  Uiso   1.00
H33    H     0.15057   0.73055   0.08419   0.00000  Uiso   1.00
H34    H     0.28813   0.43145   0.06890   0.00000  Uiso   1.00
H35    H     0.67557   0.78870   0.03024   0.00000  Uiso   1.00
H36    H     0.00141   0.85316   0.12130   0.00000  Uiso   1.00
H37    H     0.29148   0.22245   0.08908   0.00000  Uiso   1.00
O38    O     0.87115   0.84420   0.08147   0.00000  Uiso   1.00
O39    O     0.98669   0.92874   0.20093   0.00000  Uiso   1.00
O40    O     0.36725   0.10127   0.15866   0.00000  Uiso   1.00
N41    N     0.78422   0.78285   0.13625   0.00000  Uiso   1.00
N42    N     0.15394   0.84313   0.22138   0.00000  Uiso   1.00
N43    N     0.42510   0.25347   0.19126   0.00000  Uiso   1.00
N44    N     0.69214   0.77932   0.06435   0.00000  Uiso   1.00
N45    N     0.06186   0.83959   0.14948   0.00000  Uiso   1.00
N46    N     0.33302   0.24993   0.11936   0.00000  Uiso   1.00
C47    C     0.92570   0.34600   0.64723   0.00000  Uiso   1.00
C48    C     0.98571   0.36632   0.60954   0.00000  Uiso   1.00
C49    C     0.08387   0.41856   0.61464   0.00000  Uiso   1.00
C50    C     0.12543   0.42910   0.57601   0.00000  Uiso   1.00
C51    C     0.22690   0.46683   0.52390   0.00000  Uiso   1.00
C52    C     0.80850   0.38611   0.62984   0.00000  Uiso   1.00
C53    C     0.75765   0.45497   0.65200   0.00000  Uiso   1.00
C54    C     0.65003   0.48215   0.63046   0.00000  Uiso   1.00
C55    C     0.47634   0.55055   0.60988   0.00000  Uiso   1.00
C56    C     0.91387   0.23474   0.64909   0.00000  Uiso   1.00
C57    C     0.95159   0.17632   0.68744   0.00000  Uiso   1.00
C58    C     0.93267   0.07606   0.68211   0.00000  Uiso   1.00
C59    C     0.92259   0.90943   0.69142   0.00000  Uiso   1.00
C60    C     0.82498   0.27182   0.56957   0.00000  Uiso   1.00
C61    C     0.93100   0.32603   0.56736   0.00000  Uiso   1.00
C62    C     0.97243   0.33649   0.52871   0.00000  Uiso   1.00
C63    C     0.07063   0.38873   0.53375   0.00000  Uiso   1.00
C64    C     0.75379   0.34582   0.58766   0.00000  Uiso   1.00
C65    C     0.64621   0.37290   0.56608   0.00000  Uiso   1.00
C66    C     0.59522   0.44179   0.58821   0.00000  Uiso   1.00
C67    C     0.85916   0.19445   0.60690   0.00000  Uiso   1.00
C68    C     0.84016   0.09426   0.60152   0.00000  Uiso   1.00
C69    C     0.87786   0.03570   0.63985   0.00000  Uiso   1.00
H70    H     0.96829   0.37737   0.68007   0.00000  Uiso   1.00
H71    H     0.12618   0.44974   0.64729   0.00000  Uiso   1.00
H72    H     0.80001   0.48613   0.68465   0.00000  Uiso   1.00
H73    H     0.99393   0.20753   0.72008   0.00000  Uiso   1.00
H74    H     0.27707   0.51223   0.59233   0.00000  Uiso   1.00
H75    H     0.58931   0.58895   0.67112   0.00000  Uiso   1.00
H76    H     0.99823   0.00146   0.74584   0.00000  Uiso   1.00
H77    H     0.78238   0.24045   0.53672   0.00000  Uiso   1.00
H78    H     0.93007   0.30530   0.49607   0.00000  Uiso   1.00
H79    H     0.60390   0.34170   0.53344   0.00000  Uiso   1.00
H80    H     0.79782   0.06310   0.56887   0.00000  Uiso   1.00
H81    H     0.11791   0.39501   0.46960   0.00000  Uiso   1.00
H82    H     0.43014   0.47172   0.54839   0.00000  Uiso   1.00
H83    H     0.83906   0.88424   0.62310   0.00000  Uiso   1.00
O84    O     0.29798   0.49878   0.50681   0.00000  Uiso   1.00
O85    O     0.39566   0.59941   0.61018   0.00000  Uiso   1.00
O86    O     0.93215   0.82865   0.70820   0.00000  Uiso   1.00
N87    N     0.21936   0.47573   0.56903   0.00000  Uiso   1.00
N88    N     0.57635   0.54746   0.64269   0.00000  Uiso   1.00
N89    N     0.95863   0.99821   0.71254   0.00000  Uiso   1.00
N90    N     0.13371   0.41265   0.50299   0.00000  Uiso   1.00
N91    N     0.49070   0.48439   0.57665   0.00000  Uiso   1.00
N92    N     0.87298   0.93514   0.64650   0.00000  Uiso   1.00
C93    C     0.53742   0.12677   0.31071   0.00000  Uiso   1.00
C94    C     0.47127   0.16891   0.34290   0.00000  Uiso   1.00
C95    C     0.36437   0.20632   0.32991   0.00000  Uiso   1.00
C96    C     0.31831   0.24144   0.36452   0.00000  Uiso   1.00
C97    C     0.20667   0.30726   0.40751   0.00000  Uiso   1.00
C98    C     0.64498   0.18554   0.31944   0.00000  Uiso   1.00
C99    C     0.68413   0.23692   0.28672   0.00000  Uiso   1.00
C100   C     0.78429   0.28602   0.30158   0.00000  Uiso   1.00
C101   C     0.94238   0.37760   0.30814   0.00000  Uiso   1.00
C102   C     0.57023   0.02303   0.32774   0.00000  Uiso   1.00
C103   C     0.54655   0.93777   0.30200   0.00000  Uiso   1.00
C104   C     0.58381   0.85006   0.32385   0.00000  Uiso   1.00
C105   C     0.62583   0.68931   0.34330   0.00000  Uiso   1.00
C106   C     0.64571   0.12261   0.39527   0.00000  Uiso   1.00
C107   C     0.53010   0.16665   0.38883   0.00000  Uiso   1.00
C108   C     0.48418   0.20172   0.42346   0.00000  Uiso   1.00
C109   C     0.37723   0.23917   0.41053   0.00000  Uiso   1.00
C110   C     0.70380   0.18328   0.36536   0.00000  Uiso   1.00
C111   C     0.80394   0.23232   0.38027   0.00000  Uiso   1.00
C112   C     0.84322   0.28376   0.34759   0.00000  Uiso   1.00
C113   C     0.62905   0.02077   0.37367   0.00000  Uiso   1.00
C114   C     0.66636   0.93317   0.39555   0.00000  Uiso   1.00
C115   C     0.64274   0.84779   0.36986   0.00000  Uiso   1.00
H116   H     0.49164   0.12854   0.27496   0.00000  Uiso   1.00
H117   H     0.31888   0.20807   0.29437   0.00000  Uiso   1.00
H118   H     0.63860   0.23865   0.25118   0.00000  Uiso   1.00
H119   H     0.50104   0.93955   0.26647   0.00000  Uiso   1.00
H120   H     0.15331   0.29528   0.33614   0.00000  Uiso   1.00
H121   H     0.82746   0.35973   0.24508   0.00000  Uiso   1.00
H122   H     0.53739   0.72902   0.27730   0.00000  Uiso   1.00
H123   H     0.69151   0.12085   0.43102   0.00000  Uiso   1.00
H124   H     0.52972   0.19996   0.45900   0.00000  Uiso   1.00
H125   H     0.84943   0.23055   0.41581   0.00000  Uiso   1.00
H126   H     0.71187   0.93145   0.43110   0.00000  Uiso   1.00
H127   H     0.32443   0.28870   0.46976   0.00000  Uiso   1.00
H128   H     0.99859   0.35316   0.37870   0.00000  Uiso   1.00
H129   H     0.70852   0.72245   0.41092   0.00000  Uiso   1.00
O130   O     0.12885   0.34420   0.41853   0.00000  Uiso   1.00
O131   O     0.01331   0.42874   0.29907   0.00000  Uiso   1.00
O132   O     0.63275   0.60127   0.34134   0.00000  Uiso   1.00
N133   N     0.21578   0.28285   0.36375   0.00000  Uiso   1.00
N134   N     0.84606   0.34313   0.27862   0.00000  Uiso   1.00
N135   N     0.57490   0.75347   0.30874   0.00000  Uiso   1.00
N136   N     0.30786   0.27932   0.43565   0.00000  Uiso   1.00
N137   N     0.93814   0.33959   0.35052   0.00000  Uiso   1.00
N138   N     0.66698   0.74993   0.38064   0.00000  Uiso   1.00
C139   C     0.07430   0.84600   0.85277   0.00000  Uiso   1.00
C140   C     0.01429   0.86632   0.89046   0.00000  Uiso   1.00
C141   C     0.91613   0.91856   0.88536   0.00000  Uiso   1.00
C142   C     0.87457   0.92910   0.92399   0.00000  Uiso   1.00
C143   C     0.77310   0.96683   0.97610   0.00000  Uiso   1.00
C144   C     0.19150   0.88611   0.87016   0.00000  Uiso   1.00
C145   C     0.24235   0.95497   0.84800   0.00000  Uiso   1.00
C146   C     0.34997   0.98215   0.86954   0.00000  Uiso   1.00
C147   C     0.52366   0.05055   0.89012   0.00000  Uiso   1.00
C148   C     0.08613   0.73474   0.85091   0.00000  Uiso   1.00
C149   C     0.04841   0.67632   0.81256   0.00000  Uiso   1.00
C150   C     0.06733   0.57606   0.81789   0.00000  Uiso   1.00
C151   C     0.07741   0.40943   0.80858   0.00000  Uiso   1.00
C152   C     0.17502   0.77182   0.93043   0.00000  Uiso   1.00
C153   C     0.06900   0.82603   0.93264   0.00000  Uiso   1.00
C154   C     0.02757   0.83649   0.97129   0.00000  Uiso   1.00
C155   C     0.92937   0.88873   0.96625   0.00000  Uiso   1.00
C156   C     0.24621   0.84582   0.91234   0.00000  Uiso   1.00
C157   C     0.35379   0.87290   0.93392   0.00000  Uiso   1.00
C158   C     0.40478   0.94179   0.91179   0.00000  Uiso   1.00
C159   C     0.14084   0.69445   0.89310   0.00000  Uiso   1.00
C160   C     0.15984   0.59426   0.89848   0.00000  Uiso   1.00
C161   C     0.12214   0.53570   0.86015   0.00000  Uiso   1.00
H162   H     0.03171   0.87737   0.81993   0.00000  Uiso   1.00
H163   H     0.87382   0.94974   0.85271   0.00000  Uiso   1.00
H164   H     0.19999   0.98613   0.81535   0.00000  Uiso   1.00
H165   H     0.00607   0.70753   0.77992   0.00000  Uiso   1.00
H166   H     0.72293   0.01223   0.90767   0.00000  Uiso   1.00
H167   H     0.41069   0.08895   0.82888   0.00000  Uiso   1.00
H168   H     0.00177   0.50146   0.75416   0.00000  Uiso   1.00
H169   H     0.21762   0.74045   0.96328   0.00000  Uiso   1.00
H170   H     0.06993   0.80530   0.00393   0.00000  Uiso   1.00
H171   H     0.39610   0.84170   0.96656   0.00000  Uiso   1.00
H172   H     0.20218   0.56310   0.93113   0.00000  Uiso   1.00
H173   H     0.88209   0.89501   0.03040   0.00000  Uiso   1.00
H174   H     0.56986   0.97172   0.95161   0.00000  Uiso   1.00
H175   H     0.16094   0.38424   0.87690   0.00000  Uiso   1.00
O176   O     0.70202   0.99878   0.99319   0.00000  Uiso   1.00
O177   O     0.60434   0.09941   0.88982   0.00000  Uiso   1.00
O178   O     0.06785   0.32865   0.79180   0.00000  Uiso   1.00
N179   N     0.78064   0.97573   0.93097   0.00000  Uiso   1.00
N180   N     0.42365   0.04746   0.85731   0.00000  Uiso   1.00
N181   N     0.04137   0.49821   0.78746   0.00000  Uiso   1.00
N182   N     0.86629   0.91265   0.99701   0.00000  Uiso   1.00
N183   N     0.50930   0.98439   0.92335   0.00000  Uiso   1.00
N184   N     0.12702   0.43514   0.85350   0.00000  Uiso   1.00
C185   C     0.53742   0.37323   0.81071   0.00000  Uiso   1.00
C186   C     0.47127   0.33109   0.84290   0.00000  Uiso   1.00
C187   C     0.36437   0.29368   0.82991   0.00000  Uiso   1.00
C188   C     0.31831   0.25856   0.86452   0.00000  Uiso   1.00
C189   C     0.20667   0.19274   0.90751   0.00000  Uiso   1.00
C190   C     0.64498   0.31446   0.81944   0.00000  Uiso   1.00
C191   C     0.68413   0.26308   0.78672   0.00000  Uiso   1.00
C192   C     0.78429   0.21398   0.80158   0.00000  Uiso   1.00
C193   C     0.94238   0.12240   0.80814   0.00000  Uiso   1.00
C194   C     0.57023   0.47697   0.82774   0.00000  Uiso   1.00
C195   C     0.54655   0.56223   0.80200   0.00000  Uiso   1.00
C196   C     0.58381   0.64994   0.82385   0.00000  Uiso   1.00
C197   C     0.62583   0.81069   0.84330   0.00000  Uiso   1.00
C198   C     0.64571   0.37739   0.89527   0.00000  Uiso   1.00
C199   C     0.53010   0.33335   0.88883   0.00000  Uiso   1.00
C200   C     0.48418   0.29828   0.92346   0.00000  Uiso   1.00
C201   C     0.37723   0.26083   0.91053   0.00000  Uiso   1.00
C202   C     0.70380   0.31672   0.86536   0.00000  Uiso   1.00
C203   C     0.80394   0.26768   0.88027   0.00000  Uiso   1.00
C204   C     0.84322   0.21624   0.84759   0.00000  Uiso   1.00
C205   C     0.62905   0.47923   0.87367   0.00000  Uiso   1.00
C206   C     0.66636   0.56683   0.89555   0.00000  Uiso   1.00
C207   C     0.64274   0.65221   0.86986   0.00000  Uiso   1.00
H208   H     0.49164   0.37146   0.77496   0.00000  Uiso   1.00
H209   H     0.31888   0.29193   0.79437   0.00000  Uiso   1.00
H210   H     0.63860   0.26135   0.75118   0.00000  Uiso   1.00
H211   H     0.50104   0.56045   0.76647   0.00000  Uiso   1.00
H212   H     0.15331   0.20472   0.83614   0.00000  Uiso   1.00
H213   H     0.82746   0.14027   0.74508   0.00000  Uiso   1.00
H214   H     0.53739   0.77098   0.77730   0.00000  Uiso   1.00
H215   H     0.69151   0.37915   0.93102   0.00000  Uiso   1.00
H216   H     0.52972   0.30004   0.95900   0.00000  Uiso   1.00
H217   H     0.84943   0.26945   0.91581   0.00000  Uiso   1.00
H218   H     0.71187   0.56855   0.93110   0.00000  Uiso   1.00
H219   H     0.32443   0.21130   0.96976   0.00000  Uiso   1.00
H220   H     0.99859   0.14684   0.87870   0.00000  Uiso   1.00
H221   H     0.70852   0.77755   0.91092   0.00000  Uiso   1.00
O222   O     0.12885   0.15580   0.91853   0.00000  Uiso   1.00
O223   O     0.01331   0.07126   0.79907   0.00000  Uiso   1.00
O224   O     0.63275   0.89873   0.84134   0.00000  Uiso   1.00
N225   N     0.21578   0.21715   0.86375   0.00000  Uiso   1.00
N226   N     0.84606   0.15687   0.77862   0.00000  Uiso   1.00
N227   N     0.57490   0.74653   0.80874   0.00000  Uiso   1.00
N228   N     0.30786   0.22068   0.93565   0.00000  Uiso   1.00
N229   N     0.93814   0.16041   0.85052   0.00000  Uiso   1.00
N230   N     0.66698   0.75007   0.88064   0.00000  Uiso   1.00
C231   C     0.07430   0.65400   0.35277   0.00000  Uiso   1.00
C232   C     0.01429   0.63368   0.39046   0.00000  Uiso   1.00
C233   C     0.91613   0.58144   0.38536   0.00000  Uiso   1.00
C234   C     0.87457   0.57090   0.42399   0.00000  Uiso   1.00
C235   C     0.77310   0.53317   0.47610   0.00000  Uiso   1.00
C236   C     0.19150   0.61389   0.37016   0.00000  Uiso   1.00
C237   C     0.24235   0.54503   0.34800   0.00000  Uiso   1.00
C238   C     0.34997   0.51785   0.36954   0.00000  Uiso   1.00
C239   C     0.52366   0.44945   0.39012   0.00000  Uiso   1.00
C240   C     0.08613   0.76526   0.35091   0.00000  Uiso   1.00
C241   C     0.04841   0.82368   0.31256   0.00000  Uiso   1.00
C242   C     0.06733   0.92394   0.31789   0.00000  Uiso   1.00
C243   C     0.07741   0.09057   0.30858   0.00000  Uiso   1.00
C244   C     0.17502   0.72818   0.43043   0.00000  Uiso   1.00
C245   C     0.06900   0.67397   0.43264   0.00000  Uiso   1.00
C246   C     0.02757   0.66351   0.47129   0.00000  Uiso   1.00
C247   C     0.92937   0.61127   0.46625   0.00000  Uiso   1.00
C248   C     0.24621   0.65418   0.41234   0.00000  Uiso   1.00
C249   C     0.35379   0.62710   0.43392   0.00000  Uiso   1.00
C250   C     0.40478   0.55821   0.41179   0.00000  Uiso   1.00
C251   C     0.14084   0.80555   0.39310   0.00000  Uiso   1.00
C252   C     0.15984   0.90574   0.39848   0.00000  Uiso   1.00
C253   C     0.12214   0.96430   0.36015   0.00000  Uiso   1.00
H254   H     0.03171   0.62263   0.31993   0.00000  Uiso   1.00
H255   H     0.87382   0.55026   0.35271   0.00000  Uiso   1.00
H256   H     0.19999   0.51387   0.31535   0.00000  Uiso   1.00
H257   H     0.00607   0.79247   0.27992   0.00000  Uiso   1.00
H258   H     0.72293   0.48777   0.40767   0.00000  Uiso   1.00
H259   H     0.41069   0.41105   0.32888   0.00000  Uiso   1.00
H260   H     0.00177   0.99854   0.25416   0.00000  Uiso   1.00
H261   H     0.21762   0.75955   0.46328   0.00000  Uiso   1.00
H262   H     0.06993   0.69470   0.50393   0.00000  Uiso   1.00
H263   H     0.39610   0.65830   0.46656   0.00000  Uiso   1.00
H264   H     0.20218   0.93690   0.43113   0.00000  Uiso   1.00
H265   H     0.88209   0.60499   0.53040   0.00000  Uiso   1.00
H266   H     0.56986   0.52828   0.45161   0.00000  Uiso   1.00
H267   H     0.16094   0.11576   0.37690   0.00000  Uiso   1.00
O268   O     0.70202   0.50122   0.49319   0.00000  Uiso   1.00
O269   O     0.60434   0.40059   0.38982   0.00000  Uiso   1.00
O270   O     0.06785   0.17135   0.29180   0.00000  Uiso   1.00
N271   N     0.78064   0.52427   0.43097   0.00000  Uiso   1.00
N272   N     0.42365   0.45254   0.35731   0.00000  Uiso   1.00
N273   N     0.04137   0.00179   0.28746   0.00000  Uiso   1.00
N274   N     0.86629   0.58735   0.49701   0.00000  Uiso   1.00
N275   N     0.50930   0.51561   0.42335   0.00000  Uiso   1.00
N276   N     0.12702   0.06486   0.35350   0.00000  Uiso   1.00
C277   C     0.46258   0.87323   0.68929   0.00000  Uiso   1.00
C278   C     0.52873   0.83109   0.65710   0.00000  Uiso   1.00
C279   C     0.63563   0.79368   0.67009   0.00000  Uiso   1.00
C280   C     0.68169   0.75856   0.63548   0.00000  Uiso   1.00
C281   C     0.79333   0.69274   0.59249   0.00000  Uiso   1.00
C282   C     0.35502   0.81446   0.68056   0.00000  Uiso   1.00
C283   C     0.31587   0.76308   0.71328   0.00000  Uiso   1.00
C284   C     0.21571   0.71398   0.69842   0.00000  Uiso   1.00
C285   C     0.05762   0.62240   0.69186   0.00000  Uiso   1.00
C286   C     0.42977   0.97697   0.67226   0.00000  Uiso   1.00
C287   C     0.45345   0.06223   0.69800   0.00000  Uiso   1.00
C288   C     0.41619   0.14994   0.67615   0.00000  Uiso   1.00
C289   C     0.37417   0.31069   0.65670   0.00000  Uiso   1.00
C290   C     0.35429   0.87739   0.60473   0.00000  Uiso   1.00
C291   C     0.46990   0.83335   0.61117   0.00000  Uiso   1.00
C292   C     0.51582   0.79828   0.57654   0.00000  Uiso   1.00
C293   C     0.62277   0.76083   0.58947   0.00000  Uiso   1.00
C294   C     0.29620   0.81672   0.63464   0.00000  Uiso   1.00
C295   C     0.19606   0.76768   0.61973   0.00000  Uiso   1.00
C296   C     0.15678   0.71624   0.65241   0.00000  Uiso   1.00
C297   C     0.37095   0.97923   0.62633   0.00000  Uiso   1.00
C298   C     0.33364   0.06683   0.60445   0.00000  Uiso   1.00
C299   C     0.35726   0.15221   0.63014   0.00000  Uiso   1.00
H300   H     0.50836   0.87146   0.72504   0.00000  Uiso   1.00
H301   H     0.68112   0.79193   0.70563   0.00000  Uiso   1.00
H302   H     0.36140   0.76135   0.74882   0.00000  Uiso   1.00
H303   H     0.49896   0.06045   0.73353   0.00000  Uiso   1.00
H304   H     0.84669   0.70472   0.66386   0.00000  Uiso   1.00
H305   H     0.17254   0.64027   0.75492   0.00000  Uiso   1.00
H306   H     0.46261   0.27098   0.72270   0.00000  Uiso   1.00
H307   H     0.30849   0.87915   0.56898   0.00000  Uiso   1.00
H308   H     0.47028   0.80004   0.54100   0.00000  Uiso   1.00
H309   H     0.15057   0.76945   0.58419   0.00000  Uiso   1.00
H310   H     0.28813   0.06855   0.56890   0.00000  Uiso   1.00
H311   H     0.67557   0.71130   0.53024   0.00000  Uiso   1.00
H312   H     0.00141   0.64684   0.62130   0.00000  Uiso   1.00
H313   H     0.29148   0.27755   0.58908   0.00000  Uiso   1.00
O314   O     0.87115   0.65580   0.58147   0.00000  Uiso   1.00
O315   O     0.98669   0.57126   0.70093   0.00000  Uiso   1.00
O316   O     0.36725   0.39873   0.65866   0.00000  Uiso   1.00
N317   N     0.78422   0.71715   0.63625   0.00000  Uiso   1.00
N318   N     0.15394   0.65687   0.72138   0.00000  Uiso   1.00
N319   N     0.42510   0.24653   0.69126   0.00000  Uiso   1.00
N320   N     0.69214   0.72068   0.56435   0.00000  Uiso   1.00
N321   N     0.06186   0.66041   0.64948   0.00000  Uiso   1.00
N322   N     0.33302   0.25007   0.61936   0.00000  Uiso   1.00
C323   C     0.92570   0.15400   0.14723   0.00000  Uiso   1.00
C324   C     0.98571   0.13368   0.10954   0.00000  Uiso   1.00
C325   C     0.08387   0.08144   0.11464   0.00000  Uiso   1.00
C326   C     0.12543   0.07090   0.07601   0.00000  Uiso   1.00
C327   C     0.22690   0.03317   0.02390   0.00000  Uiso   1.00
C328   C     0.80850   0.11389   0.12984   0.00000  Uiso   1.00
C329   C     0.75765   0.04503   0.15200   0.00000  Uiso   1.00
C330   C     0.65003   0.01785   0.13046   0.00000  Uiso   1.00
C331   C     0.47634   0.94945   0.10988   0.00000  Uiso   1.00
C332   C     0.91387   0.26526   0.14909   0.00000  Uiso   1.00
C333   C     0.95159   0.32368   0.18744   0.00000  Uiso   1.00
C334   C     0.93267   0.42394   0.18211   0.00000  Uiso   1.00
C335   C     0.92259   0.59057   0.19142   0.00000  Uiso   1.00
C336   C     0.82498   0.22818   0.06957   0.00000  Uiso   1.00
C337   C     0.93100   0.17397   0.06736   0.00000  Uiso   1.00
C338   C     0.97243   0.16351   0.02871   0.00000  Uiso   1.00
C339   C     0.07063   0.11127   0.03375   0.00000  Uiso   1.00
C340   C     0.75379   0.15418   0.08766   0.00000  Uiso   1.00
C341   C     0.64621   0.12710   0.06608   0.00000  Uiso   1.00
C342   C     0.59522   0.05821   0.08821   0.00000  Uiso   1.00
C343   C     0.85916   0.30555   0.10690   0.00000  Uiso   1.00
C344   C     0.84016   0.40574   0.10152   0.00000  Uiso   1.00
C345   C     0.87786   0.46430   0.13985   0.00000  Uiso   1.00
H346   H     0.96829   0.12263   0.18007   0.00000  Uiso   1.00
H347   H     0.12618   0.05026   0.14729   0.00000  Uiso   1.00
H348   H     0.80001   0.01387   0.18465   0.00000  Uiso   1.00
H349   H     0.99393   0.29247   0.22008   0.00000  Uiso   1.00
H350   H     0.27707   0.98777   0.09233   0.00000  Uiso   1.00
H351   H     0.58931   0.91105   0.17112   0.00000  Uiso   1.00
H352   H     0.99823   0.49854   0.24584   0.00000  Uiso   1.00
H353   H     0.78238   0.25955   0.03672   0.00000  Uiso   1.00
H354   H     0.93007   0.19470   0.99607   0.00000  Uiso   1.00
H355   H     0.60390   0.15830   0.03344   0.00000  Uiso   1.00
H356   H     0.79782   0.43690   0.06887   0.00000  Uiso   1.00
H357   H     0.11791   0.10499   0.96960   0.00000  Uiso   1.00
H358   H     0.43014   0.02828   0.04839   0.00000  Uiso   1.00
H359   H     0.83906   0.61576   0.12310   0.00000  Uiso   1.00
O360   O     0.29798   0.00122   0.00681   0.00000  Uiso   1.00
O361   O     0.39566   0.90059   0.11018   0.00000  Uiso   1.00
O362   O     0.93215   0.67135   0.20820   0.00000  Uiso   1.00
N363   N     0.21936   0.02427   0.06903   0.00000  Uiso   1.00
N364   N     0.57635   0.95254   0.14269   0.00000  Uiso   1.00
N365   N     0.95863   0.50179   0.21254   0.00000  Uiso   1.00
N366   N     0.13371   0.08735   0.00299   0.00000  Uiso   1.00
N367   N     0.49070   0.01561   0.07665   0.00000  Uiso   1.00
N368   N     0.87298   0.56486   0.14650   0.00000  Uiso   1.00
