data_job_05892
_audit_creation_date              2018-12-19
_audit_creation_method            'Materials Studio'
_symmetry_space_group_name_H-M    'P1'
_symmetry_Int_Tables_number       1
_symmetry_cell_setting            triclinic
loop_
_symmetry_equiv_pos_as_xyz
  x,y,z
_cell_length_a                    22.4338
_cell_length_b                    34.3780
_cell_length_c                    18.1197
_cell_angle_alpha                 90.0000
_cell_angle_beta                  152.3263
_cell_angle_gamma                 90.0000
loop_
_atom_site_label
_atom_site_type_symbol
_atom_site_fract_x
_atom_site_fract_y
_atom_site_fract_z
_atom_site_U_iso_or_equiv
_atom_site_adp_type
_atom_site_occupancy
C1     C     0.91276   0.35046   0.44836   0.00000  Uiso   1.00
C2     C     0.84921   0.38632   0.34523   0.00000  Uiso   1.00
C3     C     0.75669   0.40920   0.27768   0.00000  Uiso   1.00
C4     C     0.71050   0.44075   0.18724   0.00000  Uiso   1.00
C5     C     0.60496   0.49515   0.03038   0.00000  Uiso   1.00
C6     C     0.88879   0.31734   0.36781   0.00000  Uiso   1.00
C7     C     0.82955   0.28223   0.31928   0.00000  Uiso   1.00
C8     C     0.81669   0.25570   0.24786   0.00000  Uiso   1.00
C9     C     0.77267   0.20300   0.12618   0.00000  Uiso   1.00
C10    C     0.05682   0.35822   0.60427   0.00000  Uiso   1.00
C11    C     0.13888   0.35747   0.75456   0.00000  Uiso   1.00
C12    C     0.26750   0.36535   0.88223   0.00000  Uiso   1.00
C13    C     0.48437   0.37612   0.12768   0.00000  Uiso   1.00
C14    C     0.99527   0.36578   0.40786   0.00000  Uiso   1.00
C15    C     0.89403   0.39463   0.32323   0.00000  Uiso   1.00
C16    C     0.84797   0.42615   0.23287   0.00000  Uiso   1.00
C17    C     0.75539   0.44909   0.16521   0.00000  Uiso   1.00
C18    C     0.93359   0.32566   0.34581   0.00000  Uiso   1.00
C19    C     0.92083   0.29918   0.27446   0.00000  Uiso   1.00
C20    C     0.86158   0.26404   0.22582   0.00000  Uiso   1.00
C21    C     0.10163   0.36654   0.58227   0.00000  Uiso   1.00
C22    C     0.23015   0.37442   0.70974   0.00000  Uiso   1.00
C23    C     0.31239   0.37369   0.86019   0.00000  Uiso   1.00
H24    H     0.87787   0.34398   0.46548   0.00000  Uiso   1.00
H25    H     0.72203   0.40275   0.29472   0.00000  Uiso   1.00
H26    H     0.79489   0.27580   0.33633   0.00000  Uiso   1.00
H27    H     0.10416   0.35103   0.77153   0.00000  Uiso   1.00
H28    H     0.56897   0.47158   0.09566   0.00000  Uiso   1.00
H29    H     0.72265   0.20388   0.18343   0.00000  Uiso   1.00
H30    H     0.37481   0.36252   0.10115   0.00000  Uiso   1.00
H31    H     0.03015   0.37225   0.39073   0.00000  Uiso   1.00
H32    H     0.88266   0.43259   0.21587   0.00000  Uiso   1.00
H33    H     0.95552   0.30563   0.25747   0.00000  Uiso   1.00
H34    H     0.26480   0.38086   0.69267   0.00000  Uiso   1.00
H35    H     0.69934   0.49579   0.03164   0.00000  Uiso   1.00
H36    H     0.85302   0.22809   0.11943   0.00000  Uiso   1.00
H37    H     0.50519   0.38673   0.03714   0.00000  Uiso   1.00
O38    O     0.53435   0.52286   0.94992   0.00000  Uiso   1.00
O39    O     0.73600   0.17164   0.06512   0.00000  Uiso   1.00
O40    O     0.59161   0.37977   0.26913   0.00000  Uiso   1.00
N41    N     0.61991   0.46900   0.10461   0.00000  Uiso   1.00
N42    N     0.76357   0.21872   0.18666   0.00000  Uiso   1.00
N43    N     0.37330   0.36702   0.04465   0.00000  Uiso   1.00
N44    N     0.69007   0.48203   0.07017   0.00000  Uiso   1.00
N45    N     0.83373   0.23175   0.15222   0.00000  Uiso   1.00
N46    N     0.44345   0.38005   0.01021   0.00000  Uiso   1.00
C47    C     0.41276   0.85046   0.44836   0.00000  Uiso   1.00
C48    C     0.34921   0.88632   0.34523   0.00000  Uiso   1.00
C49    C     0.25669   0.90920   0.27768   0.00000  Uiso   1.00
C50    C     0.21050   0.94075   0.18724   0.00000  Uiso   1.00
C51    C     0.10496   0.99515   0.03038   0.00000  Uiso   1.00
C52    C     0.38879   0.81734   0.36781   0.00000  Uiso   1.00
C53    C     0.32955   0.78223   0.31928   0.00000  Uiso   1.00
C54    C     0.31669   0.75570   0.24786   0.00000  Uiso   1.00
C55    C     0.27267   0.70300   0.12618   0.00000  Uiso   1.00
C56    C     0.55682   0.85822   0.60427   0.00000  Uiso   1.00
C57    C     0.63888   0.85747   0.75456   0.00000  Uiso   1.00
C58    C     0.76750   0.86535   0.88223   0.00000  Uiso   1.00
C59    C     0.98437   0.87612   0.12768   0.00000  Uiso   1.00
C60    C     0.49527   0.86578   0.40786   0.00000  Uiso   1.00
C61    C     0.39403   0.89463   0.32323   0.00000  Uiso   1.00
C62    C     0.34797   0.92615   0.23287   0.00000  Uiso   1.00
C63    C     0.25539   0.94909   0.16521   0.00000  Uiso   1.00
C64    C     0.43359   0.82566   0.34581   0.00000  Uiso   1.00
C65    C     0.42083   0.79918   0.27446   0.00000  Uiso   1.00
C66    C     0.36158   0.76404   0.22582   0.00000  Uiso   1.00
C67    C     0.60163   0.86654   0.58227   0.00000  Uiso   1.00
C68    C     0.73015   0.87442   0.70974   0.00000  Uiso   1.00
C69    C     0.81239   0.87369   0.86019   0.00000  Uiso   1.00
H70    H     0.37787   0.84398   0.46548   0.00000  Uiso   1.00
H71    H     0.22203   0.90275   0.29472   0.00000  Uiso   1.00
H72    H     0.29489   0.77580   0.33633   0.00000  Uiso   1.00
H73    H     0.60416   0.85103   0.77153   0.00000  Uiso   1.00
H74    H     0.06897   0.97158   0.09566   0.00000  Uiso   1.00
H75    H     0.22265   0.70388   0.18343   0.00000  Uiso   1.00
H76    H     0.87481   0.86252   0.10115   0.00000  Uiso   1.00
H77    H     0.53015   0.87225   0.39073   0.00000  Uiso   1.00
H78    H     0.38266   0.93259   0.21587   0.00000  Uiso   1.00
H79    H     0.45552   0.80563   0.25747   0.00000  Uiso   1.00
H80    H     0.76480   0.88086   0.69267   0.00000  Uiso   1.00
H81    H     0.19934   0.99579   0.03164   0.00000  Uiso   1.00
H82    H     0.35302   0.72809   0.11943   0.00000  Uiso   1.00
H83    H     0.00519   0.88673   0.03714   0.00000  Uiso   1.00
O84    O     0.03435   0.02286   0.94992   0.00000  Uiso   1.00
O85    O     0.23600   0.67164   0.06512   0.00000  Uiso   1.00
O86    O     0.09161   0.87977   0.26913   0.00000  Uiso   1.00
N87    N     0.11991   0.96900   0.10461   0.00000  Uiso   1.00
N88    N     0.26357   0.71872   0.18666   0.00000  Uiso   1.00
N89    N     0.87330   0.86702   0.04465   0.00000  Uiso   1.00
N90    N     0.19007   0.98203   0.07017   0.00000  Uiso   1.00
N91    N     0.33373   0.73175   0.15222   0.00000  Uiso   1.00
N92    N     0.94345   0.88005   0.01021   0.00000  Uiso   1.00
C93    C     0.08724   0.35046   0.05164   0.00000  Uiso   1.00
C94    C     0.15079   0.38632   0.15477   0.00000  Uiso   1.00
C95    C     0.24331   0.40920   0.22232   0.00000  Uiso   1.00
C96    C     0.28950   0.44075   0.31276   0.00000  Uiso   1.00
C97    C     0.39504   0.49515   0.46962   0.00000  Uiso   1.00
C98    C     0.11121   0.31734   0.13219   0.00000  Uiso   1.00
C99    C     0.17045   0.28223   0.18072   0.00000  Uiso   1.00
C100   C     0.18331   0.25570   0.25214   0.00000  Uiso   1.00
C101   C     0.22733   0.20300   0.37382   0.00000  Uiso   1.00
C102   C     0.94318   0.35822   0.89573   0.00000  Uiso   1.00
C103   C     0.86112   0.35747   0.74544   0.00000  Uiso   1.00
C104   C     0.73250   0.36535   0.61777   0.00000  Uiso   1.00
C105   C     0.51563   0.37612   0.37232   0.00000  Uiso   1.00
C106   C     0.00473   0.36578   0.09214   0.00000  Uiso   1.00
C107   C     0.10597   0.39463   0.17677   0.00000  Uiso   1.00
C108   C     0.15203   0.42615   0.26713   0.00000  Uiso   1.00
C109   C     0.24461   0.44909   0.33479   0.00000  Uiso   1.00
C110   C     0.06641   0.32566   0.15419   0.00000  Uiso   1.00
C111   C     0.07917   0.29918   0.22554   0.00000  Uiso   1.00
C112   C     0.13842   0.26404   0.27418   0.00000  Uiso   1.00
C113   C     0.89837   0.36654   0.91773   0.00000  Uiso   1.00
C114   C     0.76985   0.37442   0.79026   0.00000  Uiso   1.00
C115   C     0.68761   0.37369   0.63981   0.00000  Uiso   1.00
H116   H     0.12213   0.34398   0.03452   0.00000  Uiso   1.00
H117   H     0.27797   0.40275   0.20528   0.00000  Uiso   1.00
H118   H     0.20511   0.27580   0.16367   0.00000  Uiso   1.00
H119   H     0.89584   0.35103   0.72847   0.00000  Uiso   1.00
H120   H     0.43103   0.47158   0.40434   0.00000  Uiso   1.00
H121   H     0.27735   0.20388   0.31657   0.00000  Uiso   1.00
H122   H     0.62519   0.36252   0.39885   0.00000  Uiso   1.00
H123   H     0.96985   0.37225   0.10927   0.00000  Uiso   1.00
H124   H     0.11734   0.43259   0.28413   0.00000  Uiso   1.00
H125   H     0.04448   0.30563   0.24253   0.00000  Uiso   1.00
H126   H     0.73520   0.38086   0.80733   0.00000  Uiso   1.00
H127   H     0.30066   0.49579   0.46836   0.00000  Uiso   1.00
H128   H     0.14698   0.22809   0.38057   0.00000  Uiso   1.00
H129   H     0.49481   0.38673   0.46286   0.00000  Uiso   1.00
O130   O     0.46565   0.52286   0.55008   0.00000  Uiso   1.00
O131   O     0.26400   0.17164   0.43488   0.00000  Uiso   1.00
O132   O     0.40839   0.37977   0.23087   0.00000  Uiso   1.00
N133   N     0.38009   0.46900   0.39539   0.00000  Uiso   1.00
N134   N     0.23643   0.21872   0.31334   0.00000  Uiso   1.00
N135   N     0.62670   0.36702   0.45535   0.00000  Uiso   1.00
N136   N     0.30993   0.48203   0.42983   0.00000  Uiso   1.00
N137   N     0.16627   0.23175   0.34778   0.00000  Uiso   1.00
N138   N     0.55655   0.38005   0.48979   0.00000  Uiso   1.00
C139   C     0.58724   0.85046   0.05164   0.00000  Uiso   1.00
C140   C     0.65079   0.88632   0.15477   0.00000  Uiso   1.00
C141   C     0.74331   0.90920   0.22232   0.00000  Uiso   1.00
C142   C     0.78950   0.94075   0.31276   0.00000  Uiso   1.00
C143   C     0.89504   0.99515   0.46962   0.00000  Uiso   1.00
C144   C     0.61121   0.81734   0.13219   0.00000  Uiso   1.00
C145   C     0.67045   0.78223   0.18072   0.00000  Uiso   1.00
C146   C     0.68331   0.75570   0.25214   0.00000  Uiso   1.00
C147   C     0.72733   0.70300   0.37382   0.00000  Uiso   1.00
C148   C     0.44318   0.85822   0.89573   0.00000  Uiso   1.00
C149   C     0.36112   0.85747   0.74544   0.00000  Uiso   1.00
C150   C     0.23250   0.86535   0.61777   0.00000  Uiso   1.00
C151   C     0.01563   0.87612   0.37232   0.00000  Uiso   1.00
C152   C     0.50473   0.86578   0.09214   0.00000  Uiso   1.00
C153   C     0.60597   0.89463   0.17677   0.00000  Uiso   1.00
C154   C     0.65203   0.92615   0.26713   0.00000  Uiso   1.00
C155   C     0.74461   0.94909   0.33479   0.00000  Uiso   1.00
C156   C     0.56641   0.82566   0.15419   0.00000  Uiso   1.00
C157   C     0.57917   0.79918   0.22554   0.00000  Uiso   1.00
C158   C     0.63842   0.76404   0.27418   0.00000  Uiso   1.00
C159   C     0.39837   0.86654   0.91773   0.00000  Uiso   1.00
C160   C     0.26985   0.87442   0.79026   0.00000  Uiso   1.00
C161   C     0.18761   0.87369   0.63981   0.00000  Uiso   1.00
H162   H     0.62213   0.84398   0.03452   0.00000  Uiso   1.00
H163   H     0.77797   0.90275   0.20528   0.00000  Uiso   1.00
H164   H     0.70511   0.77580   0.16367   0.00000  Uiso   1.00
H165   H     0.39584   0.85103   0.72847   0.00000  Uiso   1.00
H166   H     0.93103   0.97158   0.40434   0.00000  Uiso   1.00
H167   H     0.77735   0.70388   0.31657   0.00000  Uiso   1.00
H168   H     0.12519   0.86252   0.39885   0.00000  Uiso   1.00
H169   H     0.46985   0.87225   0.10927   0.00000  Uiso   1.00
H170   H     0.61734   0.93259   0.28413   0.00000  Uiso   1.00
H171   H     0.54448   0.80563   0.24253   0.00000  Uiso   1.00
H172   H     0.23520   0.88086   0.80733   0.00000  Uiso   1.00
H173   H     0.80066   0.99579   0.46836   0.00000  Uiso   1.00
H174   H     0.64698   0.72809   0.38057   0.00000  Uiso   1.00
H175   H     0.99481   0.88673   0.46286   0.00000  Uiso   1.00
O176   O     0.96565   0.02286   0.55008   0.00000  Uiso   1.00
O177   O     0.76400   0.67164   0.43488   0.00000  Uiso   1.00
O178   O     0.90839   0.87977   0.23087   0.00000  Uiso   1.00
N179   N     0.88009   0.96900   0.39539   0.00000  Uiso   1.00
N180   N     0.73643   0.71872   0.31334   0.00000  Uiso   1.00
N181   N     0.12670   0.86702   0.45535   0.00000  Uiso   1.00
N182   N     0.80993   0.98203   0.42983   0.00000  Uiso   1.00
N183   N     0.66627   0.73175   0.34778   0.00000  Uiso   1.00
N184   N     0.05655   0.88005   0.48979   0.00000  Uiso   1.00
C185   C     0.08724   0.64954   0.55164   0.00000  Uiso   1.00
C186   C     0.15079   0.61368   0.65477   0.00000  Uiso   1.00
C187   C     0.24331   0.59080   0.72232   0.00000  Uiso   1.00
C188   C     0.28950   0.55925   0.81276   0.00000  Uiso   1.00
C189   C     0.39504   0.50485   0.96962   0.00000  Uiso   1.00
C190   C     0.11121   0.68266   0.63219   0.00000  Uiso   1.00
C191   C     0.17045   0.71777   0.68072   0.00000  Uiso   1.00
C192   C     0.18331   0.74430   0.75214   0.00000  Uiso   1.00
C193   C     0.22733   0.79700   0.87382   0.00000  Uiso   1.00
C194   C     0.94318   0.64178   0.39573   0.00000  Uiso   1.00
C195   C     0.86112   0.64253   0.24544   0.00000  Uiso   1.00
C196   C     0.73250   0.63465   0.11777   0.00000  Uiso   1.00
C197   C     0.51563   0.62388   0.87232   0.00000  Uiso   1.00
C198   C     0.00473   0.63422   0.59214   0.00000  Uiso   1.00
C199   C     0.10597   0.60537   0.67677   0.00000  Uiso   1.00
C200   C     0.15203   0.57385   0.76713   0.00000  Uiso   1.00
C201   C     0.24461   0.55091   0.83479   0.00000  Uiso   1.00
C202   C     0.06641   0.67434   0.65419   0.00000  Uiso   1.00
C203   C     0.07917   0.70082   0.72554   0.00000  Uiso   1.00
C204   C     0.13842   0.73596   0.77418   0.00000  Uiso   1.00
C205   C     0.89837   0.63346   0.41773   0.00000  Uiso   1.00
C206   C     0.76985   0.62558   0.29026   0.00000  Uiso   1.00
C207   C     0.68761   0.62631   0.13981   0.00000  Uiso   1.00
H208   H     0.12213   0.65602   0.53452   0.00000  Uiso   1.00
H209   H     0.27797   0.59725   0.70528   0.00000  Uiso   1.00
H210   H     0.20511   0.72420   0.66367   0.00000  Uiso   1.00
H211   H     0.89584   0.64897   0.22847   0.00000  Uiso   1.00
H212   H     0.43103   0.52842   0.90434   0.00000  Uiso   1.00
H213   H     0.27735   0.79612   0.81657   0.00000  Uiso   1.00
H214   H     0.62519   0.63748   0.89885   0.00000  Uiso   1.00
H215   H     0.96985   0.62775   0.60927   0.00000  Uiso   1.00
H216   H     0.11734   0.56741   0.78413   0.00000  Uiso   1.00
H217   H     0.04448   0.69437   0.74253   0.00000  Uiso   1.00
H218   H     0.73520   0.61914   0.30733   0.00000  Uiso   1.00
H219   H     0.30066   0.50421   0.96836   0.00000  Uiso   1.00
H220   H     0.14698   0.77191   0.88057   0.00000  Uiso   1.00
H221   H     0.49481   0.61327   0.96286   0.00000  Uiso   1.00
O222   O     0.46565   0.47714   0.05008   0.00000  Uiso   1.00
O223   O     0.26400   0.82836   0.93488   0.00000  Uiso   1.00
O224   O     0.40839   0.62023   0.73087   0.00000  Uiso   1.00
N225   N     0.38009   0.53100   0.89539   0.00000  Uiso   1.00
N226   N     0.23643   0.78128   0.81334   0.00000  Uiso   1.00
N227   N     0.62670   0.63298   0.95535   0.00000  Uiso   1.00
N228   N     0.30993   0.51797   0.92983   0.00000  Uiso   1.00
N229   N     0.16627   0.76825   0.84778   0.00000  Uiso   1.00
N230   N     0.55655   0.61995   0.98979   0.00000  Uiso   1.00
C231   C     0.58724   0.14954   0.55164   0.00000  Uiso   1.00
C232   C     0.65079   0.11368   0.65477   0.00000  Uiso   1.00
C233   C     0.74331   0.09080   0.72232   0.00000  Uiso   1.00
C234   C     0.78950   0.05925   0.81276   0.00000  Uiso   1.00
C235   C     0.89504   0.00485   0.96962   0.00000  Uiso   1.00
C236   C     0.61121   0.18266   0.63219   0.00000  Uiso   1.00
C237   C     0.67045   0.21777   0.68072   0.00000  Uiso   1.00
C238   C     0.68331   0.24430   0.75214   0.00000  Uiso   1.00
C239   C     0.72733   0.29700   0.87382   0.00000  Uiso   1.00
C240   C     0.44318   0.14178   0.39573   0.00000  Uiso   1.00
C241   C     0.36112   0.14253   0.24544   0.00000  Uiso   1.00
C242   C     0.23250   0.13465   0.11777   0.00000  Uiso   1.00
C243   C     0.01563   0.12388   0.87232   0.00000  Uiso   1.00
C244   C     0.50473   0.13422   0.59214   0.00000  Uiso   1.00
C245   C     0.60597   0.10537   0.67677   0.00000  Uiso   1.00
C246   C     0.65203   0.07385   0.76713   0.00000  Uiso   1.00
C247   C     0.74461   0.05091   0.83479   0.00000  Uiso   1.00
C248   C     0.56641   0.17434   0.65419   0.00000  Uiso   1.00
C249   C     0.57917   0.20082   0.72554   0.00000  Uiso   1.00
C250   C     0.63842   0.23596   0.77418   0.00000  Uiso   1.00
C251   C     0.39837   0.13346   0.41773   0.00000  Uiso   1.00
C252   C     0.26985   0.12558   0.29026   0.00000  Uiso   1.00
C253   C     0.18761   0.12631   0.13981   0.00000  Uiso   1.00
H254   H     0.62213   0.15602   0.53452   0.00000  Uiso   1.00
H255   H     0.77797   0.09725   0.70528   0.00000  Uiso   1.00
H256   H     0.70511   0.22420   0.66367   0.00000  Uiso   1.00
H257   H     0.39584   0.14897   0.22847   0.00000  Uiso   1.00
H258   H     0.93103   0.02842   0.90434   0.00000  Uiso   1.00
H259   H     0.77735   0.29612   0.81657   0.00000  Uiso   1.00
H260   H     0.12519   0.13748   0.89885   0.00000  Uiso   1.00
H261   H     0.46985   0.12775   0.60927   0.00000  Uiso   1.00
H262   H     0.61734   0.06741   0.78413   0.00000  Uiso   1.00
H263   H     0.54448   0.19437   0.74253   0.00000  Uiso   1.00
H264   H     0.23520   0.11914   0.30733   0.00000  Uiso   1.00
H265   H     0.80066   0.00421   0.96836   0.00000  Uiso   1.00
H266   H     0.64698   0.27191   0.88057   0.00000  Uiso   1.00
H267   H     0.99481   0.11327   0.96286   0.00000  Uiso   1.00
O268   O     0.96565   0.97714   0.05008   0.00000  Uiso   1.00
O269   O     0.76400   0.32836   0.93488   0.00000  Uiso   1.00
O270   O     0.90839   0.12023   0.73087   0.00000  Uiso   1.00
N271   N     0.88009   0.03100   0.89539   0.00000  Uiso   1.00
N272   N     0.73643   0.28128   0.81334   0.00000  Uiso   1.00
N273   N     0.12670   0.13298   0.95535   0.00000  Uiso   1.00
N274   N     0.80993   0.01797   0.92983   0.00000  Uiso   1.00
N275   N     0.66627   0.26825   0.84778   0.00000  Uiso   1.00
N276   N     0.05655   0.11995   0.98979   0.00000  Uiso   1.00
C277   C     0.91276   0.64954   0.94836   0.00000  Uiso   1.00
C278   C     0.84921   0.61368   0.84523   0.00000  Uiso   1.00
C279   C     0.75669   0.59080   0.77768   0.00000  Uiso   1.00
C280   C     0.71050   0.55925   0.68724   0.00000  Uiso   1.00
C281   C     0.60496   0.50485   0.53038   0.00000  Uiso   1.00
C282   C     0.88879   0.68266   0.86781   0.00000  Uiso   1.00
C283   C     0.82955   0.71777   0.81928   0.00000  Uiso   1.00
C284   C     0.81669   0.74430   0.74786   0.00000  Uiso   1.00
C285   C     0.77267   0.79700   0.62618   0.00000  Uiso   1.00
C286   C     0.05682   0.64178   0.10427   0.00000  Uiso   1.00
C287   C     0.13888   0.64253   0.25456   0.00000  Uiso   1.00
C288   C     0.26750   0.63465   0.38223   0.00000  Uiso   1.00
C289   C     0.48437   0.62388   0.62768   0.00000  Uiso   1.00
C290   C     0.99527   0.63422   0.90786   0.00000  Uiso   1.00
C291   C     0.89403   0.60537   0.82323   0.00000  Uiso   1.00
C292   C     0.84797   0.57385   0.73287   0.00000  Uiso   1.00
C293   C     0.75539   0.55091   0.66521   0.00000  Uiso   1.00
C294   C     0.93359   0.67434   0.84581   0.00000  Uiso   1.00
C295   C     0.92083   0.70082   0.77446   0.00000  Uiso   1.00
C296   C     0.86158   0.73596   0.72582   0.00000  Uiso   1.00
C297   C     0.10163   0.63346   0.08227   0.00000  Uiso   1.00
C298   C     0.23015   0.62558   0.20974   0.00000  Uiso   1.00
C299   C     0.31239   0.62631   0.36019   0.00000  Uiso   1.00
H300   H     0.87787   0.65602   0.96548   0.00000  Uiso   1.00
H301   H     0.72203   0.59725   0.79472   0.00000  Uiso   1.00
H302   H     0.79489   0.72420   0.83633   0.00000  Uiso   1.00
H303   H     0.10416   0.64897   0.27153   0.00000  Uiso   1.00
H304   H     0.56897   0.52842   0.59566   0.00000  Uiso   1.00
H305   H     0.72265   0.79612   0.68343   0.00000  Uiso   1.00
H306   H     0.37481   0.63748   0.60115   0.00000  Uiso   1.00
H307   H     0.03015   0.62775   0.89073   0.00000  Uiso   1.00
H308   H     0.88266   0.56741   0.71587   0.00000  Uiso   1.00
H309   H     0.95552   0.69437   0.75747   0.00000  Uiso   1.00
H310   H     0.26480   0.61914   0.19267   0.00000  Uiso   1.00
H311   H     0.69934   0.50421   0.53164   0.00000  Uiso   1.00
H312   H     0.85302   0.77191   0.61943   0.00000  Uiso   1.00
H313   H     0.50519   0.61327   0.53714   0.00000  Uiso   1.00
O314   O     0.53435   0.47714   0.44992   0.00000  Uiso   1.00
O315   O     0.73600   0.82836   0.56512   0.00000  Uiso   1.00
O316   O     0.59161   0.62023   0.76913   0.00000  Uiso   1.00
N317   N     0.61991   0.53100   0.60461   0.00000  Uiso   1.00
N318   N     0.76357   0.78128   0.68666   0.00000  Uiso   1.00
N319   N     0.37330   0.63298   0.54465   0.00000  Uiso   1.00
N320   N     0.69007   0.51797   0.57017   0.00000  Uiso   1.00
N321   N     0.83373   0.76825   0.65222   0.00000  Uiso   1.00
N322   N     0.44345   0.61995   0.51021   0.00000  Uiso   1.00
C323   C     0.41276   0.14954   0.94836   0.00000  Uiso   1.00
C324   C     0.34921   0.11368   0.84523   0.00000  Uiso   1.00
C325   C     0.25669   0.09080   0.77768   0.00000  Uiso   1.00
C326   C     0.21050   0.05925   0.68724   0.00000  Uiso   1.00
C327   C     0.10496   0.00485   0.53038   0.00000  Uiso   1.00
C328   C     0.38879   0.18266   0.86781   0.00000  Uiso   1.00
C329   C     0.32955   0.21777   0.81928   0.00000  Uiso   1.00
C330   C     0.31669   0.24430   0.74786   0.00000  Uiso   1.00
C331   C     0.27267   0.29700   0.62618   0.00000  Uiso   1.00
C332   C     0.55682   0.14178   0.10427   0.00000  Uiso   1.00
C333   C     0.63888   0.14253   0.25456   0.00000  Uiso   1.00
C334   C     0.76750   0.13465   0.38223   0.00000  Uiso   1.00
C335   C     0.98437   0.12388   0.62768   0.00000  Uiso   1.00
C336   C     0.49527   0.13422   0.90786   0.00000  Uiso   1.00
C337   C     0.39403   0.10537   0.82323   0.00000  Uiso   1.00
C338   C     0.34797   0.07385   0.73287   0.00000  Uiso   1.00
C339   C     0.25539   0.05091   0.66521   0.00000  Uiso   1.00
C340   C     0.43359   0.17434   0.84581   0.00000  Uiso   1.00
C341   C     0.42083   0.20082   0.77446   0.00000  Uiso   1.00
C342   C     0.36158   0.23596   0.72582   0.00000  Uiso   1.00
C343   C     0.60163   0.13346   0.08227   0.00000  Uiso   1.00
C344   C     0.73015   0.12558   0.20974   0.00000  Uiso   1.00
C345   C     0.81239   0.12631   0.36019   0.00000  Uiso   1.00
H346   H     0.37787   0.15602   0.96548   0.00000  Uiso   1.00
H347   H     0.22203   0.09725   0.79472   0.00000  Uiso   1.00
H348   H     0.29489   0.22420   0.83633   0.00000  Uiso   1.00
H349   H     0.60416   0.14897   0.27153   0.00000  Uiso   1.00
H350   H     0.06897   0.02842   0.59566   0.00000  Uiso   1.00
H351   H     0.22265   0.29612   0.68343   0.00000  Uiso   1.00
H352   H     0.87481   0.13748   0.60115   0.00000  Uiso   1.00
H353   H     0.53015   0.12775   0.89073   0.00000  Uiso   1.00
H354   H     0.38266   0.06741   0.71587   0.00000  Uiso   1.00
H355   H     0.45552   0.19437   0.75747   0.00000  Uiso   1.00
H356   H     0.76480   0.11914   0.19267   0.00000  Uiso   1.00
H357   H     0.19934   0.00421   0.53164   0.00000  Uiso   1.00
H358   H     0.35302   0.27191   0.61943   0.00000  Uiso   1.00
H359   H     0.00519   0.11327   0.53714   0.00000  Uiso   1.00
O360   O     0.03435   0.97714   0.44992   0.00000  Uiso   1.00
O361   O     0.23600   0.32836   0.56512   0.00000  Uiso   1.00
O362   O     0.09161   0.12023   0.76913   0.00000  Uiso   1.00
N363   N     0.11991   0.03100   0.60461   0.00000  Uiso   1.00
N364   N     0.26357   0.28128   0.68666   0.00000  Uiso   1.00
N365   N     0.87330   0.13298   0.54465   0.00000  Uiso   1.00
N366   N     0.19007   0.01797   0.57017   0.00000  Uiso   1.00
N367   N     0.33373   0.26825   0.65222   0.00000  Uiso   1.00
N368   N     0.94345   0.11995   0.51021   0.00000  Uiso   1.00
