data_job_06824
_audit_creation_date              2018-12-19
_audit_creation_method            'Materials Studio'
_symmetry_space_group_name_H-M    'P1'
_symmetry_Int_Tables_number       1
_symmetry_cell_setting            triclinic
loop_
_symmetry_equiv_pos_as_xyz
  x,y,z
_cell_length_a                    21.4614
_cell_length_b                    19.5456
_cell_length_c                    21.1906
_cell_angle_alpha                 86.5853
_cell_angle_beta                  90.1253
_cell_angle_gamma                 87.8293
loop_
_atom_site_label
_atom_site_type_symbol
_atom_site_fract_x
_atom_site_fract_y
_atom_site_fract_z
_atom_site_U_iso_or_equiv
_atom_site_adp_type
_atom_site_occupancy
C1     C     0.62814   0.29575   0.15284   0.00000  Uiso   1.00
C2     C     0.62709   0.21820   0.14854   0.00000  Uiso   1.00
C3     C     0.67589   0.17647   0.12825   0.00000  Uiso   1.00
C4     C     0.66568   0.10678   0.12774   0.00000  Uiso   1.00
C5     C     0.67270   0.99047   0.11812   0.00000  Uiso   1.00
C6     C     0.57332   0.32566   0.11295   0.00000  Uiso   1.00
C7     C     0.57691   0.37428   0.06275   0.00000  Uiso   1.00
C8     C     0.52143   0.39505   0.03228   0.00000  Uiso   1.00
C9     C     0.44497   0.44560   0.96744   0.00000  Uiso   1.00
C10    C     0.61214   0.30945   0.22113   0.00000  Uiso   1.00
C11    C     0.64835   0.34445   0.26189   0.00000  Uiso   1.00
C12    C     0.62555   0.35160   0.32251   0.00000  Uiso   1.00
C13    C     0.60936   0.37697   0.42564   0.00000  Uiso   1.00
C14    C     0.52325   0.24621   0.18801   0.00000  Uiso   1.00
C15    C     0.57011   0.19129   0.16764   0.00000  Uiso   1.00
C16    C     0.55983   0.12165   0.16716   0.00000  Uiso   1.00
C17    C     0.60861   0.07982   0.14688   0.00000  Uiso   1.00
C18    C     0.51634   0.29875   0.13205   0.00000  Uiso   1.00
C19    C     0.46085   0.31946   0.10165   0.00000  Uiso   1.00
C20    C     0.46435   0.36809   0.05142   0.00000  Uiso   1.00
C21    C     0.55516   0.28253   0.24024   0.00000  Uiso   1.00
C22    C     0.53230   0.28963   0.30080   0.00000  Uiso   1.00
C23    C     0.56847   0.32464   0.34164   0.00000  Uiso   1.00
H24    H     0.67250   0.31671   0.13797   0.00000  Uiso   1.00
H25    H     0.71997   0.19732   0.11347   0.00000  Uiso   1.00
H26    H     0.62100   0.39510   0.04798   0.00000  Uiso   1.00
H27    H     0.69244   0.36527   0.24709   0.00000  Uiso   1.00
H28    H     0.74747   0.05309   0.09470   0.00000  Uiso   1.00
H29    H     0.53879   0.47013   0.95663   0.00000  Uiso   1.00
H30    H     0.68942   0.40725   0.37651   0.00000  Uiso   1.00
H31    H     0.47889   0.22526   0.20288   0.00000  Uiso   1.00
H32    H     0.51574   0.10084   0.18194   0.00000  Uiso   1.00
H33    H     0.41677   0.29862   0.11645   0.00000  Uiso   1.00
H34    H     0.48821   0.26880   0.31557   0.00000  Uiso   1.00
H35    H     0.58170   0.97478   0.15028   0.00000  Uiso   1.00
H36    H     0.37302   0.39183   0.01221   0.00000  Uiso   1.00
H37    H     0.52366   0.32894   0.43208   0.00000  Uiso   1.00
O38    O     0.69231   0.93375   0.10752   0.00000  Uiso   1.00
O39    O     0.41853   0.48090   0.92639   0.00000  Uiso   1.00
O40    O     0.61616   0.39839   0.47725   0.00000  Uiso   1.00
N41    N     0.70340   0.05173   0.11067   0.00000  Uiso   1.00
N42    N     0.50830   0.44164   0.98157   0.00000  Uiso   1.00
N43    N     0.64912   0.38286   0.37411   0.00000  Uiso   1.00
N44    N     0.61421   0.00959   0.14057   0.00000  Uiso   1.00
N45    N     0.41910   0.39950   0.01148   0.00000  Uiso   1.00
N46    N     0.55993   0.34072   0.40402   0.00000  Uiso   1.00
C47    C     0.32245   0.65777   0.13929   0.00000  Uiso   1.00
C48    C     0.31497   0.64967   0.06857   0.00000  Uiso   1.00
C49    C     0.31006   0.70280   0.02218   0.00000  Uiso   1.00
C50    C     0.30349   0.68475   0.96020   0.00000  Uiso   1.00
C51    C     0.29208   0.68262   0.85268   0.00000  Uiso   1.00
C52    C     0.26870   0.62044   0.17108   0.00000  Uiso   1.00
C53    C     0.22490   0.64900   0.21088   0.00000  Uiso   1.00
C54    C     0.17939   0.60633   0.23520   0.00000  Uiso   1.00
C55    C     0.09619   0.55882   0.28687   0.00000  Uiso   1.00
C56    C     0.38165   0.61648   0.15932   0.00000  Uiso   1.00
C57    C     0.43282   0.64170   0.18924   0.00000  Uiso   1.00
C58    C     0.48240   0.59568   0.20366   0.00000  Uiso   1.00
C59    C     0.57457   0.54202   0.23706   0.00000  Uiso   1.00
C60    C     0.31951   0.53122   0.11172   0.00000  Uiso   1.00
C61    C     0.31337   0.58093   0.05360   0.00000  Uiso   1.00
C62    C     0.30681   0.56278   0.99168   0.00000  Uiso   1.00
C63    C     0.30189   0.61588   0.94520   0.00000  Uiso   1.00
C64    C     0.26710   0.55170   0.15611   0.00000  Uiso   1.00
C65    C     0.22165   0.50898   0.18038   0.00000  Uiso   1.00
C66    C     0.17779   0.53747   0.22020   0.00000  Uiso   1.00
C67    C     0.38006   0.54774   0.14434   0.00000  Uiso   1.00
C68    C     0.42957   0.50168   0.15873   0.00000  Uiso   1.00
C69    C     0.48080   0.52682   0.18867   0.00000  Uiso   1.00
H70    H     0.32369   0.71129   0.15095   0.00000  Uiso   1.00
H71    H     0.31129   0.75599   0.03378   0.00000  Uiso   1.00
H72    H     0.22616   0.70219   0.22246   0.00000  Uiso   1.00
H73    H     0.43404   0.69489   0.20082   0.00000  Uiso   1.00
H74    H     0.29682   0.77525   0.89729   0.00000  Uiso   1.00
H75    H     0.11732   0.66180   0.29515   0.00000  Uiso   1.00
H76    H     0.55569   0.64640   0.24950   0.00000  Uiso   1.00
H77    H     0.31826   0.47770   0.10007   0.00000  Uiso   1.00
H78    H     0.30557   0.50959   0.98011   0.00000  Uiso   1.00
H79    H     0.22043   0.45579   0.16879   0.00000  Uiso   1.00
H80    H     0.42832   0.44849   0.14714   0.00000  Uiso   1.00
H81    H     0.29217   0.57525   0.85372   0.00000  Uiso   1.00
H82    H     0.11267   0.46181   0.25158   0.00000  Uiso   1.00
H83    H     0.55104   0.44641   0.20593   0.00000  Uiso   1.00
O84    O     0.28622   0.70044   0.79751   0.00000  Uiso   1.00
O85    O     0.05073   0.55161   0.31950   0.00000  Uiso   1.00
O86    O     0.62586   0.53141   0.25961   0.00000  Uiso   1.00
N87    N     0.29748   0.72380   0.90349   0.00000  Uiso   1.00
N88    N     0.12965   0.61774   0.27546   0.00000  Uiso   1.00
N89    N     0.53948   0.60334   0.23280   0.00000  Uiso   1.00
N90    N     0.29498   0.61619   0.88005   0.00000  Uiso   1.00
N91    N     0.12715   0.51013   0.25202   0.00000  Uiso   1.00
N92    N     0.53698   0.49573   0.20936   0.00000  Uiso   1.00
C93    C     0.33357   0.28880   0.46079   0.00000  Uiso   1.00
C94    C     0.26529   0.27304   0.47193   0.00000  Uiso   1.00
C95    C     0.23804   0.25864   0.53031   0.00000  Uiso   1.00
C96    C     0.17490   0.24557   0.53051   0.00000  Uiso   1.00
C97    C     0.07414   0.22086   0.55636   0.00000  Uiso   1.00
C98    C     0.35836   0.23665   0.41538   0.00000  Uiso   1.00
C99    C     0.40936   0.19167   0.42622   0.00000  Uiso   1.00
C100   C     0.42457   0.14798   0.37880   0.00000  Uiso   1.00
C101   C     0.46832   0.06682   0.31684   0.00000  Uiso   1.00
C102   C     0.33344   0.35835   0.42414   0.00000  Uiso   1.00
C103   C     0.36351   0.41569   0.44232   0.00000  Uiso   1.00
C104   C     0.35776   0.47446   0.40227   0.00000  Uiso   1.00
C105   C     0.36283   0.58226   0.35390   0.00000  Uiso   1.00
C106   C     0.26989   0.29121   0.35731   0.00000  Uiso   1.00
C107   C     0.23070   0.27435   0.41573   0.00000  Uiso   1.00
C108   C     0.16758   0.26130   0.41583   0.00000  Uiso   1.00
C109   C     0.14025   0.24688   0.47420   0.00000  Uiso   1.00
C110   C     0.32377   0.23796   0.35918   0.00000  Uiso   1.00
C111   C     0.33891   0.19433   0.31174   0.00000  Uiso   1.00
C112   C     0.38992   0.14929   0.32250   0.00000  Uiso   1.00
C113   C     0.29885   0.35967   0.36793   0.00000  Uiso   1.00
C114   C     0.29305   0.41836   0.32784   0.00000  Uiso   1.00
C115   C     0.32311   0.47577   0.34596   0.00000  Uiso   1.00
H116   H     0.36051   0.28778   0.50454   0.00000  Uiso   1.00
H117   H     0.26483   0.25762   0.57380   0.00000  Uiso   1.00
H118   H     0.43612   0.19067   0.46971   0.00000  Uiso   1.00
H119   H     0.39028   0.41466   0.48582   0.00000  Uiso   1.00
H120   H     0.14350   0.22474   0.62579   0.00000  Uiso   1.00
H121   H     0.50470   0.08358   0.40632   0.00000  Uiso   1.00
H122   H     0.40803   0.55591   0.44027   0.00000  Uiso   1.00
H123   H     0.24297   0.29223   0.31355   0.00000  Uiso   1.00
H124   H     0.14083   0.26232   0.37233   0.00000  Uiso   1.00
H125   H     0.31213   0.19537   0.26825   0.00000  Uiso   1.00
H126   H     0.26628   0.41935   0.28435   0.00000  Uiso   1.00
H127   H     0.04286   0.22855   0.46227   0.00000  Uiso   1.00
H128   H     0.40407   0.08739   0.24280   0.00000  Uiso   1.00
H129   H     0.30739   0.55972   0.27676   0.00000  Uiso   1.00
O130   O     0.02812   0.20686   0.58614   0.00000  Uiso   1.00
O131   O     0.50201   0.02168   0.29820   0.00000  Uiso   1.00
O132   O     0.37517   0.64136   0.34275   0.00000  Uiso   1.00
N133   N     0.13383   0.22975   0.57924   0.00000  Uiso   1.00
N134   N     0.47152   0.09777   0.37405   0.00000  Uiso   1.00
N135   N     0.38116   0.53935   0.40579   0.00000  Uiso   1.00
N136   N     0.07967   0.23180   0.49126   0.00000  Uiso   1.00
N137   N     0.41737   0.09983   0.28607   0.00000  Uiso   1.00
N138   N     0.32700   0.54140   0.31780   0.00000  Uiso   1.00
C139   C     0.17707   0.81104   0.69578   0.00000  Uiso   1.00
C140   C     0.17420   0.78588   0.62912   0.00000  Uiso   1.00
C141   C     0.22220   0.75164   0.59874   0.00000  Uiso   1.00
C142   C     0.21034   0.73290   0.53781   0.00000  Uiso   1.00
C143   C     0.21467   0.69153   0.43879   0.00000  Uiso   1.00
C144   C     0.12324   0.77839   0.73179   0.00000  Uiso   1.00
C145   C     0.12840   0.73786   0.78773   0.00000  Uiso   1.00
C146   C     0.07363   0.71283   0.81323   0.00000  Uiso   1.00
C147   C     0.99884   0.65987   0.87364   0.00000  Uiso   1.00
C148   C     0.16082   0.88776   0.68932   0.00000  Uiso   1.00
C149   C     0.19757   0.93919   0.70956   0.00000  Uiso   1.00
C150   C     0.17443   0.00625   0.69932   0.00000  Uiso   1.00
C151   C     0.15799   0.12311   0.69377   0.00000  Uiso   1.00
C152   C     0.07064   0.83868   0.64162   0.00000  Uiso   1.00
C153   C     0.11639   0.80090   0.59970   0.00000  Uiso   1.00
C154   C     0.10445   0.78222   0.53881   0.00000  Uiso   1.00
C155   C     0.15243   0.74795   0.50833   0.00000  Uiso   1.00
C156   C     0.06544   0.79340   0.70237   0.00000  Uiso   1.00
C157   C     0.01065   0.76844   0.72780   0.00000  Uiso   1.00
C158   C     0.01572   0.72787   0.78376   0.00000  Uiso   1.00
C159   C     0.10302   0.90278   0.65989   0.00000  Uiso   1.00
C160   C     0.07982   0.96977   0.64962   0.00000  Uiso   1.00
C161   C     0.11652   0.02129   0.66984   0.00000  Uiso   1.00
H162   H     0.22207   0.79935   0.71869   0.00000  Uiso   1.00
H163   H     0.26693   0.74002   0.62152   0.00000  Uiso   1.00
H164   H     0.17314   0.72625   0.81049   0.00000  Uiso   1.00
H165   H     0.24230   0.92755   0.73232   0.00000  Uiso   1.00
H166   H     0.29116   0.68085   0.50083   0.00000  Uiso   1.00
H167   H     0.09340   0.65183   0.89929   0.00000  Uiso   1.00
H168   H     0.23923   0.07632   0.73446   0.00000  Uiso   1.00
H169   H     0.02563   0.85036   0.61871   0.00000  Uiso   1.00
H170   H     0.05971   0.79384   0.51605   0.00000  Uiso   1.00
H171   H     0.96592   0.78007   0.70502   0.00000  Uiso   1.00
H172   H     0.03508   0.98137   0.62686   0.00000  Uiso   1.00
H173   H     0.12298   0.72452   0.41522   0.00000  Uiso   1.00
H174   H     0.92521   0.69551   0.81369   0.00000  Uiso   1.00
H175   H     0.07104   0.12000   0.64886   0.00000  Uiso   1.00
O176   O     0.23303   0.66456   0.39231   0.00000  Uiso   1.00
O177   O     0.97357   0.62651   0.91508   0.00000  Uiso   1.00
O178   O     0.16490   0.18342   0.69883   0.00000  Uiso   1.00
N179   N     0.24691   0.69890   0.49476   0.00000  Uiso   1.00
N180   N     0.06201   0.67176   0.86730   0.00000  Uiso   1.00
N181   N     0.19834   0.06862   0.71321   0.00000  Uiso   1.00
N182   N     0.15641   0.72240   0.44870   0.00000  Uiso   1.00
N183   N     0.97151   0.69526   0.82123   0.00000  Uiso   1.00
N184   N     0.10784   0.09212   0.66715   0.00000  Uiso   1.00
C185   C     0.78767   0.67175   0.11594   0.00000  Uiso   1.00
C186   C     0.78954   0.60086   0.08943   0.00000  Uiso   1.00
C187   C     0.75859   0.54432   0.11418   0.00000  Uiso   1.00
C188   C     0.76626   0.48407   0.08304   0.00000  Uiso   1.00
C189   C     0.76347   0.37455   0.05006   0.00000  Uiso   1.00
C190   C     0.76518   0.72174   0.06195   0.00000  Uiso   1.00
C191   C     0.71376   0.76683   0.06360   0.00000  Uiso   1.00
C192   C     0.70092   0.80834   0.00932   0.00000  Uiso   1.00
C193   C     0.66034   0.88651   0.93369   0.00000  Uiso   1.00
C194   C     0.85532   0.68823   0.12838   0.00000  Uiso   1.00
C195   C     0.87969   0.70517   0.18588   0.00000  Uiso   1.00
C196   C     0.94274   0.71849   0.18753   0.00000  Uiso   1.00
C197   C     0.04211   0.74464   0.21504   0.00000  Uiso   1.00
C198   C     0.85632   0.66531   0.01662   0.00000  Uiso   1.00
C199   C     0.82683   0.59737   0.03548   0.00000  Uiso   1.00
C200   C     0.83455   0.53719   0.00429   0.00000  Uiso   1.00
C201   C     0.80362   0.48057   0.02899   0.00000  Uiso   1.00
C202   C     0.80247   0.71824   0.00800   0.00000  Uiso   1.00
C203   C     0.78971   0.75970   0.95371   0.00000  Uiso   1.00
C204   C     0.73827   0.80484   0.95527   0.00000  Uiso   1.00
C205   C     0.89261   0.68474   0.07443   0.00000  Uiso   1.00
C206   C     0.95564   0.69804   0.07599   0.00000  Uiso   1.00
C207   C     0.98010   0.71499   0.13348   0.00000  Uiso   1.00
H208   H     0.75864   0.67447   0.15794   0.00000  Uiso   1.00
H209   H     0.72974   0.54704   0.15593   0.00000  Uiso   1.00
H210   H     0.68491   0.76952   0.10536   0.00000  Uiso   1.00
H211   H     0.85082   0.70787   0.22762   0.00000  Uiso   1.00
H212   H     0.71412   0.40423   0.12989   0.00000  Uiso   1.00
H213   H     0.61962   0.87336   0.02327   0.00000  Uiso   1.00
H214   H     0.96946   0.74335   0.28108   0.00000  Uiso   1.00
H215   H     0.88535   0.66259   0.97461   0.00000  Uiso   1.00
H216   H     0.86340   0.53450   0.96254   0.00000  Uiso   1.00
H217   H     0.81858   0.75699   0.91197   0.00000  Uiso   1.00
H218   H     0.98448   0.69533   0.03423   0.00000  Uiso   1.00
H219   H     0.82261   0.39405   0.97293   0.00000  Uiso   1.00
H220   H     0.72810   0.86319   0.86630   0.00000  Uiso   1.00
H221   H     0.07795   0.73318   0.12411   0.00000  Uiso   1.00
O222   O     0.75162   0.31510   0.04676   0.00000  Uiso   1.00
O223   O     0.62765   0.93059   0.90688   0.00000  Uiso   1.00
O224   O     0.08663   0.76002   0.24512   0.00000  Uiso   1.00
N225   N     0.74268   0.41941   0.09462   0.00000  Uiso   1.00
N226   N     0.65431   0.85801   0.99492   0.00000  Uiso   1.00
N227   N     0.98138   0.73648   0.23595   0.00000  Uiso   1.00
N228   N     0.80105   0.41393   0.01016   0.00000  Uiso   1.00
N229   N     0.71269   0.85253   0.91046   0.00000  Uiso   1.00
N230   N     0.03976   0.73101   0.15149   0.00000  Uiso   1.00
C231   C     0.78266   0.12258   0.66308   0.00000  Uiso   1.00
C232   C     0.71770   0.13987   0.63599   0.00000  Uiso   1.00
C233   C     0.69914   0.20054   0.60269   0.00000  Uiso   1.00
C234   C     0.63768   0.20644   0.58185   0.00000  Uiso   1.00
C235   C     0.54311   0.24131   0.53792   0.00000  Uiso   1.00
C236   C     0.80438   0.05579   0.63492   0.00000  Uiso   1.00
C237   C     0.85872   0.04577   0.60074   0.00000  Uiso   1.00
C238   C     0.87024   0.98089   0.57900   0.00000  Uiso   1.00
C239   C     0.91028   0.88522   0.53346   0.00000  Uiso   1.00
C240   C     0.77373   0.10533   0.73353   0.00000  Uiso   1.00
C241   C     0.80231   0.13694   0.78226   0.00000  Uiso   1.00
C242   C     0.78804   0.11376   0.84354   0.00000  Uiso   1.00
C243   C     0.78048   0.09501   0.95110   0.00000  Uiso   1.00
C244   C     0.70653   0.02518   0.68527   0.00000  Uiso   1.00
C245   C     0.67634   0.08696   0.64804   0.00000  Uiso   1.00
C246   C     0.61490   0.09277   0.62724   0.00000  Uiso   1.00
C247   C     0.59626   0.15344   0.59392   0.00000  Uiso   1.00
C248   C     0.76304   0.00289   0.64697   0.00000  Uiso   1.00
C249   C     0.77449   0.93800   0.62529   0.00000  Uiso   1.00
C250   C     0.82882   0.92789   0.59108   0.00000  Uiso   1.00
C251   C     0.73238   0.05242   0.74558   0.00000  Uiso   1.00
C252   C     0.71807   0.02918   0.80681   0.00000  Uiso   1.00
C253   C     0.74662   0.06076   0.85562   0.00000  Uiso   1.00
H254   H     0.81486   0.16377   0.65369   0.00000  Uiso   1.00
H255   H     0.73115   0.24146   0.59337   0.00000  Uiso   1.00
H256   H     0.89071   0.08672   0.59142   0.00000  Uiso   1.00
H257   H     0.83431   0.17788   0.77291   0.00000  Uiso   1.00
H258   H     0.62012   0.30427   0.53178   0.00000  Uiso   1.00
H259   H     0.95657   0.97797   0.52769   0.00000  Uiso   1.00
H260   H     0.83763   0.17020   0.91040   0.00000  Uiso   1.00
H261   H     0.67433   0.98398   0.69465   0.00000  Uiso   1.00
H262   H     0.58291   0.05182   0.63658   0.00000  Uiso   1.00
H263   H     0.74248   0.89707   0.63463   0.00000  Uiso   1.00
H264   H     0.68607   0.98824   0.81612   0.00000  Uiso   1.00
H265   H     0.49981   0.15034   0.56685   0.00000  Uiso   1.00
H266   H     0.83626   0.82405   0.56276   0.00000  Uiso   1.00
H267   H     0.71732   0.01628   0.94547   0.00000  Uiso   1.00
O268   O     0.50237   0.27516   0.51035   0.00000  Uiso   1.00
O269   O     0.94378   0.84708   0.50500   0.00000  Uiso   1.00
O270   O     0.78773   0.09928   0.00710   0.00000  Uiso   1.00
N271   N     0.60435   0.25874   0.54802   0.00000  Uiso   1.00
N272   N     0.91890   0.95367   0.54419   0.00000  Uiso   1.00
N273   N     0.80772   0.13338   0.90198   0.00000  Uiso   1.00
N274   N     0.53961   0.17591   0.56689   0.00000  Uiso   1.00
N275   N     0.85416   0.87085   0.56305   0.00000  Uiso   1.00
N276   N     0.74298   0.05056   0.92085   0.00000  Uiso   1.00
C277   C     0.40044   0.81768   0.76332   0.00000  Uiso   1.00
C278   C     0.38785   0.87710   0.80560   0.00000  Uiso   1.00
C279   C     0.33005   0.89748   0.82870   0.00000  Uiso   1.00
C280   C     0.32829   0.95304   0.86664   0.00000  Uiso   1.00
C281   C     0.30051   0.04011   0.93014   0.00000  Uiso   1.00
C282   C     0.44930   0.77057   0.79783   0.00000  Uiso   1.00
C283   C     0.44316   0.70139   0.81439   0.00000  Uiso   1.00
C284   C     0.49315   0.66727   0.84578   0.00000  Uiso   1.00
C285   C     0.56078   0.58895   0.89718   0.00000  Uiso   1.00
C286   C     0.43249   0.84815   0.70454   0.00000  Uiso   1.00
C287   C     0.41224   0.84418   0.64267   0.00000  Uiso   1.00
C288   C     0.44808   0.87536   0.59552   0.00000  Uiso   1.00
C289   C     0.48962   0.91749   0.50208   0.00000  Uiso   1.00
C290   C     0.50012   0.88009   0.78959   0.00000  Uiso   1.00
C291   C     0.44199   0.91099   0.81987   0.00000  Uiso   1.00
C292   C     0.44033   0.96653   0.85777   0.00000  Uiso   1.00
C293   C     0.38253   0.98700   0.88093   0.00000  Uiso   1.00
C294   C     0.50344   0.80446   0.81210   0.00000  Uiso   1.00
C295   C     0.55345   0.77044   0.84347   0.00000  Uiso   1.00
C296   C     0.54739   0.70122   0.86008   0.00000  Uiso   1.00
C297   C     0.48663   0.88205   0.71881   0.00000  Uiso   1.00
C298   C     0.52252   0.91323   0.67175   0.00000  Uiso   1.00
C299   C     0.50232   0.90931   0.60982   0.00000  Uiso   1.00
H300   H     0.35829   0.79129   0.75221   0.00000  Uiso   1.00
H301   H     0.28816   0.87123   0.81765   0.00000  Uiso   1.00
H302   H     0.40126   0.67517   0.80334   0.00000  Uiso   1.00
H303   H     0.37034   0.81794   0.63165   0.00000  Uiso   1.00
H304   H     0.23428   0.97480   0.89652   0.00000  Uiso   1.00
H305   H     0.47278   0.56138   0.86632   0.00000  Uiso   1.00
H306   H     0.40756   0.86244   0.50428   0.00000  Uiso   1.00
H307   H     0.54228   0.90648   0.80071   0.00000  Uiso   1.00
H308   H     0.48223   0.99275   0.86881   0.00000  Uiso   1.00
H309   H     0.59534   0.79669   0.85450   0.00000  Uiso   1.00
H310   H     0.56441   0.93946   0.68281   0.00000  Uiso   1.00
H311   H     0.39180   0.07343   0.93805   0.00000  Uiso   1.00
H312   H     0.63030   0.66001   0.90784   0.00000  Uiso   1.00
H313   H     0.56508   0.96107   0.54580   0.00000  Uiso   1.00
O314   O     0.27022   0.07877   0.96123   0.00000  Uiso   1.00
O315   O     0.58313   0.53638   0.92160   0.00000  Uiso   1.00
O316   O     0.49757   0.93137   0.44660   0.00000  Uiso   1.00
N317   N     0.27959   0.98618   0.89694   0.00000  Uiso   1.00
N318   N     0.50257   0.59966   0.86871   0.00000  Uiso   1.00
N319   N     0.44161   0.88111   0.53023   0.00000  Uiso   1.00
N320   N     0.36435   0.03925   0.91928   0.00000  Uiso   1.00
N321   N     0.58732   0.65273   0.89106   0.00000  Uiso   1.00
N322   N     0.52637   0.93418   0.55257   0.00000  Uiso   1.00
C323   C     0.10595   0.48751   0.57446   0.00000  Uiso   1.00
C324   C     0.15901   0.51700   0.61093   0.00000  Uiso   1.00
C325   C     0.22193   0.49969   0.60483   0.00000  Uiso   1.00
C326   C     0.26318   0.53242   0.64242   0.00000  Uiso   1.00
C327   C     0.34877   0.57089   0.69261   0.00000  Uiso   1.00
C328   C     0.07068   0.54879   0.54148   0.00000  Uiso   1.00
C329   C     0.05933   0.55821   0.47699   0.00000  Uiso   1.00
C330   C     0.02621   0.61771   0.45611   0.00000  Uiso   1.00
C331   C     0.97463   0.70551   0.39848   0.00000  Uiso   1.00
C332   C     0.06167   0.45766   0.62415   0.00000  Uiso   1.00
C333   C     0.04272   0.39045   0.62915   0.00000  Uiso   1.00
C334   C     0.00199   0.37322   0.67787   0.00000  Uiso   1.00
C335   C     0.93641   0.31952   0.74859   0.00000  Uiso   1.00
C336   C     0.06731   0.57640   0.65206   0.00000  Uiso   1.00
C337   C     0.13802   0.56528   0.65308   0.00000  Uiso   1.00
C338   C     0.17918   0.59804   0.69069   0.00000  Uiso   1.00
C339   C     0.24215   0.58079   0.68465   0.00000  Uiso   1.00
C340   C     0.04970   0.59708   0.58362   0.00000  Uiso   1.00
C341   C     0.01658   0.65656   0.56284   0.00000  Uiso   1.00
C342   C     0.00519   0.66608   0.49833   0.00000  Uiso   1.00
C343   C     0.04068   0.50594   0.66630   0.00000  Uiso   1.00
C344   C     0.99997   0.48880   0.71501   0.00000  Uiso   1.00
C345   C     0.98097   0.42159   0.72009   0.00000  Uiso   1.00
H346   H     0.12228   0.44992   0.54165   0.00000  Uiso   1.00
H347   H     0.23816   0.46233   0.57221   0.00000  Uiso   1.00
H348   H     0.07557   0.52084   0.44438   0.00000  Uiso   1.00
H349   H     0.05897   0.35310   0.59653   0.00000  Uiso   1.00
H350   H     0.35737   0.49740   0.62466   0.00000  Uiso   1.00
H351   H     0.01454   0.62076   0.35514   0.00000  Uiso   1.00
H352   H     0.97951   0.26705   0.67596   0.00000  Uiso   1.00
H353   H     0.05097   0.61399   0.68487   0.00000  Uiso   1.00
H354   H     0.16293   0.63541   0.72330   0.00000  Uiso   1.00
H355   H     0.00034   0.69392   0.59547   0.00000  Uiso   1.00
H356   H     0.98374   0.52618   0.74762   0.00000  Uiso   1.00
H357   H     0.29631   0.63788   0.74729   0.00000  Uiso   1.00
H358   H     0.95347   0.76123   0.47777   0.00000  Uiso   1.00
H359   H     0.91846   0.40753   0.79859   0.00000  Uiso   1.00
O360   O     0.40178   0.57878   0.70865   0.00000  Uiso   1.00
O361   O     0.95199   0.74061   0.35505   0.00000  Uiso   1.00
O362   O     0.90604   0.27657   0.77597   0.00000  Uiso   1.00
N363   N     0.32763   0.52751   0.64826   0.00000  Uiso   1.00
N364   N     0.00711   0.64285   0.39627   0.00000  Uiso   1.00
N365   N     0.97436   0.31217   0.69620   0.00000  Uiso   1.00
N366   N     0.29478   0.60310   0.71424   0.00000  Uiso   1.00
N367   N     0.97426   0.71844   0.46226   0.00000  Uiso   1.00
N368   N     0.94150   0.38776   0.76219   0.00000  Uiso   1.00
C369   C     0.75480   0.83602   0.27186   0.00000  Uiso   1.00
C370   C     0.82025   0.86093   0.25869   0.00000  Uiso   1.00
C371   C     0.84329   0.88207   0.19986   0.00000  Uiso   1.00
C372   C     0.90438   0.90302   0.19771   0.00000  Uiso   1.00
C373   C     0.00041   0.94177   0.16893   0.00000  Uiso   1.00
C374   C     0.72700   0.88205   0.32105   0.00000  Uiso   1.00
C375   C     0.67164   0.92092   0.31466   0.00000  Uiso   1.00
C376   C     0.65424   0.95964   0.36503   0.00000  Uiso   1.00
C377   C     0.60548   0.03113   0.43308   0.00000  Uiso   1.00
C378   C     0.76342   0.76483   0.30494   0.00000  Uiso   1.00
C379   C     0.73866   0.70515   0.28501   0.00000  Uiso   1.00
C380   C     0.75191   0.64518   0.32182   0.00000  Uiso   1.00
C381   C     0.75971   0.53467   0.36485   0.00000  Uiso   1.00
C382   C     0.82233   0.83565   0.37267   0.00000  Uiso   1.00
C383   C     0.85693   0.86074   0.31344   0.00000  Uiso   1.00
C384   C     0.91800   0.88166   0.31139   0.00000  Uiso   1.00
C385   C     0.94113   0.90282   0.25257   0.00000  Uiso   1.00
C386   C     0.76368   0.88185   0.37581   0.00000  Uiso   1.00
C387   C     0.74635   0.92051   0.42619   0.00000  Uiso   1.00
C388   C     0.69098   0.95944   0.41988   0.00000  Uiso   1.00
C389   C     0.80010   0.76463   0.35969   0.00000  Uiso   1.00
C390   C     0.81339   0.70474   0.39654   0.00000  Uiso   1.00
C391   C     0.78866   0.64498   0.37667   0.00000  Uiso   1.00
H392   H     0.72624   0.83617   0.22924   0.00000  Uiso   1.00
H393   H     0.81488   0.88222   0.15749   0.00000  Uiso   1.00
H394   H     0.64326   0.92106   0.27229   0.00000  Uiso   1.00
H395   H     0.71028   0.70532   0.24264   0.00000  Uiso   1.00
H396   H     0.92933   0.93320   0.10211   0.00000  Uiso   1.00
H397   H     0.56744   0.01508   0.34416   0.00000  Uiso   1.00
H398   H     0.70877   0.56016   0.28164   0.00000  Uiso   1.00
H399   H     0.85089   0.83550   0.41530   0.00000  Uiso   1.00
H400   H     0.94638   0.88150   0.35377   0.00000  Uiso   1.00
H401   H     0.77475   0.92035   0.46856   0.00000  Uiso   1.00
H402   H     0.84177   0.70461   0.43891   0.00000  Uiso   1.00
H403   H     0.03605   0.93262   0.26141   0.00000  Uiso   1.00
H404   H     0.67416   0.01450   0.50346   0.00000  Uiso   1.00
H405   H     0.81549   0.55958   0.44094   0.00000  Uiso   1.00
O406   O     0.04325   0.96321   0.13792   0.00000  Uiso   1.00
O407   O     0.56846   0.07062   0.45549   0.00000  Uiso   1.00
O408   O     0.75388   0.47377   0.37346   0.00000  Uiso   1.00
N409   N     0.94135   0.92674   0.14804   0.00000  Uiso   1.00
N410   N     0.60301   0.00330   0.37434   0.00000  Uiso   1.00
N411   N     0.73512   0.57799   0.31590   0.00000  Uiso   1.00
N412   N     0.99877   0.92643   0.23376   0.00000  Uiso   1.00
N413   N     0.66044   0.00299   0.46006   0.00000  Uiso   1.00
N414   N     0.79255   0.57768   0.40162   0.00000  Uiso   1.00
C415   C     0.93345   0.36854   0.13911   0.00000  Uiso   1.00
C416   C     0.94213   0.37217   0.21026   0.00000  Uiso   1.00
C417   C     0.89814   0.39733   0.25174   0.00000  Uiso   1.00
C418   C     0.91506   0.39626   0.31508   0.00000  Uiso   1.00
C419   C     0.91960   0.40578   0.42235   0.00000  Uiso   1.00
C420   C     0.98661   0.40787   0.10842   0.00000  Uiso   1.00
C421   C     0.98000   0.46305   0.06427   0.00000  Uiso   1.00
C422   C     0.03437   0.49202   0.04187   0.00000  Uiso   1.00
C423   C     0.10795   0.55695   0.99100   0.00000  Uiso   1.00
C424   C     0.94584   0.29360   0.12519   0.00000  Uiso   1.00
C425   C     0.90496   0.25270   0.09511   0.00000  Uiso   1.00
C426   C     0.92501   0.18547   0.08681   0.00000  Uiso   1.00
C427   C     0.93529   0.07297   0.06197   0.00000  Uiso   1.00
C428   C     0.04174   0.32188   0.17783   0.00000  Uiso   1.00
C429   C     0.00095   0.34683   0.23129   0.00000  Uiso   1.00
C430   C     0.01794   0.34571   0.29458   0.00000  Uiso   1.00
C431   C     0.97398   0.37086   0.33615   0.00000  Uiso   1.00
C432   C     0.04542   0.38253   0.12945   0.00000  Uiso   1.00
C433   C     0.09981   0.41143   0.10711   0.00000  Uiso   1.00
C434   C     0.09329   0.46664   0.06294   0.00000  Uiso   1.00
C435   C     0.00465   0.26826   0.14622   0.00000  Uiso   1.00
C436   C     0.02477   0.20108   0.13795   0.00000  Uiso   1.00
C437   C     0.98393   0.16008   0.10788   0.00000  Uiso   1.00
H438   H     0.88767   0.38827   0.12274   0.00000  Uiso   1.00
H439   H     0.85263   0.41695   0.23545   0.00000  Uiso   1.00
H440   H     0.93448   0.48265   0.04800   0.00000  Uiso   1.00
H441   H     0.85945   0.27233   0.07885   0.00000  Uiso   1.00
H442   H     0.83973   0.43758   0.36968   0.00000  Uiso   1.00
H443   H     0.01232   0.57610   0.97442   0.00000  Uiso   1.00
H444   H     0.85411   0.13261   0.03946   0.00000  Uiso   1.00
H445   H     0.08753   0.30215   0.19420   0.00000  Uiso   1.00
H446   H     0.06346   0.32610   0.31084   0.00000  Uiso   1.00
H447   H     0.14532   0.39180   0.12339   0.00000  Uiso   1.00
H448   H     0.07029   0.18149   0.15423   0.00000  Uiso   1.00
H449   H     0.01085   0.36385   0.43087   0.00000  Uiso   1.00
H450   H     0.18344   0.50237   0.03560   0.00000  Uiso   1.00
H451   H     0.02523   0.05888   0.10065   0.00000  Uiso   1.00
O452   O     0.90586   0.41804   0.47571   0.00000  Uiso   1.00
O453   O     0.13229   0.59977   0.95713   0.00000  Uiso   1.00
O454   O     0.92472   0.01792   0.04247   0.00000  Uiso   1.00
N455   N     0.88330   0.41693   0.36808   0.00000  Uiso   1.00
N456   N     0.04466   0.54645   0.99854   0.00000  Uiso   1.00
N457   N     0.89675   0.13182   0.05933   0.00000  Uiso   1.00
N458   N     0.97538   0.37725   0.40100   0.00000  Uiso   1.00
N459   N     0.13674   0.50677   0.03146   0.00000  Uiso   1.00
N460   N     0.98883   0.09215   0.09226   0.00000  Uiso   1.00
C461   C     0.59604   0.22212   0.79731   0.00000  Uiso   1.00
C462   C     0.64134   0.27485   0.81790   0.00000  Uiso   1.00
C463   C     0.70271   0.28007   0.79827   0.00000  Uiso   1.00
C464   C     0.73648   0.33179   0.82254   0.00000  Uiso   1.00
C465   C     0.81089   0.40683   0.84809   0.00000  Uiso   1.00
C466   C     0.57360   0.18504   0.85793   0.00000  Uiso   1.00
C467   C     0.57801   0.11475   0.87194   0.00000  Uiso   1.00
C468   C     0.55476   0.09087   0.92991   0.00000  Uiso   1.00
C469   C     0.52396   0.02647   0.01758   0.00000  Uiso   1.00
C470   C     0.53950   0.26304   0.76957   0.00000  Uiso   1.00
C471   C     0.51523   0.25832   0.70929   0.00000  Uiso   1.00
C472   C     0.46325   0.30009   0.69287   0.00000  Uiso   1.00
C473   C     0.37950   0.35680   0.64335   0.00000  Uiso   1.00
C474   C     0.54688   0.30469   0.87533   0.00000  Uiso   1.00
C475   C     0.61463   0.31970   0.86028   0.00000  Uiso   1.00
C476   C     0.64832   0.37143   0.88459   0.00000  Uiso   1.00
C477   C     0.70973   0.37672   0.86499   0.00000  Uiso   1.00
C478   C     0.54690   0.22989   0.90030   0.00000  Uiso   1.00
C479   C     0.52362   0.20611   0.95826   0.00000  Uiso   1.00
C480   C     0.52800   0.13580   0.97236   0.00000  Uiso   1.00
C481   C     0.51280   0.30789   0.81194   0.00000  Uiso   1.00
C482   C     0.46084   0.34968   0.79561   0.00000  Uiso   1.00
C483   C     0.43649   0.34502   0.73532   0.00000  Uiso   1.00
H484   H     0.61683   0.18720   0.76432   0.00000  Uiso   1.00
H485   H     0.72336   0.24535   0.76548   0.00000  Uiso   1.00
H486   H     0.59868   0.08005   0.83914   0.00000  Uiso   1.00
H487   H     0.53590   0.22360   0.67651   0.00000  Uiso   1.00
H488   H     0.82970   0.32958   0.78547   0.00000  Uiso   1.00
H489   H     0.56678   0.98105   0.94077   0.00000  Uiso   1.00
H490   H     0.43441   0.28375   0.59785   0.00000  Uiso   1.00
H491   H     0.52609   0.33961   0.90832   0.00000  Uiso   1.00
H492   H     0.62764   0.40613   0.91738   0.00000  Uiso   1.00
H493   H     0.50296   0.24083   0.99104   0.00000  Uiso   1.00
H494   H     0.44019   0.38438   0.82841   0.00000  Uiso   1.00
H495   H     0.75201   0.46007   0.90876   0.00000  Uiso   1.00
H496   H     0.48909   0.11154   0.06406   0.00000  Uiso   1.00
H497   H     0.35672   0.41424   0.72114   0.00000  Uiso   1.00
O498   O     0.85931   0.43582   0.85049   0.00000  Uiso   1.00
O499   O     0.51435   0.97856   0.05424   0.00000  Uiso   1.00
O500   O     0.34069   0.37570   0.60433   0.00000  Uiso   1.00
N501   N     0.79748   0.35117   0.81323   0.00000  Uiso   1.00
N502   N     0.55167   0.02532   0.95844   0.00000  Uiso   1.00
N503   N     0.42790   0.30830   0.63783   0.00000  Uiso   1.00
N504   N     0.75567   0.42139   0.87957   0.00000  Uiso   1.00
N505   N     0.50987   0.09553   0.02478   0.00000  Uiso   1.00
N506   N     0.38610   0.37852   0.70418   0.00000  Uiso   1.00
C507   C     0.20861   0.85408   0.27355   0.00000  Uiso   1.00
C508   C     0.27737   0.85268   0.29206   0.00000  Uiso   1.00
C509   C     0.31344   0.79456   0.31082   0.00000  Uiso   1.00
C510   C     0.37540   0.80406   0.32582   0.00000  Uiso   1.00
C511   C     0.47837   0.79196   0.35515   0.00000  Uiso   1.00
C512   C     0.17550   0.90326   0.31681   0.00000  Uiso   1.00
C513   C     0.12591   0.88767   0.35636   0.00000  Uiso   1.00
C514   C     0.10211   0.93975   0.39218   0.00000  Uiso   1.00
C515   C     0.04688   0.00619   0.45990   0.00000  Uiso   1.00
C516   C     0.20441   0.88868   0.20717   0.00000  Uiso   1.00
C517   C     0.17912   0.86084   0.15455   0.00000  Uiso   1.00
C518   C     0.17965   0.90065   0.09807   0.00000  Uiso   1.00
C519   C     0.16933   0.94446   0.99557   0.00000  Uiso   1.00
C520   C     0.25451   0.97429   0.26682   0.00000  Uiso   1.00
C521   C     0.30230   0.91798   0.28841   0.00000  Uiso   1.00
C522   C     0.36422   0.92757   0.30338   0.00000  Uiso   1.00
C523   C     0.40038   0.86948   0.32215   0.00000  Uiso   1.00
C524   C     0.20042   0.96855   0.31315   0.00000  Uiso   1.00
C525   C     0.17669   0.02067   0.34892   0.00000  Uiso   1.00
C526   C     0.12708   0.00516   0.38853   0.00000  Uiso   1.00
C527   C     0.22934   0.95398   0.20352   0.00000  Uiso   1.00
C528   C     0.22991   0.99384   0.14711   0.00000  Uiso   1.00
C529   C     0.20463   0.96607   0.09442   0.00000  Uiso   1.00
H530   H     0.18920   0.80324   0.27639   0.00000  Uiso   1.00
H531   H     0.29413   0.74404   0.31365   0.00000  Uiso   1.00
H532   H     0.10663   0.83713   0.35917   0.00000  Uiso   1.00
H533   H     0.15984   0.81031   0.15740   0.00000  Uiso   1.00
H534   H     0.42146   0.70720   0.35336   0.00000  Uiso   1.00
H535   H     0.02608   0.90350   0.44934   0.00000  Uiso   1.00
H536   H     0.13828   0.84693   0.02386   0.00000  Uiso   1.00
H537   H     0.27391   0.02513   0.26398   0.00000  Uiso   1.00
H538   H     0.38350   0.97811   0.30055   0.00000  Uiso   1.00
H539   H     0.19599   0.07120   0.34608   0.00000  Uiso   1.00
H540   H     0.24920   0.04437   0.14430   0.00000  Uiso   1.00
H541   H     0.49399   0.89718   0.34273   0.00000  Uiso   1.00
H542   H     0.09860   0.09348   0.43872   0.00000  Uiso   1.00
H543   H     0.21081   0.03691   0.01323   0.00000  Uiso   1.00
O544   O     0.52828   0.76725   0.37234   0.00000  Uiso   1.00
O545   O     0.00954   0.02479   0.49827   0.00000  Uiso   1.00
O546   O     0.15675   0.95058   0.94004   0.00000  Uiso   1.00
N547   N     0.42349   0.75837   0.34582   0.00000  Uiso   1.00
N548   N     0.05384   0.94189   0.43558   0.00000  Uiso   1.00
N549   N     0.15872   0.88901   0.03778   0.00000  Uiso   1.00
N550   N     0.46252   0.86059   0.34011   0.00000  Uiso   1.00
N551   N     0.09287   0.04411   0.42986   0.00000  Uiso   1.00
N552   N     0.19775   0.99124   0.03206   0.00000  Uiso   1.00
