data_job_03740
_audit_creation_date              2018-12-19
_audit_creation_method            'Materials Studio'
_symmetry_space_group_name_H-M    'P1'
_symmetry_Int_Tables_number       1
_symmetry_cell_setting            triclinic
loop_
_symmetry_equiv_pos_as_xyz
  x,y,z
_cell_length_a                    7.7025
_cell_length_b                    16.7833
_cell_length_c                    23.7680
_cell_angle_alpha                 90.0000
_cell_angle_beta                  95.6595
_cell_angle_gamma                 90.0000
loop_
_atom_site_label
_atom_site_type_symbol
_atom_site_fract_x
_atom_site_fract_y
_atom_site_fract_z
_atom_site_U_iso_or_equiv
_atom_site_adp_type
_atom_site_occupancy
C1     C     0.36461   0.37646   0.25999   0.00000  Uiso   1.00
C2     C     0.46650   0.37914   0.20817   0.00000  Uiso   1.00
C3     C     0.42015   0.42210   0.15909   0.00000  Uiso   1.00
C4     C     0.53066   0.41672   0.11649   0.00000  Uiso   1.00
C5     C     0.66580   0.42795   0.03506   0.00000  Uiso   1.00
C6     C     0.32654   0.28870   0.26996   0.00000  Uiso   1.00
C7     C     0.16252   0.25561   0.27284   0.00000  Uiso   1.00
C8     C     0.15523   0.17409   0.28227   0.00000  Uiso   1.00
C9     C     0.07309   0.04492   0.29681   0.00000  Uiso   1.00
C10    C     0.49175   0.40263   0.30980   0.00000  Uiso   1.00
C11    C     0.46663   0.46534   0.34619   0.00000  Uiso   1.00
C12    C     0.59841   0.47973   0.38918   0.00000  Uiso   1.00
C13    C     0.77279   0.52747   0.46558   0.00000  Uiso   1.00
C14    C     0.64329   0.29051   0.27162   0.00000  Uiso   1.00
C15    C     0.61787   0.33246   0.21449   0.00000  Uiso   1.00
C16    C     0.72848   0.32701   0.17196   0.00000  Uiso   1.00
C17    C     0.68231   0.36995   0.12282   0.00000  Uiso   1.00
C18    C     0.47791   0.24201   0.27628   0.00000  Uiso   1.00
C19    C     0.47085   0.16052   0.28571   0.00000  Uiso   1.00
C20    C     0.30687   0.12732   0.28860   0.00000  Uiso   1.00
C21    C     0.64313   0.35595   0.31612   0.00000  Uiso   1.00
C22    C     0.77496   0.37025   0.35906   0.00000  Uiso   1.00
C23    C     0.75005   0.43297   0.39551   0.00000  Uiso   1.00
H24    H     0.24676   0.41280   0.25507   0.00000  Uiso   1.00
H25    H     0.30299   0.45821   0.15421   0.00000  Uiso   1.00
H26    H     0.04541   0.29175   0.26795   0.00000  Uiso   1.00
H27    H     0.34947   0.50145   0.34129   0.00000  Uiso   1.00
H28    H     0.43205   0.48795   0.04517   0.00000  Uiso   1.00
H29    H     0.88894   0.13697   0.28502   0.00000  Uiso   1.00
H30    H     0.53011   0.57915   0.43967   0.00000  Uiso   1.00
H31    H     0.76114   0.25417   0.27654   0.00000  Uiso   1.00
H32    H     0.84561   0.29088   0.17686   0.00000  Uiso   1.00
H33    H     0.58802   0.12442   0.29060   0.00000  Uiso   1.00
H34    H     0.89209   0.33411   0.36394   0.00000  Uiso   1.00
H35    H     0.87246   0.35214   0.06355   0.00000  Uiso   1.00
H36    H     0.32934   0.00115   0.30340   0.00000  Uiso   1.00
H37    H     0.97051   0.44333   0.45805   0.00000  Uiso   1.00
O38    O     0.69851   0.44703   0.98840   0.00000  Uiso   1.00
O39    O     0.98596   0.98657   0.30307   0.00000  Uiso   1.00
O40    O     0.82717   0.56670   0.50597   0.00000  Uiso   1.00
N41    N     0.52413   0.45096   0.06318   0.00000  Uiso   1.00
N42    N     0.01634   0.12281   0.28741   0.00000  Uiso   1.00
N43    N     0.61576   0.53620   0.43201   0.00000  Uiso   1.00
N44    N     0.76111   0.37788   0.07307   0.00000  Uiso   1.00
N45    N     0.25332   0.04973   0.29730   0.00000  Uiso   1.00
N46    N     0.85275   0.46312   0.44190   0.00000  Uiso   1.00
C47    C     0.63539   0.87646   0.24001   0.00000  Uiso   1.00
C48    C     0.53350   0.87914   0.29183   0.00000  Uiso   1.00
C49    C     0.57985   0.92210   0.34091   0.00000  Uiso   1.00
C50    C     0.46934   0.91672   0.38351   0.00000  Uiso   1.00
C51    C     0.33420   0.92795   0.46494   0.00000  Uiso   1.00
C52    C     0.67346   0.78870   0.23004   0.00000  Uiso   1.00
C53    C     0.83748   0.75561   0.22716   0.00000  Uiso   1.00
C54    C     0.84477   0.67409   0.21773   0.00000  Uiso   1.00
C55    C     0.92691   0.54492   0.20319   0.00000  Uiso   1.00
C56    C     0.50825   0.90263   0.19020   0.00000  Uiso   1.00
C57    C     0.53337   0.96534   0.15381   0.00000  Uiso   1.00
C58    C     0.40159   0.97973   0.11082   0.00000  Uiso   1.00
C59    C     0.22721   0.02747   0.03442   0.00000  Uiso   1.00
C60    C     0.35671   0.79051   0.22838   0.00000  Uiso   1.00
C61    C     0.38213   0.83246   0.28551   0.00000  Uiso   1.00
C62    C     0.27152   0.82701   0.32804   0.00000  Uiso   1.00
C63    C     0.31769   0.86995   0.37718   0.00000  Uiso   1.00
C64    C     0.52209   0.74201   0.22372   0.00000  Uiso   1.00
C65    C     0.52915   0.66052   0.21429   0.00000  Uiso   1.00
C66    C     0.69313   0.62732   0.21140   0.00000  Uiso   1.00
C67    C     0.35687   0.85595   0.18388   0.00000  Uiso   1.00
C68    C     0.22504   0.87025   0.14094   0.00000  Uiso   1.00
C69    C     0.24995   0.93297   0.10449   0.00000  Uiso   1.00
H70    H     0.75324   0.91280   0.24493   0.00000  Uiso   1.00
H71    H     0.69701   0.95821   0.34579   0.00000  Uiso   1.00
H72    H     0.95459   0.79175   0.23205   0.00000  Uiso   1.00
H73    H     0.65053   0.00145   0.15871   0.00000  Uiso   1.00
H74    H     0.56795   0.98795   0.45483   0.00000  Uiso   1.00
H75    H     0.11106   0.63697   0.21498   0.00000  Uiso   1.00
H76    H     0.46989   0.07915   0.06033   0.00000  Uiso   1.00
H77    H     0.23886   0.75417   0.22346   0.00000  Uiso   1.00
H78    H     0.15439   0.79088   0.32314   0.00000  Uiso   1.00
H79    H     0.41198   0.62442   0.20940   0.00000  Uiso   1.00
H80    H     0.10791   0.83411   0.13606   0.00000  Uiso   1.00
H81    H     0.12754   0.85214   0.43645   0.00000  Uiso   1.00
H82    H     0.67066   0.50115   0.19660   0.00000  Uiso   1.00
H83    H     0.02949   0.94333   0.04195   0.00000  Uiso   1.00
O84    O     0.30149   0.94703   0.51160   0.00000  Uiso   1.00
O85    O     0.01404   0.48657   0.19693   0.00000  Uiso   1.00
O86    O     0.17283   0.06670   0.99403   0.00000  Uiso   1.00
N87    N     0.47587   0.95096   0.43682   0.00000  Uiso   1.00
N88    N     0.98366   0.62281   0.21259   0.00000  Uiso   1.00
N89    N     0.38424   0.03620   0.06799   0.00000  Uiso   1.00
N90    N     0.23889   0.87788   0.42693   0.00000  Uiso   1.00
N91    N     0.74668   0.54973   0.20270   0.00000  Uiso   1.00
N92    N     0.14725   0.96312   0.05810   0.00000  Uiso   1.00
C93    C     0.63539   0.62354   0.74001   0.00000  Uiso   1.00
C94    C     0.53350   0.62086   0.79183   0.00000  Uiso   1.00
C95    C     0.57985   0.57790   0.84091   0.00000  Uiso   1.00
C96    C     0.46934   0.58328   0.88351   0.00000  Uiso   1.00
C97    C     0.33420   0.57205   0.96494   0.00000  Uiso   1.00
C98    C     0.67346   0.71130   0.73004   0.00000  Uiso   1.00
C99    C     0.83748   0.74439   0.72716   0.00000  Uiso   1.00
C100   C     0.84477   0.82591   0.71773   0.00000  Uiso   1.00
C101   C     0.92691   0.95508   0.70319   0.00000  Uiso   1.00
C102   C     0.50825   0.59737   0.69020   0.00000  Uiso   1.00
C103   C     0.53337   0.53466   0.65381   0.00000  Uiso   1.00
C104   C     0.40159   0.52027   0.61082   0.00000  Uiso   1.00
C105   C     0.22721   0.47253   0.53442   0.00000  Uiso   1.00
C106   C     0.35671   0.70949   0.72838   0.00000  Uiso   1.00
C107   C     0.38213   0.66754   0.78551   0.00000  Uiso   1.00
C108   C     0.27152   0.67299   0.82804   0.00000  Uiso   1.00
C109   C     0.31769   0.63005   0.87718   0.00000  Uiso   1.00
C110   C     0.52209   0.75799   0.72372   0.00000  Uiso   1.00
C111   C     0.52915   0.83947   0.71429   0.00000  Uiso   1.00
C112   C     0.69313   0.87268   0.71140   0.00000  Uiso   1.00
C113   C     0.35687   0.64405   0.68388   0.00000  Uiso   1.00
C114   C     0.22504   0.62975   0.64094   0.00000  Uiso   1.00
C115   C     0.24995   0.56703   0.60449   0.00000  Uiso   1.00
H116   H     0.75324   0.58720   0.74493   0.00000  Uiso   1.00
H117   H     0.69701   0.54179   0.84579   0.00000  Uiso   1.00
H118   H     0.95459   0.70825   0.73205   0.00000  Uiso   1.00
H119   H     0.65053   0.49855   0.65871   0.00000  Uiso   1.00
H120   H     0.56795   0.51205   0.95483   0.00000  Uiso   1.00
H121   H     0.11106   0.86303   0.71498   0.00000  Uiso   1.00
H122   H     0.46989   0.42085   0.56033   0.00000  Uiso   1.00
H123   H     0.23886   0.74583   0.72346   0.00000  Uiso   1.00
H124   H     0.15439   0.70912   0.82314   0.00000  Uiso   1.00
H125   H     0.41198   0.87558   0.70940   0.00000  Uiso   1.00
H126   H     0.10791   0.66589   0.63606   0.00000  Uiso   1.00
H127   H     0.12754   0.64786   0.93645   0.00000  Uiso   1.00
H128   H     0.67066   0.99885   0.69660   0.00000  Uiso   1.00
H129   H     0.02949   0.55667   0.54195   0.00000  Uiso   1.00
O130   O     0.30149   0.55297   0.01160   0.00000  Uiso   1.00
O131   O     0.01404   0.01343   0.69693   0.00000  Uiso   1.00
O132   O     0.17283   0.43330   0.49403   0.00000  Uiso   1.00
N133   N     0.47587   0.54904   0.93682   0.00000  Uiso   1.00
N134   N     0.98366   0.87719   0.71259   0.00000  Uiso   1.00
N135   N     0.38424   0.46380   0.56799   0.00000  Uiso   1.00
N136   N     0.23889   0.62212   0.92693   0.00000  Uiso   1.00
N137   N     0.74668   0.95027   0.70270   0.00000  Uiso   1.00
N138   N     0.14725   0.53688   0.55810   0.00000  Uiso   1.00
C139   C     0.36461   0.12354   0.75999   0.00000  Uiso   1.00
C140   C     0.46650   0.12086   0.70817   0.00000  Uiso   1.00
C141   C     0.42015   0.07790   0.65909   0.00000  Uiso   1.00
C142   C     0.53066   0.08328   0.61649   0.00000  Uiso   1.00
C143   C     0.66580   0.07205   0.53506   0.00000  Uiso   1.00
C144   C     0.32654   0.21130   0.76996   0.00000  Uiso   1.00
C145   C     0.16252   0.24439   0.77284   0.00000  Uiso   1.00
C146   C     0.15523   0.32591   0.78227   0.00000  Uiso   1.00
C147   C     0.07309   0.45508   0.79681   0.00000  Uiso   1.00
C148   C     0.49175   0.09737   0.80980   0.00000  Uiso   1.00
C149   C     0.46663   0.03466   0.84619   0.00000  Uiso   1.00
C150   C     0.59841   0.02027   0.88918   0.00000  Uiso   1.00
C151   C     0.77279   0.97253   0.96558   0.00000  Uiso   1.00
C152   C     0.64329   0.20949   0.77162   0.00000  Uiso   1.00
C153   C     0.61787   0.16754   0.71449   0.00000  Uiso   1.00
C154   C     0.72848   0.17299   0.67196   0.00000  Uiso   1.00
C155   C     0.68231   0.13005   0.62282   0.00000  Uiso   1.00
C156   C     0.47791   0.25799   0.77628   0.00000  Uiso   1.00
C157   C     0.47085   0.33947   0.78571   0.00000  Uiso   1.00
C158   C     0.30687   0.37268   0.78860   0.00000  Uiso   1.00
C159   C     0.64313   0.14405   0.81612   0.00000  Uiso   1.00
C160   C     0.77496   0.12975   0.85906   0.00000  Uiso   1.00
C161   C     0.75005   0.06703   0.89551   0.00000  Uiso   1.00
H162   H     0.24676   0.08720   0.75507   0.00000  Uiso   1.00
H163   H     0.30299   0.04179   0.65421   0.00000  Uiso   1.00
H164   H     0.04541   0.20825   0.76795   0.00000  Uiso   1.00
H165   H     0.34947   0.99855   0.84129   0.00000  Uiso   1.00
H166   H     0.43205   0.01205   0.54517   0.00000  Uiso   1.00
H167   H     0.88894   0.36303   0.78502   0.00000  Uiso   1.00
H168   H     0.53011   0.92085   0.93967   0.00000  Uiso   1.00
H169   H     0.76114   0.24583   0.77654   0.00000  Uiso   1.00
H170   H     0.84561   0.20912   0.67686   0.00000  Uiso   1.00
H171   H     0.58802   0.37558   0.79060   0.00000  Uiso   1.00
H172   H     0.89209   0.16589   0.86394   0.00000  Uiso   1.00
H173   H     0.87246   0.14786   0.56355   0.00000  Uiso   1.00
H174   H     0.32934   0.49885   0.80340   0.00000  Uiso   1.00
H175   H     0.97051   0.05667   0.95805   0.00000  Uiso   1.00
O176   O     0.69851   0.05297   0.48840   0.00000  Uiso   1.00
O177   O     0.98596   0.51343   0.80307   0.00000  Uiso   1.00
O178   O     0.82717   0.93330   0.00597   0.00000  Uiso   1.00
N179   N     0.52413   0.04904   0.56318   0.00000  Uiso   1.00
N180   N     0.01634   0.37719   0.78741   0.00000  Uiso   1.00
N181   N     0.61576   0.96380   0.93201   0.00000  Uiso   1.00
N182   N     0.76111   0.12212   0.57307   0.00000  Uiso   1.00
N183   N     0.25332   0.45027   0.79730   0.00000  Uiso   1.00
N184   N     0.85275   0.03688   0.94190   0.00000  Uiso   1.00
