data_job_01723
_audit_creation_date              2018-12-19
_audit_creation_method            'Materials Studio'
_symmetry_space_group_name_H-M    'P1'
_symmetry_Int_Tables_number       1
_symmetry_cell_setting            triclinic
loop_
_symmetry_equiv_pos_as_xyz
  x,y,z
_cell_length_a                    44.4792
_cell_length_b                    7.1977
_cell_length_c                    28.9995
_cell_angle_alpha                 90.0000
_cell_angle_beta                  149.8486
_cell_angle_gamma                 90.0000
loop_
_atom_site_label
_atom_site_type_symbol
_atom_site_fract_x
_atom_site_fract_y
_atom_site_fract_z
_atom_site_U_iso_or_equiv
_atom_site_adp_type
_atom_site_occupancy
C1     C     0.84784   0.94192   0.49063   0.00000  Uiso   1.00
C2     C     0.79194   0.02377   0.39418   0.00000  Uiso   1.00
C3     C     0.75504   0.93373   0.31389   0.00000  Uiso   1.00
C4     C     0.70609   0.03243   0.23254   0.00000  Uiso   1.00
C5     C     0.62107   0.13184   0.08292   0.00000  Uiso   1.00
C6     C     0.89880   0.07518   0.54678   0.00000  Uiso   1.00
C7     C     0.95174   0.02835   0.59482   0.00000  Uiso   1.00
C8     C     0.99274   0.17033   0.64194   0.00000  Uiso   1.00
C9     C     0.07362   0.34952   0.72930   0.00000  Uiso   1.00
C10    C     0.83820   0.95667   0.52976   0.00000  Uiso   1.00
C11    C     0.84020   0.81021   0.56350   0.00000  Uiso   1.00
C12    C     0.83020   0.85242   0.59631   0.00000  Uiso   1.00
C13    C     0.81699   0.84761   0.65724   0.00000  Uiso   1.00
C14    C     0.82654   0.27732   0.48893   0.00000  Uiso   1.00
C15    C     0.78037   0.20595   0.39326   0.00000  Uiso   1.00
C16    C     0.73147   0.30481   0.31201   0.00000  Uiso   1.00
C17    C     0.69450   0.21493   0.23161   0.00000  Uiso   1.00
C18    C     0.88723   0.25735   0.54586   0.00000  Uiso   1.00
C19    C     0.92816   0.39943   0.59293   0.00000  Uiso   1.00
C20    C     0.98115   0.35283   0.64101   0.00000  Uiso   1.00
C21    C     0.82662   0.13885   0.52883   0.00000  Uiso   1.00
C22    C     0.81662   0.18129   0.56161   0.00000  Uiso   1.00
C23    C     0.81860   0.03493   0.59539   0.00000  Uiso   1.00
H24    H     0.85686   0.80009   0.49135   0.00000  Uiso   1.00
H25    H     0.76402   0.79275   0.31464   0.00000  Uiso   1.00
H26    H     0.96068   0.88735   0.59552   0.00000  Uiso   1.00
H27    H     0.84916   0.66925   0.56421   0.00000  Uiso   1.00
H28    H     0.65599   0.86497   0.11831   0.00000  Uiso   1.00
H29    H     0.07068   0.06443   0.71060   0.00000  Uiso   1.00
H30    H     0.83551   0.60452   0.64457   0.00000  Uiso   1.00
H31    H     0.81753   0.41916   0.48821   0.00000  Uiso   1.00
H32    H     0.72252   0.44579   0.31131   0.00000  Uiso   1.00
H33    H     0.91919   0.54039   0.59220   0.00000  Uiso   1.00
H34    H     0.80767   0.32229   0.56088   0.00000  Uiso   1.00
H35    H     0.62232   0.39500   0.11561   0.00000  Uiso   1.00
H36    H     0.03701   0.59446   0.70791   0.00000  Uiso   1.00
H37    H     0.80184   0.13455   0.64187   0.00000  Uiso   1.00
O38    O     0.57738   0.13635   0.00066   0.00000  Uiso   1.00
O39    O     0.12143   0.39803   0.77773   0.00000  Uiso   1.00
O40    O     0.81290   0.79463   0.69109   0.00000  Uiso   1.00
N41    N     0.66110   0.98605   0.14195   0.00000  Uiso   1.00
N42    N     0.04880   0.17254   0.69570   0.00000  Uiso   1.00
N43    N     0.82896   0.74256   0.63398   0.00000  Uiso   1.00
N44    N     0.64298   0.27125   0.14050   0.00000  Uiso   1.00
N45    N     0.03068   0.45774   0.69424   0.00000  Uiso   1.00
N46    N     0.81083   0.02777   0.63253   0.00000  Uiso   1.00
C47    C     0.34784   0.44192   0.49063   0.00000  Uiso   1.00
C48    C     0.29194   0.52377   0.39418   0.00000  Uiso   1.00
C49    C     0.25504   0.43373   0.31389   0.00000  Uiso   1.00
C50    C     0.20609   0.53243   0.23254   0.00000  Uiso   1.00
C51    C     0.12107   0.63184   0.08292   0.00000  Uiso   1.00
C52    C     0.39880   0.57518   0.54678   0.00000  Uiso   1.00
C53    C     0.45174   0.52835   0.59482   0.00000  Uiso   1.00
C54    C     0.49274   0.67033   0.64194   0.00000  Uiso   1.00
C55    C     0.57362   0.84952   0.72930   0.00000  Uiso   1.00
C56    C     0.33820   0.45667   0.52976   0.00000  Uiso   1.00
C57    C     0.34020   0.31021   0.56350   0.00000  Uiso   1.00
C58    C     0.33020   0.35242   0.59631   0.00000  Uiso   1.00
C59    C     0.31699   0.34761   0.65724   0.00000  Uiso   1.00
C60    C     0.32654   0.77732   0.48893   0.00000  Uiso   1.00
C61    C     0.28037   0.70595   0.39326   0.00000  Uiso   1.00
C62    C     0.23147   0.80481   0.31201   0.00000  Uiso   1.00
C63    C     0.19450   0.71493   0.23161   0.00000  Uiso   1.00
C64    C     0.38723   0.75735   0.54586   0.00000  Uiso   1.00
C65    C     0.42816   0.89943   0.59293   0.00000  Uiso   1.00
C66    C     0.48115   0.85283   0.64101   0.00000  Uiso   1.00
C67    C     0.32662   0.63885   0.52883   0.00000  Uiso   1.00
C68    C     0.31662   0.68129   0.56161   0.00000  Uiso   1.00
C69    C     0.31860   0.53493   0.59539   0.00000  Uiso   1.00
H70    H     0.35686   0.30009   0.49135   0.00000  Uiso   1.00
H71    H     0.26402   0.29275   0.31464   0.00000  Uiso   1.00
H72    H     0.46068   0.38735   0.59552   0.00000  Uiso   1.00
H73    H     0.34916   0.16925   0.56421   0.00000  Uiso   1.00
H74    H     0.15599   0.36497   0.11831   0.00000  Uiso   1.00
H75    H     0.57068   0.56443   0.71060   0.00000  Uiso   1.00
H76    H     0.33551   0.10452   0.64457   0.00000  Uiso   1.00
H77    H     0.31753   0.91916   0.48821   0.00000  Uiso   1.00
H78    H     0.22252   0.94579   0.31131   0.00000  Uiso   1.00
H79    H     0.41919   0.04039   0.59220   0.00000  Uiso   1.00
H80    H     0.30767   0.82229   0.56088   0.00000  Uiso   1.00
H81    H     0.12232   0.89500   0.11561   0.00000  Uiso   1.00
H82    H     0.53701   0.09446   0.70791   0.00000  Uiso   1.00
H83    H     0.30184   0.63455   0.64187   0.00000  Uiso   1.00
O84    O     0.07738   0.63635   0.00066   0.00000  Uiso   1.00
O85    O     0.62143   0.89803   0.77773   0.00000  Uiso   1.00
O86    O     0.31290   0.29463   0.69109   0.00000  Uiso   1.00
N87    N     0.16110   0.48605   0.14195   0.00000  Uiso   1.00
N88    N     0.54880   0.67254   0.69570   0.00000  Uiso   1.00
N89    N     0.32896   0.24256   0.63398   0.00000  Uiso   1.00
N90    N     0.14298   0.77125   0.14050   0.00000  Uiso   1.00
N91    N     0.53068   0.95774   0.69424   0.00000  Uiso   1.00
N92    N     0.31083   0.52777   0.63253   0.00000  Uiso   1.00
C93    C     0.15216   0.94192   0.00937   0.00000  Uiso   1.00
C94    C     0.20806   0.02377   0.10582   0.00000  Uiso   1.00
C95    C     0.24496   0.93373   0.18611   0.00000  Uiso   1.00
C96    C     0.29391   0.03243   0.26746   0.00000  Uiso   1.00
C97    C     0.37893   0.13184   0.41708   0.00000  Uiso   1.00
C98    C     0.10120   0.07518   0.95322   0.00000  Uiso   1.00
C99    C     0.04826   0.02835   0.90518   0.00000  Uiso   1.00
C100   C     0.00726   0.17033   0.85806   0.00000  Uiso   1.00
C101   C     0.92638   0.34952   0.77070   0.00000  Uiso   1.00
C102   C     0.16180   0.95667   0.97024   0.00000  Uiso   1.00
C103   C     0.15980   0.81021   0.93650   0.00000  Uiso   1.00
C104   C     0.16980   0.85242   0.90369   0.00000  Uiso   1.00
C105   C     0.18301   0.84761   0.84276   0.00000  Uiso   1.00
C106   C     0.17346   0.27732   0.01107   0.00000  Uiso   1.00
C107   C     0.21963   0.20595   0.10674   0.00000  Uiso   1.00
C108   C     0.26853   0.30481   0.18799   0.00000  Uiso   1.00
C109   C     0.30550   0.21493   0.26839   0.00000  Uiso   1.00
C110   C     0.11277   0.25735   0.95414   0.00000  Uiso   1.00
C111   C     0.07184   0.39943   0.90707   0.00000  Uiso   1.00
C112   C     0.01885   0.35283   0.85899   0.00000  Uiso   1.00
C113   C     0.17338   0.13885   0.97117   0.00000  Uiso   1.00
C114   C     0.18338   0.18129   0.93839   0.00000  Uiso   1.00
C115   C     0.18140   0.03493   0.90461   0.00000  Uiso   1.00
H116   H     0.14314   0.80009   0.00865   0.00000  Uiso   1.00
H117   H     0.23598   0.79275   0.18536   0.00000  Uiso   1.00
H118   H     0.03932   0.88735   0.90448   0.00000  Uiso   1.00
H119   H     0.15084   0.66925   0.93579   0.00000  Uiso   1.00
H120   H     0.34401   0.86497   0.38169   0.00000  Uiso   1.00
H121   H     0.92932   0.06443   0.78940   0.00000  Uiso   1.00
H122   H     0.16449   0.60452   0.85543   0.00000  Uiso   1.00
H123   H     0.18247   0.41916   0.01179   0.00000  Uiso   1.00
H124   H     0.27748   0.44579   0.18869   0.00000  Uiso   1.00
H125   H     0.08081   0.54039   0.90780   0.00000  Uiso   1.00
H126   H     0.19233   0.32229   0.93912   0.00000  Uiso   1.00
H127   H     0.37768   0.39500   0.38439   0.00000  Uiso   1.00
H128   H     0.96299   0.59446   0.79209   0.00000  Uiso   1.00
H129   H     0.19816   0.13455   0.85813   0.00000  Uiso   1.00
O130   O     0.42262   0.13635   0.49934   0.00000  Uiso   1.00
O131   O     0.87857   0.39803   0.72227   0.00000  Uiso   1.00
O132   O     0.18710   0.79463   0.80891   0.00000  Uiso   1.00
N133   N     0.33890   0.98605   0.35805   0.00000  Uiso   1.00
N134   N     0.95120   0.17254   0.80430   0.00000  Uiso   1.00
N135   N     0.17104   0.74256   0.86602   0.00000  Uiso   1.00
N136   N     0.35702   0.27125   0.35950   0.00000  Uiso   1.00
N137   N     0.96932   0.45774   0.80576   0.00000  Uiso   1.00
N138   N     0.18917   0.02777   0.86747   0.00000  Uiso   1.00
C139   C     0.65216   0.44192   0.00937   0.00000  Uiso   1.00
C140   C     0.70806   0.52377   0.10582   0.00000  Uiso   1.00
C141   C     0.74496   0.43373   0.18611   0.00000  Uiso   1.00
C142   C     0.79391   0.53243   0.26746   0.00000  Uiso   1.00
C143   C     0.87893   0.63184   0.41708   0.00000  Uiso   1.00
C144   C     0.60120   0.57518   0.95322   0.00000  Uiso   1.00
C145   C     0.54826   0.52835   0.90518   0.00000  Uiso   1.00
C146   C     0.50726   0.67033   0.85806   0.00000  Uiso   1.00
C147   C     0.42638   0.84952   0.77070   0.00000  Uiso   1.00
C148   C     0.66180   0.45667   0.97024   0.00000  Uiso   1.00
C149   C     0.65980   0.31021   0.93650   0.00000  Uiso   1.00
C150   C     0.66980   0.35242   0.90369   0.00000  Uiso   1.00
C151   C     0.68301   0.34761   0.84276   0.00000  Uiso   1.00
C152   C     0.67346   0.77732   0.01107   0.00000  Uiso   1.00
C153   C     0.71963   0.70595   0.10674   0.00000  Uiso   1.00
C154   C     0.76853   0.80481   0.18799   0.00000  Uiso   1.00
C155   C     0.80550   0.71493   0.26839   0.00000  Uiso   1.00
C156   C     0.61277   0.75735   0.95414   0.00000  Uiso   1.00
C157   C     0.57184   0.89943   0.90707   0.00000  Uiso   1.00
C158   C     0.51885   0.85283   0.85899   0.00000  Uiso   1.00
C159   C     0.67338   0.63885   0.97117   0.00000  Uiso   1.00
C160   C     0.68338   0.68129   0.93839   0.00000  Uiso   1.00
C161   C     0.68140   0.53493   0.90461   0.00000  Uiso   1.00
H162   H     0.64314   0.30009   0.00865   0.00000  Uiso   1.00
H163   H     0.73598   0.29275   0.18536   0.00000  Uiso   1.00
H164   H     0.53932   0.38735   0.90448   0.00000  Uiso   1.00
H165   H     0.65084   0.16925   0.93579   0.00000  Uiso   1.00
H166   H     0.84401   0.36497   0.38169   0.00000  Uiso   1.00
H167   H     0.42932   0.56443   0.78940   0.00000  Uiso   1.00
H168   H     0.66449   0.10452   0.85543   0.00000  Uiso   1.00
H169   H     0.68247   0.91916   0.01179   0.00000  Uiso   1.00
H170   H     0.77748   0.94579   0.18869   0.00000  Uiso   1.00
H171   H     0.58081   0.04039   0.90780   0.00000  Uiso   1.00
H172   H     0.69233   0.82229   0.93912   0.00000  Uiso   1.00
H173   H     0.87768   0.89500   0.38439   0.00000  Uiso   1.00
H174   H     0.46299   0.09446   0.79209   0.00000  Uiso   1.00
H175   H     0.69816   0.63455   0.85813   0.00000  Uiso   1.00
O176   O     0.92262   0.63635   0.49934   0.00000  Uiso   1.00
O177   O     0.37857   0.89803   0.72227   0.00000  Uiso   1.00
O178   O     0.68710   0.29463   0.80891   0.00000  Uiso   1.00
N179   N     0.83890   0.48605   0.35805   0.00000  Uiso   1.00
N180   N     0.45120   0.67254   0.80430   0.00000  Uiso   1.00
N181   N     0.67104   0.24256   0.86602   0.00000  Uiso   1.00
N182   N     0.85702   0.77125   0.35950   0.00000  Uiso   1.00
N183   N     0.46932   0.95774   0.80576   0.00000  Uiso   1.00
N184   N     0.68917   0.52777   0.86747   0.00000  Uiso   1.00
C185   C     0.15216   0.05808   0.50937   0.00000  Uiso   1.00
C186   C     0.20806   0.97623   0.60582   0.00000  Uiso   1.00
C187   C     0.24496   0.06627   0.68611   0.00000  Uiso   1.00
C188   C     0.29391   0.96757   0.76746   0.00000  Uiso   1.00
C189   C     0.37893   0.86816   0.91708   0.00000  Uiso   1.00
C190   C     0.10120   0.92482   0.45322   0.00000  Uiso   1.00
C191   C     0.04826   0.97165   0.40518   0.00000  Uiso   1.00
C192   C     0.00726   0.82967   0.35806   0.00000  Uiso   1.00
C193   C     0.92638   0.65048   0.27070   0.00000  Uiso   1.00
C194   C     0.16180   0.04333   0.47024   0.00000  Uiso   1.00
C195   C     0.15980   0.18979   0.43650   0.00000  Uiso   1.00
C196   C     0.16980   0.14758   0.40369   0.00000  Uiso   1.00
C197   C     0.18301   0.15239   0.34276   0.00000  Uiso   1.00
C198   C     0.17346   0.72268   0.51107   0.00000  Uiso   1.00
C199   C     0.21963   0.79405   0.60674   0.00000  Uiso   1.00
C200   C     0.26853   0.69519   0.68799   0.00000  Uiso   1.00
C201   C     0.30550   0.78507   0.76839   0.00000  Uiso   1.00
C202   C     0.11277   0.74265   0.45414   0.00000  Uiso   1.00
C203   C     0.07184   0.60057   0.40707   0.00000  Uiso   1.00
C204   C     0.01885   0.64717   0.35899   0.00000  Uiso   1.00
C205   C     0.17338   0.86115   0.47117   0.00000  Uiso   1.00
C206   C     0.18338   0.81871   0.43839   0.00000  Uiso   1.00
C207   C     0.18140   0.96507   0.40461   0.00000  Uiso   1.00
H208   H     0.14314   0.19991   0.50865   0.00000  Uiso   1.00
H209   H     0.23598   0.20725   0.68536   0.00000  Uiso   1.00
H210   H     0.03932   0.11265   0.40448   0.00000  Uiso   1.00
H211   H     0.15084   0.33075   0.43579   0.00000  Uiso   1.00
H212   H     0.34401   0.13503   0.88169   0.00000  Uiso   1.00
H213   H     0.92932   0.93557   0.28940   0.00000  Uiso   1.00
H214   H     0.16449   0.39548   0.35543   0.00000  Uiso   1.00
H215   H     0.18247   0.58084   0.51179   0.00000  Uiso   1.00
H216   H     0.27748   0.55421   0.68869   0.00000  Uiso   1.00
H217   H     0.08081   0.45961   0.40780   0.00000  Uiso   1.00
H218   H     0.19233   0.67771   0.43912   0.00000  Uiso   1.00
H219   H     0.37768   0.60500   0.88439   0.00000  Uiso   1.00
H220   H     0.96299   0.40554   0.29209   0.00000  Uiso   1.00
H221   H     0.19816   0.86545   0.35813   0.00000  Uiso   1.00
O222   O     0.42262   0.86365   0.99934   0.00000  Uiso   1.00
O223   O     0.87857   0.60197   0.22227   0.00000  Uiso   1.00
O224   O     0.18710   0.20537   0.30891   0.00000  Uiso   1.00
N225   N     0.33890   0.01395   0.85805   0.00000  Uiso   1.00
N226   N     0.95120   0.82746   0.30430   0.00000  Uiso   1.00
N227   N     0.17104   0.25744   0.36602   0.00000  Uiso   1.00
N228   N     0.35702   0.72875   0.85950   0.00000  Uiso   1.00
N229   N     0.96932   0.54226   0.30576   0.00000  Uiso   1.00
N230   N     0.18917   0.97223   0.36747   0.00000  Uiso   1.00
C231   C     0.65216   0.55808   0.50937   0.00000  Uiso   1.00
C232   C     0.70806   0.47623   0.60582   0.00000  Uiso   1.00
C233   C     0.74496   0.56627   0.68611   0.00000  Uiso   1.00
C234   C     0.79391   0.46757   0.76746   0.00000  Uiso   1.00
C235   C     0.87893   0.36816   0.91708   0.00000  Uiso   1.00
C236   C     0.60120   0.42482   0.45322   0.00000  Uiso   1.00
C237   C     0.54826   0.47165   0.40518   0.00000  Uiso   1.00
C238   C     0.50726   0.32967   0.35806   0.00000  Uiso   1.00
C239   C     0.42638   0.15048   0.27070   0.00000  Uiso   1.00
C240   C     0.66180   0.54333   0.47024   0.00000  Uiso   1.00
C241   C     0.65980   0.68979   0.43650   0.00000  Uiso   1.00
C242   C     0.66980   0.64758   0.40369   0.00000  Uiso   1.00
C243   C     0.68301   0.65239   0.34276   0.00000  Uiso   1.00
C244   C     0.67346   0.22268   0.51107   0.00000  Uiso   1.00
C245   C     0.71963   0.29405   0.60674   0.00000  Uiso   1.00
C246   C     0.76853   0.19519   0.68799   0.00000  Uiso   1.00
C247   C     0.80550   0.28507   0.76839   0.00000  Uiso   1.00
C248   C     0.61277   0.24265   0.45414   0.00000  Uiso   1.00
C249   C     0.57184   0.10057   0.40707   0.00000  Uiso   1.00
C250   C     0.51885   0.14717   0.35899   0.00000  Uiso   1.00
C251   C     0.67338   0.36115   0.47117   0.00000  Uiso   1.00
C252   C     0.68338   0.31871   0.43839   0.00000  Uiso   1.00
C253   C     0.68140   0.46507   0.40461   0.00000  Uiso   1.00
H254   H     0.64314   0.69991   0.50865   0.00000  Uiso   1.00
H255   H     0.73598   0.70725   0.68536   0.00000  Uiso   1.00
H256   H     0.53932   0.61265   0.40448   0.00000  Uiso   1.00
H257   H     0.65084   0.83075   0.43579   0.00000  Uiso   1.00
H258   H     0.84401   0.63503   0.88169   0.00000  Uiso   1.00
H259   H     0.42932   0.43557   0.28940   0.00000  Uiso   1.00
H260   H     0.66449   0.89548   0.35543   0.00000  Uiso   1.00
H261   H     0.68247   0.08084   0.51179   0.00000  Uiso   1.00
H262   H     0.77748   0.05421   0.68869   0.00000  Uiso   1.00
H263   H     0.58081   0.95961   0.40780   0.00000  Uiso   1.00
H264   H     0.69233   0.17771   0.43912   0.00000  Uiso   1.00
H265   H     0.87768   0.10500   0.88439   0.00000  Uiso   1.00
H266   H     0.46299   0.90554   0.29209   0.00000  Uiso   1.00
H267   H     0.69816   0.36545   0.35813   0.00000  Uiso   1.00
O268   O     0.92262   0.36365   0.99934   0.00000  Uiso   1.00
O269   O     0.37857   0.10197   0.22227   0.00000  Uiso   1.00
O270   O     0.68710   0.70537   0.30891   0.00000  Uiso   1.00
N271   N     0.83890   0.51395   0.85805   0.00000  Uiso   1.00
N272   N     0.45120   0.32746   0.30430   0.00000  Uiso   1.00
N273   N     0.67104   0.75744   0.36602   0.00000  Uiso   1.00
N274   N     0.85702   0.22875   0.85950   0.00000  Uiso   1.00
N275   N     0.46932   0.04226   0.30576   0.00000  Uiso   1.00
N276   N     0.68917   0.47223   0.36747   0.00000  Uiso   1.00
C277   C     0.84784   0.05808   0.99063   0.00000  Uiso   1.00
C278   C     0.79194   0.97623   0.89418   0.00000  Uiso   1.00
C279   C     0.75504   0.06627   0.81389   0.00000  Uiso   1.00
C280   C     0.70609   0.96757   0.73254   0.00000  Uiso   1.00
C281   C     0.62107   0.86816   0.58292   0.00000  Uiso   1.00
C282   C     0.89880   0.92482   0.04678   0.00000  Uiso   1.00
C283   C     0.95174   0.97165   0.09482   0.00000  Uiso   1.00
C284   C     0.99274   0.82967   0.14194   0.00000  Uiso   1.00
C285   C     0.07362   0.65048   0.22930   0.00000  Uiso   1.00
C286   C     0.83820   0.04333   0.02976   0.00000  Uiso   1.00
C287   C     0.84020   0.18979   0.06350   0.00000  Uiso   1.00
C288   C     0.83020   0.14758   0.09631   0.00000  Uiso   1.00
C289   C     0.81699   0.15239   0.15724   0.00000  Uiso   1.00
C290   C     0.82654   0.72268   0.98893   0.00000  Uiso   1.00
C291   C     0.78037   0.79405   0.89326   0.00000  Uiso   1.00
C292   C     0.73147   0.69519   0.81201   0.00000  Uiso   1.00
C293   C     0.69450   0.78507   0.73161   0.00000  Uiso   1.00
C294   C     0.88723   0.74265   0.04586   0.00000  Uiso   1.00
C295   C     0.92816   0.60057   0.09293   0.00000  Uiso   1.00
C296   C     0.98115   0.64717   0.14101   0.00000  Uiso   1.00
C297   C     0.82662   0.86115   0.02883   0.00000  Uiso   1.00
C298   C     0.81662   0.81871   0.06161   0.00000  Uiso   1.00
C299   C     0.81860   0.96507   0.09539   0.00000  Uiso   1.00
H300   H     0.85686   0.19991   0.99135   0.00000  Uiso   1.00
H301   H     0.76402   0.20725   0.81464   0.00000  Uiso   1.00
H302   H     0.96068   0.11265   0.09552   0.00000  Uiso   1.00
H303   H     0.84916   0.33075   0.06421   0.00000  Uiso   1.00
H304   H     0.65599   0.13503   0.61831   0.00000  Uiso   1.00
H305   H     0.07068   0.93557   0.21060   0.00000  Uiso   1.00
H306   H     0.83551   0.39548   0.14457   0.00000  Uiso   1.00
H307   H     0.81753   0.58084   0.98821   0.00000  Uiso   1.00
H308   H     0.72252   0.55421   0.81131   0.00000  Uiso   1.00
H309   H     0.91919   0.45961   0.09220   0.00000  Uiso   1.00
H310   H     0.80767   0.67771   0.06088   0.00000  Uiso   1.00
H311   H     0.62232   0.60500   0.61561   0.00000  Uiso   1.00
H312   H     0.03701   0.40554   0.20791   0.00000  Uiso   1.00
H313   H     0.80184   0.86545   0.14187   0.00000  Uiso   1.00
O314   O     0.57738   0.86365   0.50066   0.00000  Uiso   1.00
O315   O     0.12143   0.60197   0.27773   0.00000  Uiso   1.00
O316   O     0.81290   0.20537   0.19109   0.00000  Uiso   1.00
N317   N     0.66110   0.01395   0.64195   0.00000  Uiso   1.00
N318   N     0.04880   0.82746   0.19570   0.00000  Uiso   1.00
N319   N     0.82896   0.25744   0.13398   0.00000  Uiso   1.00
N320   N     0.64298   0.72875   0.64050   0.00000  Uiso   1.00
N321   N     0.03068   0.54226   0.19424   0.00000  Uiso   1.00
N322   N     0.81083   0.97223   0.13253   0.00000  Uiso   1.00
C323   C     0.34784   0.55808   0.99063   0.00000  Uiso   1.00
C324   C     0.29194   0.47623   0.89418   0.00000  Uiso   1.00
C325   C     0.25504   0.56627   0.81389   0.00000  Uiso   1.00
C326   C     0.20609   0.46757   0.73254   0.00000  Uiso   1.00
C327   C     0.12107   0.36816   0.58292   0.00000  Uiso   1.00
C328   C     0.39880   0.42482   0.04678   0.00000  Uiso   1.00
C329   C     0.45174   0.47165   0.09482   0.00000  Uiso   1.00
C330   C     0.49274   0.32967   0.14194   0.00000  Uiso   1.00
C331   C     0.57362   0.15048   0.22930   0.00000  Uiso   1.00
C332   C     0.33820   0.54333   0.02976   0.00000  Uiso   1.00
C333   C     0.34020   0.68979   0.06350   0.00000  Uiso   1.00
C334   C     0.33020   0.64758   0.09631   0.00000  Uiso   1.00
C335   C     0.31699   0.65239   0.15724   0.00000  Uiso   1.00
C336   C     0.32654   0.22268   0.98893   0.00000  Uiso   1.00
C337   C     0.28037   0.29405   0.89326   0.00000  Uiso   1.00
C338   C     0.23147   0.19519   0.81201   0.00000  Uiso   1.00
C339   C     0.19450   0.28507   0.73161   0.00000  Uiso   1.00
C340   C     0.38723   0.24265   0.04586   0.00000  Uiso   1.00
C341   C     0.42816   0.10057   0.09293   0.00000  Uiso   1.00
C342   C     0.48115   0.14717   0.14101   0.00000  Uiso   1.00
C343   C     0.32662   0.36115   0.02883   0.00000  Uiso   1.00
C344   C     0.31662   0.31871   0.06161   0.00000  Uiso   1.00
C345   C     0.31860   0.46507   0.09539   0.00000  Uiso   1.00
H346   H     0.35686   0.69991   0.99135   0.00000  Uiso   1.00
H347   H     0.26402   0.70725   0.81464   0.00000  Uiso   1.00
H348   H     0.46068   0.61265   0.09552   0.00000  Uiso   1.00
H349   H     0.34916   0.83075   0.06421   0.00000  Uiso   1.00
H350   H     0.15599   0.63503   0.61831   0.00000  Uiso   1.00
H351   H     0.57068   0.43557   0.21060   0.00000  Uiso   1.00
H352   H     0.33551   0.89548   0.14457   0.00000  Uiso   1.00
H353   H     0.31753   0.08084   0.98821   0.00000  Uiso   1.00
H354   H     0.22252   0.05421   0.81131   0.00000  Uiso   1.00
H355   H     0.41919   0.95961   0.09220   0.00000  Uiso   1.00
H356   H     0.30767   0.17771   0.06088   0.00000  Uiso   1.00
H357   H     0.12232   0.10500   0.61561   0.00000  Uiso   1.00
H358   H     0.53701   0.90554   0.20791   0.00000  Uiso   1.00
H359   H     0.30184   0.36545   0.14187   0.00000  Uiso   1.00
O360   O     0.07738   0.36365   0.50066   0.00000  Uiso   1.00
O361   O     0.62143   0.10197   0.27773   0.00000  Uiso   1.00
O362   O     0.31290   0.70537   0.19109   0.00000  Uiso   1.00
N363   N     0.16110   0.51395   0.64195   0.00000  Uiso   1.00
N364   N     0.54880   0.32746   0.19570   0.00000  Uiso   1.00
N365   N     0.32896   0.75744   0.13398   0.00000  Uiso   1.00
N366   N     0.14298   0.22875   0.64050   0.00000  Uiso   1.00
N367   N     0.53068   0.04226   0.19424   0.00000  Uiso   1.00
N368   N     0.31083   0.47223   0.13253   0.00000  Uiso   1.00
