data_job_05119
_audit_creation_date              2018-12-19
_audit_creation_method            'Materials Studio'
_symmetry_space_group_name_H-M    'P1'
_symmetry_Int_Tables_number       1
_symmetry_cell_setting            triclinic
loop_
_symmetry_equiv_pos_as_xyz
  x,y,z
_cell_length_a                    10.8899
_cell_length_b                    21.8550
_cell_length_c                    23.5153
_cell_angle_alpha                 65.6743
_cell_angle_beta                  89.4176
_cell_angle_gamma                 89.8570
loop_
_atom_site_label
_atom_site_type_symbol
_atom_site_fract_x
_atom_site_fract_y
_atom_site_fract_z
_atom_site_U_iso_or_equiv
_atom_site_adp_type
_atom_site_occupancy
C1     C     0.25521   0.56146   0.57593   0.00000  Uiso   1.00
C2     C     0.11536   0.56279   0.57922   0.00000  Uiso   1.00
C3     C     0.03904   0.50694   0.60265   0.00000  Uiso   1.00
C4     C     0.91357   0.51875   0.60154   0.00000  Uiso   1.00
C5     C     0.70362   0.51088   0.61022   0.00000  Uiso   1.00
C6     C     0.28985   0.60203   0.50761   0.00000  Uiso   1.00
C7     C     0.36025   0.57917   0.47082   0.00000  Uiso   1.00
C8     C     0.38168   0.62402   0.40943   0.00000  Uiso   1.00
C9     C     0.44270   0.67708   0.30695   0.00000  Uiso   1.00
C10    C     0.30073   0.60197   0.61106   0.00000  Uiso   1.00
C11    C     0.38030   0.57907   0.66124   0.00000  Uiso   1.00
C12    C     0.41090   0.62387   0.68694   0.00000  Uiso   1.00
C13    C     0.48880   0.67685   0.74508   0.00000  Uiso   1.00
C14    C     0.16811   0.68173   0.53231   0.00000  Uiso   1.00
C15    C     0.06806   0.62812   0.55553   0.00000  Uiso   1.00
C16    C     0.94267   0.64001   0.55439   0.00000  Uiso   1.00
C17    C     0.86617   0.58419   0.57780   0.00000  Uiso   1.00
C18    C     0.24255   0.66736   0.48392   0.00000  Uiso   1.00
C19    C     0.26388   0.71224   0.42257   0.00000  Uiso   1.00
C20    C     0.33429   0.68946   0.38570   0.00000  Uiso   1.00
C21    C     0.25341   0.66730   0.58737   0.00000  Uiso   1.00
C22    C     0.28391   0.71214   0.61299   0.00000  Uiso   1.00
C23    C     0.36350   0.68932   0.66320   0.00000  Uiso   1.00
H24    H     0.29205   0.51060   0.59437   0.00000  Uiso   1.00
H25    H     0.07569   0.45639   0.62097   0.00000  Uiso   1.00
H26    H     0.39686   0.52862   0.48917   0.00000  Uiso   1.00
H27    H     0.41689   0.52852   0.67957   0.00000  Uiso   1.00
H28    H     0.81495   0.42511   0.63999   0.00000  Uiso   1.00
H29    H     0.49219   0.57740   0.36209   0.00000  Uiso   1.00
H30    H     0.53443   0.57719   0.76357   0.00000  Uiso   1.00
H31    H     0.13127   0.73260   0.51386   0.00000  Uiso   1.00
H32    H     0.90608   0.69057   0.53605   0.00000  Uiso   1.00
H33    H     0.22726   0.76280   0.40425   0.00000  Uiso   1.00
H34    H     0.24728   0.76270   0.59464   0.00000  Uiso   1.00
H35    H     0.67729   0.61518   0.57106   0.00000  Uiso   1.00
H36    H     0.35454   0.76748   0.29317   0.00000  Uiso   1.00
H37    H     0.39677   0.76726   0.69465   0.00000  Uiso   1.00
O38    O     0.60088   0.48850   0.62155   0.00000  Uiso   1.00
O39    O     0.48942   0.68830   0.25697   0.00000  Uiso   1.00
O40    O     0.54482   0.68802   0.78370   0.00000  Uiso   1.00
N41    N     0.81345   0.47561   0.62074   0.00000  Uiso   1.00
N42    N     0.44662   0.61799   0.36092   0.00000  Uiso   1.00
N43    N     0.48614   0.61780   0.73626   0.00000  Uiso   1.00
N44    N     0.73938   0.57788   0.58365   0.00000  Uiso   1.00
N45    N     0.37255   0.72027   0.32383   0.00000  Uiso   1.00
N46    N     0.41206   0.72007   0.69917   0.00000  Uiso   1.00
C47    C     0.77864   0.52463   0.09541   0.00000  Uiso   1.00
C48    C     0.64488   0.54693   0.09028   0.00000  Uiso   1.00
C49    C     0.54354   0.50467   0.10931   0.00000  Uiso   1.00
C50    C     0.42885   0.53488   0.10060   0.00000  Uiso   1.00
C51    C     0.22309   0.55886   0.09667   0.00000  Uiso   1.00
C52    C     0.83228   0.55728   0.02949   0.00000  Uiso   1.00
C53    C     0.88851   0.52371   0.99742   0.00000  Uiso   1.00
C54    C     0.93157   0.56263   0.93755   0.00000  Uiso   1.00
C55    C     0.01682   0.60268   0.83927   0.00000  Uiso   1.00
C56    C     0.84268   0.55796   0.13267   0.00000  Uiso   1.00
C57    C     0.90769   0.52497   0.18734   0.00000  Uiso   1.00
C58    C     0.95955   0.56448   0.21432   0.00000  Uiso   1.00
C59    C     0.06095   0.60558   0.27624   0.00000  Uiso   1.00
C60    C     0.75517   0.65344   0.04611   0.00000  Uiso   1.00
C61    C     0.63214   0.61689   0.06350   0.00000  Uiso   1.00
C62    C     0.51756   0.64718   0.05476   0.00000  Uiso   1.00
C63    C     0.41607   0.60496   0.07377   0.00000  Uiso   1.00
C64    C     0.81953   0.62724   0.00271   0.00000  Uiso   1.00
C65    C     0.86253   0.66622   0.94288   0.00000  Uiso   1.00
C66    C     0.91880   0.63272   0.91072   0.00000  Uiso   1.00
C67    C     0.82993   0.62792   0.10589   0.00000  Uiso   1.00
C68    C     0.88171   0.66748   0.13279   0.00000  Uiso   1.00
C69    C     0.94677   0.63456   0.18750   0.00000  Uiso   1.00
H70    H     0.78858   0.47017   0.11625   0.00000  Uiso   1.00
H71    H     0.55345   0.45053   0.13002   0.00000  Uiso   1.00
H72    H     0.89837   0.46957   0.01816   0.00000  Uiso   1.00
H73    H     0.91754   0.47083   0.20805   0.00000  Uiso   1.00
H74    H     0.28714   0.45961   0.13345   0.00000  Uiso   1.00
H75    H     0.01446   0.49976   0.89759   0.00000  Uiso   1.00
H76    H     0.05490   0.50243   0.29801   0.00000  Uiso   1.00
H77    H     0.74524   0.70791   0.02526   0.00000  Uiso   1.00
H78    H     0.50772   0.70132   0.03404   0.00000  Uiso   1.00
H79    H     0.85265   0.72036   0.92217   0.00000  Uiso   1.00
H80    H     0.87182   0.72162   0.11206   0.00000  Uiso   1.00
H81    H     0.25003   0.66316   0.05555   0.00000  Uiso   1.00
H82    H     0.97736   0.70331   0.81968   0.00000  Uiso   1.00
H83    H     0.01778   0.70598   0.22010   0.00000  Uiso   1.00
O84    O     0.11312   0.55276   0.10190   0.00000  Uiso   1.00
O85    O     0.06736   0.60543   0.79246   0.00000  Uiso   1.00
O86    O     0.12040   0.60893   0.31780   0.00000  Uiso   1.00
N87    N     0.31100   0.50842   0.11393   0.00000  Uiso   1.00
N88    N     0.99099   0.54596   0.89340   0.00000  Uiso   1.00
N89    N     0.02882   0.54845   0.26775   0.00000  Uiso   1.00
N90    N     0.29103   0.61795   0.07201   0.00000  Uiso   1.00
N91    N     0.97102   0.65548   0.85148   0.00000  Uiso   1.00
N92    N     0.00885   0.65798   0.22583   0.00000  Uiso   1.00
C93    C     0.28195   0.94039   0.92249   0.00000  Uiso   1.00
C94    C     0.14788   0.91859   0.92768   0.00000  Uiso   1.00
C95    C     0.04743   0.96122   0.90884   0.00000  Uiso   1.00
C96    C     0.93226   0.93144   0.91758   0.00000  Uiso   1.00
C97    C     0.72622   0.90822   0.92162   0.00000  Uiso   1.00
C98    C     0.33318   0.90738   0.98835   0.00000  Uiso   1.00
C99    C     0.38855   0.94060   0.02051   0.00000  Uiso   1.00
C100   C     0.42938   0.90138   0.08031   0.00000  Uiso   1.00
C101   C     0.51111   0.86076   0.17852   0.00000  Uiso   1.00
C102   C     0.34703   0.90699   0.88503   0.00000  Uiso   1.00
C103   C     0.41406   0.93987   0.83033   0.00000  Uiso   1.00
C104   C     0.46657   0.90032   0.80315   0.00000  Uiso   1.00
C105   C     0.56980   0.85910   0.74095   0.00000  Uiso   1.00
C106   C     0.25604   0.81167   0.97151   0.00000  Uiso   1.00
C107   C     0.13381   0.84867   0.95431   0.00000  Uiso   1.00
C108   C     0.01876   0.81881   0.96308   0.00000  Uiso   1.00
C109   C     0.91816   0.86140   0.94425   0.00000  Uiso   1.00
C110   C     0.31911   0.83747   0.01498   0.00000  Uiso   1.00
C111   C     0.35988   0.79819   0.07474   0.00000  Uiso   1.00
C112   C     0.41528   0.83134   0.10698   0.00000  Uiso   1.00
C113   C     0.33295   0.83707   0.91166   0.00000  Uiso   1.00
C114   C     0.38539   0.79746   0.88456   0.00000  Uiso   1.00
C115   C     0.45248   0.83028   0.82983   0.00000  Uiso   1.00
H116   H     0.29291   0.99482   0.90176   0.00000  Uiso   1.00
H117   H     0.05836   0.01533   0.88824   0.00000  Uiso   1.00
H118   H     0.39943   0.99470   0.99989   0.00000  Uiso   1.00
H119   H     0.42493   0.99398   0.80974   0.00000  Uiso   1.00
H120   H     0.79210   0.00723   0.88501   0.00000  Uiso   1.00
H121   H     0.51132   0.96375   0.12042   0.00000  Uiso   1.00
H122   H     0.56509   0.96221   0.71945   0.00000  Uiso   1.00
H123   H     0.24509   0.75724   0.99224   0.00000  Uiso   1.00
H124   H     0.00790   0.76471   0.98368   0.00000  Uiso   1.00
H125   H     0.34898   0.74409   0.09533   0.00000  Uiso   1.00
H126   H     0.37448   0.74336   0.90518   0.00000  Uiso   1.00
H127   H     0.75115   0.80382   0.96248   0.00000  Uiso   1.00
H128   H     0.47038   0.76034   0.19789   0.00000  Uiso   1.00
H129   H     0.52414   0.75881   0.79692   0.00000  Uiso   1.00
O130   O     0.61646   0.91473   0.91651   0.00000  Uiso   1.00
O131   O     0.56007   0.85768   0.22534   0.00000  Uiso   1.00
O132   O     0.63061   0.85567   0.69928   0.00000  Uiso   1.00
N133   N     0.81502   0.95833   0.90441   0.00000  Uiso   1.00
N134   N     0.48742   0.91768   0.12450   0.00000  Uiso   1.00
N135   N     0.53773   0.91625   0.74964   0.00000  Uiso   1.00
N136   N     0.79298   0.84888   0.94609   0.00000  Uiso   1.00
N137   N     0.46539   0.80823   0.16619   0.00000  Uiso   1.00
N138   N     0.51569   0.80679   0.79132   0.00000  Uiso   1.00
C139   C     0.75492   0.90295   0.44271   0.00000  Uiso   1.00
C140   C     0.61512   0.90169   0.44020   0.00000  Uiso   1.00
C141   C     0.53932   0.95759   0.41715   0.00000  Uiso   1.00
C142   C     0.41380   0.94586   0.41897   0.00000  Uiso   1.00
C143   C     0.20400   0.95384   0.41145   0.00000  Uiso   1.00
C144   C     0.78832   0.86243   0.51086   0.00000  Uiso   1.00
C145   C     0.85816   0.88530   0.54720   0.00000  Uiso   1.00
C146   C     0.87845   0.84051   0.60850   0.00000  Uiso   1.00
C147   C     0.93762   0.78752   0.71065   0.00000  Uiso   1.00
C148   C     0.80093   0.86233   0.40740   0.00000  Uiso   1.00
C149   C     0.88140   0.88512   0.35676   0.00000  Uiso   1.00
C150   C     0.91233   0.84024   0.33097   0.00000  Uiso   1.00
C151   C     0.99108   0.78710   0.27248   0.00000  Uiso   1.00
C152   C     0.66679   0.78272   0.48694   0.00000  Uiso   1.00
C153   C     0.56725   0.83639   0.46423   0.00000  Uiso   1.00
C154   C     0.44181   0.82457   0.46608   0.00000  Uiso   1.00
C155   C     0.36584   0.88044   0.44303   0.00000  Uiso   1.00
C156   C     0.74045   0.79713   0.53488   0.00000  Uiso   1.00
C157   C     0.76065   0.75229   0.59614   0.00000  Uiso   1.00
C158   C     0.83049   0.77509   0.63257   0.00000  Uiso   1.00
C159   C     0.75306   0.79703   0.43142   0.00000  Uiso   1.00
C160   C     0.78388   0.75210   0.40570   0.00000  Uiso   1.00
C161   C     0.86437   0.77482   0.35504   0.00000  Uiso   1.00
H162   H     0.79220   0.95378   0.42401   0.00000  Uiso   1.00
H163   H     0.57641   0.00811   0.39856   0.00000  Uiso   1.00
H164   H     0.89520   0.93584   0.52860   0.00000  Uiso   1.00
H165   H     0.91843   0.93565   0.33819   0.00000  Uiso   1.00
H166   H     0.31605   0.03955   0.38097   0.00000  Uiso   1.00
H167   H     0.98828   0.88714   0.65514   0.00000  Uiso   1.00
H168   H     0.03726   0.88676   0.25362   0.00000  Uiso   1.00
H169   H     0.62952   0.73188   0.50565   0.00000  Uiso   1.00
H170   H     0.40479   0.77403   0.48468   0.00000  Uiso   1.00
H171   H     0.72359   0.70176   0.61471   0.00000  Uiso   1.00
H172   H     0.74681   0.70157   0.42430   0.00000  Uiso   1.00
H173   H     0.17676   0.84956   0.45086   0.00000  Uiso   1.00
H174   H     0.84900   0.69716   0.72504   0.00000  Uiso   1.00
H175   H     0.89797   0.69677   0.32352   0.00000  Uiso   1.00
O176   O     0.10150   0.97629   0.40067   0.00000  Uiso   1.00
O177   O     0.98348   0.77634   0.76036   0.00000  Uiso   1.00
O178   O     0.04772   0.77583   0.23359   0.00000  Uiso   1.00
N179   N     0.31411   0.98905   0.40028   0.00000  Uiso   1.00
N180   N     0.94259   0.84657   0.65662   0.00000  Uiso   1.00
N181   N     0.98841   0.84620   0.28125   0.00000  Uiso   1.00
N182   N     0.23916   0.88682   0.43789   0.00000  Uiso   1.00
N183   N     0.86764   0.74433   0.69423   0.00000  Uiso   1.00
N184   N     0.91346   0.74397   0.31886   0.00000  Uiso   1.00
C185   C     0.80716   0.40384   0.44291   0.00000  Uiso   1.00
C186   C     0.94702   0.40250   0.43968   0.00000  Uiso   1.00
C187   C     0.02336   0.45834   0.41630   0.00000  Uiso   1.00
C188   C     0.14883   0.44653   0.41746   0.00000  Uiso   1.00
C189   C     0.35879   0.45438   0.40886   0.00000  Uiso   1.00
C190   C     0.77242   0.36326   0.51122   0.00000  Uiso   1.00
C191   C     0.70194   0.38611   0.54798   0.00000  Uiso   1.00
C192   C     0.68042   0.34126   0.60936   0.00000  Uiso   1.00
C193   C     0.61924   0.28817   0.71182   0.00000  Uiso   1.00
C194   C     0.76173   0.36335   0.40775   0.00000  Uiso   1.00
C195   C     0.68224   0.38626   0.35753   0.00000  Uiso   1.00
C196   C     0.65171   0.34147   0.33181   0.00000  Uiso   1.00
C197   C     0.57394   0.28852   0.27362   0.00000  Uiso   1.00
C198   C     0.89424   0.28356   0.48655   0.00000  Uiso   1.00
C199   C     0.99431   0.33717   0.46338   0.00000  Uiso   1.00
C200   C     0.11970   0.32527   0.46457   0.00000  Uiso   1.00
C201   C     0.19621   0.38108   0.44120   0.00000  Uiso   1.00
C202   C     0.81971   0.29793   0.53492   0.00000  Uiso   1.00
C203   C     0.79828   0.25303   0.59626   0.00000  Uiso   1.00
C204   C     0.72780   0.27581   0.63311   0.00000  Uiso   1.00
C205   C     0.80903   0.29801   0.43145   0.00000  Uiso   1.00
C206   C     0.77860   0.25318   0.40581   0.00000  Uiso   1.00
C207   C     0.69909   0.27602   0.35556   0.00000  Uiso   1.00
H208   H     0.77033   0.45471   0.42447   0.00000  Uiso   1.00
H209   H     0.98672   0.50890   0.39797   0.00000  Uiso   1.00
H210   H     0.66534   0.43667   0.52963   0.00000  Uiso   1.00
H211   H     0.64566   0.43682   0.33921   0.00000  Uiso   1.00
H212   H     0.24748   0.54016   0.37906   0.00000  Uiso   1.00
H213   H     0.56980   0.38786   0.65667   0.00000  Uiso   1.00
H214   H     0.52829   0.38818   0.25513   0.00000  Uiso   1.00
H215   H     0.93107   0.23270   0.50500   0.00000  Uiso   1.00
H216   H     0.15628   0.27470   0.48292   0.00000  Uiso   1.00
H217   H     0.83490   0.20248   0.61458   0.00000  Uiso   1.00
H218   H     0.81522   0.20263   0.42416   0.00000  Uiso   1.00
H219   H     0.38510   0.35008   0.44801   0.00000  Uiso   1.00
H220   H     0.70742   0.19778   0.72562   0.00000  Uiso   1.00
H221   H     0.66592   0.19810   0.32408   0.00000  Uiso   1.00
O222   O     0.46154   0.47676   0.39757   0.00000  Uiso   1.00
O223   O     0.57244   0.27694   0.76178   0.00000  Uiso   1.00
O224   O     0.51799   0.27736   0.23497   0.00000  Uiso   1.00
N225   N     0.24896   0.48966   0.39831   0.00000  Uiso   1.00
N226   N     0.61539   0.34727   0.65786   0.00000  Uiso   1.00
N227   N     0.57656   0.34756   0.28246   0.00000  Uiso   1.00
N228   N     0.32301   0.38738   0.43541   0.00000  Uiso   1.00
N229   N     0.68944   0.24499   0.69496   0.00000  Uiso   1.00
N230   N     0.65061   0.24528   0.31956   0.00000  Uiso   1.00
C231   C     0.28269   0.44013   0.92426   0.00000  Uiso   1.00
C232   C     0.41643   0.41779   0.92942   0.00000  Uiso   1.00
C233   C     0.51781   0.46002   0.91045   0.00000  Uiso   1.00
C234   C     0.63248   0.42978   0.91918   0.00000  Uiso   1.00
C235   C     0.83822   0.40574   0.92316   0.00000  Uiso   1.00
C236   C     0.22897   0.40745   0.99016   0.00000  Uiso   1.00
C237   C     0.17273   0.44100   0.02225   0.00000  Uiso   1.00
C238   C     0.12958   0.40205   0.08210   0.00000  Uiso   1.00
C239   C     0.04420   0.36196   0.18035   0.00000  Uiso   1.00
C240   C     0.21866   0.40686   0.88694   0.00000  Uiso   1.00
C241   C     0.15373   0.43991   0.83226   0.00000  Uiso   1.00
C242   C     0.10188   0.40046   0.80522   0.00000  Uiso   1.00
C243   C     0.00050   0.35945   0.74321   0.00000  Uiso   1.00
C244   C     0.30603   0.31131   0.97349   0.00000  Uiso   1.00
C245   C     0.42910   0.34782   0.95616   0.00000  Uiso   1.00
C246   C     0.54364   0.31751   0.96492   0.00000  Uiso   1.00
C247   C     0.64519   0.35969   0.94596   0.00000  Uiso   1.00
C248   C     0.24164   0.33749   0.01690   0.00000  Uiso   1.00
C249   C     0.19856   0.29848   0.07671   0.00000  Uiso   1.00
C250   C     0.14228   0.33196   0.10889   0.00000  Uiso   1.00
C251   C     0.23134   0.33690   0.91368   0.00000  Uiso   1.00
C252   C     0.17957   0.29739   0.88672   0.00000  Uiso   1.00
C253   C     0.11458   0.33037   0.83200   0.00000  Uiso   1.00
H254   H     0.27281   0.49460   0.90345   0.00000  Uiso   1.00
H255   H     0.50796   0.51417   0.88977   0.00000  Uiso   1.00
H256   H     0.16292   0.49514   0.00154   0.00000  Uiso   1.00
H257   H     0.14394   0.49405   0.81158   0.00000  Uiso   1.00
H258   H     0.77427   0.50501   0.88642   0.00000  Uiso   1.00
H259   H     0.04669   0.46489   0.12209   0.00000  Uiso   1.00
H260   H     0.00665   0.46259   0.72152   0.00000  Uiso   1.00
H261   H     0.31590   0.25684   0.99430   0.00000  Uiso   1.00
H262   H     0.55343   0.26336   0.98561   0.00000  Uiso   1.00
H263   H     0.20838   0.24434   0.09739   0.00000  Uiso   1.00
H264   H     0.18940   0.24325   0.90742   0.00000  Uiso   1.00
H265   H     0.81117   0.30144   0.96421   0.00000  Uiso   1.00
H266   H     0.08358   0.26133   0.19988   0.00000  Uiso   1.00
H267   H     0.04355   0.25903   0.79931   0.00000  Uiso   1.00
O268   O     0.94820   0.41181   0.91797   0.00000  Uiso   1.00
O269   O     0.99362   0.35918   0.22716   0.00000  Uiso   1.00
O270   O     0.94110   0.35616   0.70162   0.00000  Uiso   1.00
N271   N     0.75036   0.45620   0.90590   0.00000  Uiso   1.00
N272   N     0.07013   0.41870   0.12625   0.00000  Uiso   1.00
N273   N     0.03267   0.41655   0.75176   0.00000  Uiso   1.00
N274   N     0.77021   0.34667   0.94776   0.00000  Uiso   1.00
N275   N     0.08999   0.30916   0.16811   0.00000  Uiso   1.00
N276   N     0.05252   0.30701   0.79361   0.00000  Uiso   1.00
C277   C     0.78066   0.02481   0.09635   0.00000  Uiso   1.00
C278   C     0.91471   0.04664   0.09116   0.00000  Uiso   1.00
C279   C     0.01519   0.00402   0.10998   0.00000  Uiso   1.00
C280   C     0.13034   0.03383   0.10126   0.00000  Uiso   1.00
C281   C     0.33636   0.05709   0.09722   0.00000  Uiso   1.00
C282   C     0.72941   0.05784   0.03049   0.00000  Uiso   1.00
C283   C     0.67409   0.02465   0.99830   0.00000  Uiso   1.00
C284   C     0.63324   0.06390   0.93851   0.00000  Uiso   1.00
C285   C     0.55150   0.10456   0.84030   0.00000  Uiso   1.00
C286   C     0.71554   0.05815   0.13384   0.00000  Uiso   1.00
C287   C     0.64852   0.02521   0.18854   0.00000  Uiso   1.00
C288   C     0.59597   0.06472   0.21576   0.00000  Uiso   1.00
C289   C     0.49269   0.10585   0.27801   0.00000  Uiso   1.00
C290   C     0.80646   0.15353   0.04741   0.00000  Uiso   1.00
C291   C     0.92872   0.11655   0.06458   0.00000  Uiso   1.00
C292   C     0.04375   0.14644   0.05583   0.00000  Uiso   1.00
C293   C     0.14438   0.10387   0.07463   0.00000  Uiso   1.00
C294   C     0.74343   0.12776   0.00391   0.00000  Uiso   1.00
C295   C     0.70264   0.16706   0.94415   0.00000  Uiso   1.00
C296   C     0.64728   0.13394   0.91188   0.00000  Uiso   1.00
C297   C     0.72956   0.12806   0.10726   0.00000  Uiso   1.00
C298   C     0.67708   0.16763   0.13439   0.00000  Uiso   1.00
C299   C     0.61000   0.13476   0.18912   0.00000  Uiso   1.00
H300   H     0.76974   0.97037   0.11704   0.00000  Uiso   1.00
H301   H     0.00431   0.94992   0.13055   0.00000  Uiso   1.00
H302   H     0.66325   0.97055   0.01889   0.00000  Uiso   1.00
H303   H     0.63770   0.97111   0.20910   0.00000  Uiso   1.00
H304   H     0.27055   0.95807   0.13377   0.00000  Uiso   1.00
H305   H     0.55137   0.00157   0.89835   0.00000  Uiso   1.00
H306   H     0.49748   0.00275   0.29944   0.00000  Uiso   1.00
H307   H     0.81737   0.20796   0.02671   0.00000  Uiso   1.00
H308   H     0.05456   0.20054   0.03526   0.00000  Uiso   1.00
H309   H     0.71350   0.22117   0.92360   0.00000  Uiso   1.00
H310   H     0.68795   0.22173   0.11381   0.00000  Uiso   1.00
H311   H     0.31134   0.16148   0.05643   0.00000  Uiso   1.00
H312   H     0.59215   0.20498   0.82100   0.00000  Uiso   1.00
H313   H     0.53827   0.20617   0.22210   0.00000  Uiso   1.00
O314   O     0.44612   0.05061   0.10233   0.00000  Uiso   1.00
O315   O     0.50255   0.10768   0.79347   0.00000  Uiso   1.00
O316   O     0.43186   0.10923   0.31970   0.00000  Uiso   1.00
N317   N     0.24760   0.00696   0.11441   0.00000  Uiso   1.00
N318   N     0.57522   0.04763   0.89429   0.00000  Uiso   1.00
N319   N     0.52481   0.04873   0.26928   0.00000  Uiso   1.00
N320   N     0.26955   0.11642   0.07279   0.00000  Uiso   1.00
N321   N     0.59717   0.15709   0.85268   0.00000  Uiso   1.00
N322   N     0.54676   0.15819   0.22766   0.00000  Uiso   1.00
C323   C     0.30654   0.06192   0.57680   0.00000  Uiso   1.00
C324   C     0.44636   0.06319   0.57923   0.00000  Uiso   1.00
C325   C     0.52218   0.00731   0.60227   0.00000  Uiso   1.00
C326   C     0.64771   0.01905   0.60037   0.00000  Uiso   1.00
C327   C     0.85752   0.01109   0.60777   0.00000  Uiso   1.00
C328   C     0.27300   0.10240   0.50867   0.00000  Uiso   1.00
C329   C     0.20305   0.07949   0.47239   0.00000  Uiso   1.00
C330   C     0.18264   0.12425   0.41109   0.00000  Uiso   1.00
C331   C     0.12324   0.17718   0.30897   0.00000  Uiso   1.00
C332   C     0.26065   0.10256   0.61211   0.00000  Uiso   1.00
C333   C     0.18029   0.07980   0.66279   0.00000  Uiso   1.00
C334   C     0.14945   0.12470   0.68858   0.00000  Uiso   1.00
C335   C     0.07088   0.17788   0.74706   0.00000  Uiso   1.00
C336   C     0.39464   0.18216   0.53247   0.00000  Uiso   1.00
C337   C     0.49420   0.12850   0.55515   0.00000  Uiso   1.00
C338   C     0.61965   0.14033   0.55321   0.00000  Uiso   1.00
C339   C     0.69565   0.08448   0.57624   0.00000  Uiso   1.00
C340   C     0.32085   0.16771   0.48459   0.00000  Uiso   1.00
C341   C     0.30053   0.21252   0.42334   0.00000  Uiso   1.00
C342   C     0.23058   0.18968   0.38697   0.00000  Uiso   1.00
C343   C     0.30850   0.16787   0.58803   0.00000  Uiso   1.00
C344   C     0.27777   0.21282   0.61374   0.00000  Uiso   1.00
C345   C     0.19739   0.19012   0.66445   0.00000  Uiso   1.00
H346   H     0.26929   0.01108   0.59555   0.00000  Uiso   1.00
H347   H     0.48511   0.95678   0.62090   0.00000  Uiso   1.00
H348   H     0.16603   0.02895   0.49104   0.00000  Uiso   1.00
H349   H     0.14328   0.02925   0.68141   0.00000  Uiso   1.00
H350   H     0.74550   0.92537   0.63836   0.00000  Uiso   1.00
H351   H     0.07266   0.07756   0.36456   0.00000  Uiso   1.00
H352   H     0.02468   0.07820   0.76600   0.00000  Uiso   1.00
H353   H     0.43190   0.23300   0.51372   0.00000  Uiso   1.00
H354   H     0.65665   0.19088   0.53458   0.00000  Uiso   1.00
H355   H     0.33757   0.26305   0.40472   0.00000  Uiso   1.00
H356   H     0.31482   0.26336   0.59509   0.00000  Uiso   1.00
H357   H     0.88473   0.11538   0.56829   0.00000  Uiso   1.00
H358   H     0.21188   0.26757   0.29449   0.00000  Uiso   1.00
H359   H     0.16391   0.26821   0.69593   0.00000  Uiso   1.00
O360   O     0.96003   0.98866   0.61850   0.00000  Uiso   1.00
O361   O     0.07727   0.18833   0.25929   0.00000  Uiso   1.00
O362   O     0.01434   0.18917   0.78597   0.00000  Uiso   1.00
N363   N     0.74742   0.97587   0.61902   0.00000  Uiso   1.00
N364   N     0.11837   0.11816   0.36303   0.00000  Uiso   1.00
N365   N     0.07349   0.11876   0.73833   0.00000  Uiso   1.00
N366   N     0.82234   0.07811   0.58132   0.00000  Uiso   1.00
N367   N     0.19329   0.22040   0.32533   0.00000  Uiso   1.00
N368   N     0.14841   0.22100   0.70063   0.00000  Uiso   1.00
