data_job_04960
_audit_creation_date              2018-12-19
_audit_creation_method            'Materials Studio'
_symmetry_space_group_name_H-M    'P1'
_symmetry_Int_Tables_number       1
_symmetry_cell_setting            triclinic
loop_
_symmetry_equiv_pos_as_xyz
  x,y,z
_cell_length_a                    14.4408
_cell_length_b                    12.5542
_cell_length_c                    30.5701
_cell_angle_alpha                 90.0000
_cell_angle_beta                  90.0000
_cell_angle_gamma                 90.0000
loop_
_atom_site_label
_atom_site_type_symbol
_atom_site_fract_x
_atom_site_fract_y
_atom_site_fract_z
_atom_site_U_iso_or_equiv
_atom_site_adp_type
_atom_site_occupancy
C1     C     0.61246   0.61244   0.57980   0.00000  Uiso   1.00
C2     C     0.51740   0.59824   0.55888   0.00000  Uiso   1.00
C3     C     0.49683   0.61229   0.51491   0.00000  Uiso   1.00
C4     C     0.40567   0.59549   0.50224   0.00000  Uiso   1.00
C5     C     0.26841   0.57802   0.46515   0.00000  Uiso   1.00
C6     C     0.59974   0.69425   0.61618   0.00000  Uiso   1.00
C7     C     0.64842   0.78901   0.62040   0.00000  Uiso   1.00
C8     C     0.62658   0.85302   0.65597   0.00000  Uiso   1.00
C9     C     0.61720   0.98457   0.70787   0.00000  Uiso   1.00
C10    C     0.63435   0.50726   0.60251   0.00000  Uiso   1.00
C11    C     0.71215   0.44482   0.59523   0.00000  Uiso   1.00
C12    C     0.71946   0.35140   0.61930   0.00000  Uiso   1.00
C13    C     0.76382   0.19263   0.64996   0.00000  Uiso   1.00
C14    C     0.48713   0.55760   0.63549   0.00000  Uiso   1.00
C15    C     0.44932   0.56846   0.58912   0.00000  Uiso   1.00
C16    C     0.35817   0.55162   0.57652   0.00000  Uiso   1.00
C17    C     0.33747   0.56564   0.53254   0.00000  Uiso   1.00
C18    C     0.53166   0.66446   0.64643   0.00000  Uiso   1.00
C19    C     0.50975   0.72834   0.68201   0.00000  Uiso   1.00
C20    C     0.55838   0.82318   0.68627   0.00000  Uiso   1.00
C21    C     0.56627   0.47747   0.63275   0.00000  Uiso   1.00
C22    C     0.57347   0.38414   0.65684   0.00000  Uiso   1.00
C23    C     0.65126   0.32156   0.64960   0.00000  Uiso   1.00
H24    H     0.66546   0.63564   0.55626   0.00000  Uiso   1.00
H25    H     0.54953   0.63536   0.49151   0.00000  Uiso   1.00
H26    H     0.70110   0.81204   0.59699   0.00000  Uiso   1.00
H27    H     0.76481   0.46789   0.57182   0.00000  Uiso   1.00
H28    H     0.39098   0.62195   0.43308   0.00000  Uiso   1.00
H29    H     0.71059   0.99448   0.65548   0.00000  Uiso   1.00
H30    H     0.84494   0.26878   0.60242   0.00000  Uiso   1.00
H31    H     0.43412   0.53441   0.65904   0.00000  Uiso   1.00
H32    H     0.30550   0.52857   0.59993   0.00000  Uiso   1.00
H33    H     0.45707   0.70526   0.70541   0.00000  Uiso   1.00
H34    H     0.52078   0.36111   0.68024   0.00000  Uiso   1.00
H35    H     0.19291   0.53528   0.52107   0.00000  Uiso   1.00
H36    H     0.51253   0.90781   0.74348   0.00000  Uiso   1.00
H37    H     0.64687   0.18211   0.69042   0.00000  Uiso   1.00
O38    O     0.21150   0.57663   0.43634   0.00000  Uiso   1.00
O39    O     0.63083   0.06536   0.72813   0.00000  Uiso   1.00
O40    O     0.80709   0.11327   0.65852   0.00000  Uiso   1.00
N41    N     0.36202   0.60233   0.46190   0.00000  Uiso   1.00
N42    N     0.66083   0.95063   0.66983   0.00000  Uiso   1.00
N43    N     0.78644   0.27218   0.62023   0.00000  Uiso   1.00
N44    N     0.25544   0.55569   0.50925   0.00000  Uiso   1.00
N45    N     0.55425   0.90399   0.71718   0.00000  Uiso   1.00
N46    N     0.67987   0.22554   0.66758   0.00000  Uiso   1.00
C47    C     0.32292   0.37476   0.89062   0.00000  Uiso   1.00
C48    C     0.22832   0.38902   0.91200   0.00000  Uiso   1.00
C49    C     0.20886   0.37593   0.95613   0.00000  Uiso   1.00
C50    C     0.11795   0.39261   0.96922   0.00000  Uiso   1.00
C51    C     0.98153   0.41033   0.00697   0.00000  Uiso   1.00
C52    C     0.30962   0.29202   0.85464   0.00000  Uiso   1.00
C53    C     0.35854   0.19739   0.85055   0.00000  Uiso   1.00
C54    C     0.33607   0.13243   0.81535   0.00000  Uiso   1.00
C55    C     0.32592   0.99960   0.76404   0.00000  Uiso   1.00
C56    C     0.34389   0.47949   0.86738   0.00000  Uiso   1.00
C57    C     0.42163   0.54246   0.87398   0.00000  Uiso   1.00
C58    C     0.42802   0.63533   0.84950   0.00000  Uiso   1.00
C59    C     0.47108   0.79356   0.81796   0.00000  Uiso   1.00
C60    C     0.19606   0.42768   0.83540   0.00000  Uiso   1.00
C61    C     0.15942   0.41776   0.88200   0.00000  Uiso   1.00
C62    C     0.06851   0.43448   0.89503   0.00000  Uiso   1.00
C63    C     0.04892   0.42141   0.93917   0.00000  Uiso   1.00
C64    C     0.24072   0.32076   0.82465   0.00000  Uiso   1.00
C65    C     0.21818   0.25594   0.78945   0.00000  Uiso   1.00
C66    C     0.26704   0.16123   0.78530   0.00000  Uiso   1.00
C67    C     0.27498   0.50824   0.83738   0.00000  Uiso   1.00
C68    C     0.28127   0.60102   0.81288   0.00000  Uiso   1.00
C69    C     0.35900   0.66412   0.81945   0.00000  Uiso   1.00
H70    H     0.37657   0.35237   0.91397   0.00000  Uiso   1.00
H71    H     0.26221   0.35367   0.97933   0.00000  Uiso   1.00
H72    H     0.41186   0.17517   0.87377   0.00000  Uiso   1.00
H73    H     0.47494   0.52019   0.89720   0.00000  Uiso   1.00
H74    H     0.10502   0.36775   0.03856   0.00000  Uiso   1.00
H75    H     0.42060   0.99138   0.81596   0.00000  Uiso   1.00
H76    H     0.55361   0.71893   0.86537   0.00000  Uiso   1.00
H77    H     0.14242   0.45006   0.81204   0.00000  Uiso   1.00
H78    H     0.01520   0.45672   0.87181   0.00000  Uiso   1.00
H79    H     0.16486   0.27821   0.76624   0.00000  Uiso   1.00
H80    H     0.22793   0.62324   0.78967   0.00000  Uiso   1.00
H81    H     0.90454   0.45138   0.95129   0.00000  Uiso   1.00
H82    H     0.22012   0.07502   0.72869   0.00000  Uiso   1.00
H83    H     0.35313   0.80257   0.77810   0.00000  Uiso   1.00
O84    O     0.92531   0.41215   0.03608   0.00000  Uiso   1.00
O85    O     0.33935   0.91838   0.74403   0.00000  Uiso   1.00
O86    O     0.51385   0.87291   0.80886   0.00000  Uiso   1.00
N87    N     0.07530   0.38654   0.00982   0.00000  Uiso   1.00
N88    N     0.37034   0.03465   0.80171   0.00000  Uiso   1.00
N89    N     0.49470   0.71483   0.84789   0.00000  Uiso   1.00
N90    N     0.96742   0.43154   0.96286   0.00000  Uiso   1.00
N91    N     0.26246   0.07965   0.75475   0.00000  Uiso   1.00
N92    N     0.38682   0.75984   0.80093   0.00000  Uiso   1.00
C93    C     0.38754   0.38756   0.07980   0.00000  Uiso   1.00
C94    C     0.48260   0.40176   0.05888   0.00000  Uiso   1.00
C95    C     0.50317   0.38771   0.01491   0.00000  Uiso   1.00
C96    C     0.59433   0.40451   0.00224   0.00000  Uiso   1.00
C97    C     0.73159   0.42198   0.96515   0.00000  Uiso   1.00
C98    C     0.40026   0.30575   0.11618   0.00000  Uiso   1.00
C99    C     0.35158   0.21099   0.12040   0.00000  Uiso   1.00
C100   C     0.37342   0.14698   0.15597   0.00000  Uiso   1.00
C101   C     0.38280   0.01543   0.20787   0.00000  Uiso   1.00
C102   C     0.36565   0.49274   0.10251   0.00000  Uiso   1.00
C103   C     0.28785   0.55518   0.09523   0.00000  Uiso   1.00
C104   C     0.28054   0.64860   0.11930   0.00000  Uiso   1.00
C105   C     0.23618   0.80737   0.14996   0.00000  Uiso   1.00
C106   C     0.51287   0.44240   0.13549   0.00000  Uiso   1.00
C107   C     0.55068   0.43154   0.08912   0.00000  Uiso   1.00
C108   C     0.64183   0.44838   0.07652   0.00000  Uiso   1.00
C109   C     0.66253   0.43436   0.03254   0.00000  Uiso   1.00
C110   C     0.46834   0.33554   0.14643   0.00000  Uiso   1.00
C111   C     0.49025   0.27166   0.18201   0.00000  Uiso   1.00
C112   C     0.44162   0.17682   0.18627   0.00000  Uiso   1.00
C113   C     0.43373   0.52253   0.13275   0.00000  Uiso   1.00
C114   C     0.42653   0.61586   0.15684   0.00000  Uiso   1.00
C115   C     0.34874   0.67844   0.14960   0.00000  Uiso   1.00
H116   H     0.33454   0.36436   0.05626   0.00000  Uiso   1.00
H117   H     0.45047   0.36464   0.99151   0.00000  Uiso   1.00
H118   H     0.29890   0.18796   0.09699   0.00000  Uiso   1.00
H119   H     0.23519   0.53211   0.07182   0.00000  Uiso   1.00
H120   H     0.60902   0.37805   0.93308   0.00000  Uiso   1.00
H121   H     0.28941   0.00552   0.15548   0.00000  Uiso   1.00
H122   H     0.15506   0.73122   0.10242   0.00000  Uiso   1.00
H123   H     0.56588   0.46559   0.15904   0.00000  Uiso   1.00
H124   H     0.69450   0.47143   0.09993   0.00000  Uiso   1.00
H125   H     0.54293   0.29474   0.20541   0.00000  Uiso   1.00
H126   H     0.47922   0.63889   0.18024   0.00000  Uiso   1.00
H127   H     0.80709   0.46472   0.02107   0.00000  Uiso   1.00
H128   H     0.48747   0.09219   0.24348   0.00000  Uiso   1.00
H129   H     0.35313   0.81789   0.19042   0.00000  Uiso   1.00
O130   O     0.78850   0.42337   0.93634   0.00000  Uiso   1.00
O131   O     0.36917   0.93464   0.22813   0.00000  Uiso   1.00
O132   O     0.19291   0.88673   0.15852   0.00000  Uiso   1.00
N133   N     0.63798   0.39767   0.96190   0.00000  Uiso   1.00
N134   N     0.33917   0.04937   0.16983   0.00000  Uiso   1.00
N135   N     0.21356   0.72782   0.12023   0.00000  Uiso   1.00
N136   N     0.74456   0.44431   0.00925   0.00000  Uiso   1.00
N137   N     0.44575   0.09601   0.21718   0.00000  Uiso   1.00
N138   N     0.32013   0.77446   0.16758   0.00000  Uiso   1.00
C139   C     0.67708   0.62524   0.39062   0.00000  Uiso   1.00
C140   C     0.77168   0.61098   0.41200   0.00000  Uiso   1.00
C141   C     0.79114   0.62407   0.45613   0.00000  Uiso   1.00
C142   C     0.88205   0.60739   0.46922   0.00000  Uiso   1.00
C143   C     0.01847   0.58967   0.50697   0.00000  Uiso   1.00
C144   C     0.69038   0.70798   0.35464   0.00000  Uiso   1.00
C145   C     0.64146   0.80261   0.35055   0.00000  Uiso   1.00
C146   C     0.66393   0.86757   0.31535   0.00000  Uiso   1.00
C147   C     0.67408   0.00040   0.26404   0.00000  Uiso   1.00
C148   C     0.65611   0.52051   0.36738   0.00000  Uiso   1.00
C149   C     0.57837   0.45754   0.37398   0.00000  Uiso   1.00
C150   C     0.57198   0.36467   0.34950   0.00000  Uiso   1.00
C151   C     0.52892   0.20644   0.31796   0.00000  Uiso   1.00
C152   C     0.80394   0.57232   0.33540   0.00000  Uiso   1.00
C153   C     0.84058   0.58224   0.38200   0.00000  Uiso   1.00
C154   C     0.93149   0.56552   0.39503   0.00000  Uiso   1.00
C155   C     0.95108   0.57859   0.43917   0.00000  Uiso   1.00
C156   C     0.75928   0.67924   0.32465   0.00000  Uiso   1.00
C157   C     0.78182   0.74406   0.28945   0.00000  Uiso   1.00
C158   C     0.73296   0.83877   0.28530   0.00000  Uiso   1.00
C159   C     0.72502   0.49176   0.33738   0.00000  Uiso   1.00
C160   C     0.71873   0.39898   0.31288   0.00000  Uiso   1.00
C161   C     0.64100   0.33588   0.31945   0.00000  Uiso   1.00
H162   H     0.62343   0.64763   0.41397   0.00000  Uiso   1.00
H163   H     0.73779   0.64633   0.47933   0.00000  Uiso   1.00
H164   H     0.58814   0.82483   0.37377   0.00000  Uiso   1.00
H165   H     0.52506   0.47981   0.39720   0.00000  Uiso   1.00
H166   H     0.89498   0.63225   0.53856   0.00000  Uiso   1.00
H167   H     0.57940   0.00862   0.31596   0.00000  Uiso   1.00
H168   H     0.44639   0.28107   0.36537   0.00000  Uiso   1.00
H169   H     0.85758   0.54994   0.31204   0.00000  Uiso   1.00
H170   H     0.98480   0.54328   0.37181   0.00000  Uiso   1.00
H171   H     0.83514   0.72179   0.26624   0.00000  Uiso   1.00
H172   H     0.77207   0.37676   0.28967   0.00000  Uiso   1.00
H173   H     0.09546   0.54862   0.45129   0.00000  Uiso   1.00
H174   H     0.77988   0.92498   0.22869   0.00000  Uiso   1.00
H175   H     0.64687   0.19743   0.27810   0.00000  Uiso   1.00
O176   O     0.07469   0.58785   0.53608   0.00000  Uiso   1.00
O177   O     0.66065   0.08162   0.24403   0.00000  Uiso   1.00
O178   O     0.48615   0.12709   0.30886   0.00000  Uiso   1.00
N179   N     0.92470   0.61346   0.50982   0.00000  Uiso   1.00
N180   N     0.62966   0.96535   0.30171   0.00000  Uiso   1.00
N181   N     0.50530   0.28517   0.34789   0.00000  Uiso   1.00
N182   N     0.03258   0.56846   0.46286   0.00000  Uiso   1.00
N183   N     0.73754   0.92035   0.25475   0.00000  Uiso   1.00
N184   N     0.61318   0.24016   0.30093   0.00000  Uiso   1.00
C185   C     0.11246   0.88756   0.57980   0.00000  Uiso   1.00
C186   C     0.01740   0.90176   0.55888   0.00000  Uiso   1.00
C187   C     0.99683   0.88771   0.51491   0.00000  Uiso   1.00
C188   C     0.90567   0.90451   0.50224   0.00000  Uiso   1.00
C189   C     0.76841   0.92198   0.46515   0.00000  Uiso   1.00
C190   C     0.09974   0.80575   0.61618   0.00000  Uiso   1.00
C191   C     0.14842   0.71099   0.62040   0.00000  Uiso   1.00
C192   C     0.12658   0.64698   0.65597   0.00000  Uiso   1.00
C193   C     0.11720   0.51543   0.70787   0.00000  Uiso   1.00
C194   C     0.13435   0.99274   0.60251   0.00000  Uiso   1.00
C195   C     0.21215   0.05518   0.59523   0.00000  Uiso   1.00
C196   C     0.21946   0.14860   0.61930   0.00000  Uiso   1.00
C197   C     0.26382   0.30737   0.64996   0.00000  Uiso   1.00
C198   C     0.98713   0.94240   0.63549   0.00000  Uiso   1.00
C199   C     0.94932   0.93154   0.58912   0.00000  Uiso   1.00
C200   C     0.85817   0.94838   0.57652   0.00000  Uiso   1.00
C201   C     0.83747   0.93436   0.53254   0.00000  Uiso   1.00
C202   C     0.03166   0.83554   0.64643   0.00000  Uiso   1.00
C203   C     0.00975   0.77166   0.68201   0.00000  Uiso   1.00
C204   C     0.05838   0.67682   0.68627   0.00000  Uiso   1.00
C205   C     0.06627   0.02253   0.63275   0.00000  Uiso   1.00
C206   C     0.07347   0.11586   0.65684   0.00000  Uiso   1.00
C207   C     0.15126   0.17844   0.64960   0.00000  Uiso   1.00
H208   H     0.16546   0.86436   0.55626   0.00000  Uiso   1.00
H209   H     0.04953   0.86464   0.49151   0.00000  Uiso   1.00
H210   H     0.20110   0.68796   0.59699   0.00000  Uiso   1.00
H211   H     0.26481   0.03211   0.57182   0.00000  Uiso   1.00
H212   H     0.89098   0.87805   0.43308   0.00000  Uiso   1.00
H213   H     0.21059   0.50552   0.65548   0.00000  Uiso   1.00
H214   H     0.34494   0.23122   0.60242   0.00000  Uiso   1.00
H215   H     0.93412   0.96559   0.65904   0.00000  Uiso   1.00
H216   H     0.80550   0.97143   0.59993   0.00000  Uiso   1.00
H217   H     0.95707   0.79474   0.70541   0.00000  Uiso   1.00
H218   H     0.02078   0.13889   0.68024   0.00000  Uiso   1.00
H219   H     0.69291   0.96472   0.52107   0.00000  Uiso   1.00
H220   H     0.01253   0.59219   0.74348   0.00000  Uiso   1.00
H221   H     0.14687   0.31789   0.69042   0.00000  Uiso   1.00
O222   O     0.71150   0.92337   0.43634   0.00000  Uiso   1.00
O223   O     0.13083   0.43464   0.72813   0.00000  Uiso   1.00
O224   O     0.30709   0.38673   0.65852   0.00000  Uiso   1.00
N225   N     0.86202   0.89767   0.46190   0.00000  Uiso   1.00
N226   N     0.16083   0.54937   0.66983   0.00000  Uiso   1.00
N227   N     0.28644   0.22782   0.62023   0.00000  Uiso   1.00
N228   N     0.75544   0.94431   0.50925   0.00000  Uiso   1.00
N229   N     0.05425   0.59601   0.71718   0.00000  Uiso   1.00
N230   N     0.17987   0.27446   0.66758   0.00000  Uiso   1.00
C231   C     0.82292   0.12524   0.89062   0.00000  Uiso   1.00
C232   C     0.72832   0.11098   0.91200   0.00000  Uiso   1.00
C233   C     0.70886   0.12407   0.95613   0.00000  Uiso   1.00
C234   C     0.61795   0.10739   0.96922   0.00000  Uiso   1.00
C235   C     0.48153   0.08967   0.00697   0.00000  Uiso   1.00
C236   C     0.80962   0.20798   0.85464   0.00000  Uiso   1.00
C237   C     0.85854   0.30261   0.85055   0.00000  Uiso   1.00
C238   C     0.83607   0.36757   0.81535   0.00000  Uiso   1.00
C239   C     0.82592   0.50040   0.76404   0.00000  Uiso   1.00
C240   C     0.84389   0.02051   0.86738   0.00000  Uiso   1.00
C241   C     0.92163   0.95754   0.87398   0.00000  Uiso   1.00
C242   C     0.92802   0.86467   0.84950   0.00000  Uiso   1.00
C243   C     0.97108   0.70644   0.81796   0.00000  Uiso   1.00
C244   C     0.69606   0.07232   0.83540   0.00000  Uiso   1.00
C245   C     0.65942   0.08224   0.88200   0.00000  Uiso   1.00
C246   C     0.56851   0.06552   0.89503   0.00000  Uiso   1.00
C247   C     0.54892   0.07859   0.93917   0.00000  Uiso   1.00
C248   C     0.74072   0.17924   0.82465   0.00000  Uiso   1.00
C249   C     0.71818   0.24406   0.78945   0.00000  Uiso   1.00
C250   C     0.76704   0.33877   0.78530   0.00000  Uiso   1.00
C251   C     0.77498   0.99176   0.83738   0.00000  Uiso   1.00
C252   C     0.78127   0.89898   0.81288   0.00000  Uiso   1.00
C253   C     0.85900   0.83588   0.81945   0.00000  Uiso   1.00
H254   H     0.87657   0.14763   0.91397   0.00000  Uiso   1.00
H255   H     0.76221   0.14633   0.97933   0.00000  Uiso   1.00
H256   H     0.91186   0.32483   0.87377   0.00000  Uiso   1.00
H257   H     0.97494   0.97981   0.89720   0.00000  Uiso   1.00
H258   H     0.60502   0.13225   0.03856   0.00000  Uiso   1.00
H259   H     0.92060   0.50862   0.81596   0.00000  Uiso   1.00
H260   H     0.05361   0.78107   0.86537   0.00000  Uiso   1.00
H261   H     0.64242   0.04994   0.81204   0.00000  Uiso   1.00
H262   H     0.51520   0.04328   0.87181   0.00000  Uiso   1.00
H263   H     0.66486   0.22179   0.76624   0.00000  Uiso   1.00
H264   H     0.72793   0.87676   0.78967   0.00000  Uiso   1.00
H265   H     0.40454   0.04862   0.95129   0.00000  Uiso   1.00
H266   H     0.72012   0.42498   0.72869   0.00000  Uiso   1.00
H267   H     0.85313   0.69743   0.77810   0.00000  Uiso   1.00
O268   O     0.42531   0.08785   0.03608   0.00000  Uiso   1.00
O269   O     0.83935   0.58162   0.74403   0.00000  Uiso   1.00
O270   O     0.01385   0.62709   0.80886   0.00000  Uiso   1.00
N271   N     0.57530   0.11346   0.00982   0.00000  Uiso   1.00
N272   N     0.87034   0.46535   0.80171   0.00000  Uiso   1.00
N273   N     0.99470   0.78517   0.84789   0.00000  Uiso   1.00
N274   N     0.46742   0.06846   0.96286   0.00000  Uiso   1.00
N275   N     0.76246   0.42035   0.75475   0.00000  Uiso   1.00
N276   N     0.88682   0.74016   0.80093   0.00000  Uiso   1.00
C277   C     0.88754   0.11244   0.07980   0.00000  Uiso   1.00
C278   C     0.98260   0.09824   0.05888   0.00000  Uiso   1.00
C279   C     0.00317   0.11229   0.01491   0.00000  Uiso   1.00
C280   C     0.09433   0.09549   0.00224   0.00000  Uiso   1.00
C281   C     0.23159   0.07802   0.96515   0.00000  Uiso   1.00
C282   C     0.90026   0.19425   0.11618   0.00000  Uiso   1.00
C283   C     0.85158   0.28901   0.12040   0.00000  Uiso   1.00
C284   C     0.87342   0.35302   0.15597   0.00000  Uiso   1.00
C285   C     0.88280   0.48457   0.20787   0.00000  Uiso   1.00
C286   C     0.86565   0.00726   0.10251   0.00000  Uiso   1.00
C287   C     0.78785   0.94482   0.09523   0.00000  Uiso   1.00
C288   C     0.78054   0.85140   0.11930   0.00000  Uiso   1.00
C289   C     0.73618   0.69263   0.14996   0.00000  Uiso   1.00
C290   C     0.01287   0.05760   0.13549   0.00000  Uiso   1.00
C291   C     0.05068   0.06846   0.08912   0.00000  Uiso   1.00
C292   C     0.14183   0.05162   0.07652   0.00000  Uiso   1.00
C293   C     0.16253   0.06564   0.03254   0.00000  Uiso   1.00
C294   C     0.96834   0.16446   0.14643   0.00000  Uiso   1.00
C295   C     0.99025   0.22834   0.18201   0.00000  Uiso   1.00
C296   C     0.94162   0.32318   0.18627   0.00000  Uiso   1.00
C297   C     0.93373   0.97747   0.13275   0.00000  Uiso   1.00
C298   C     0.92653   0.88414   0.15684   0.00000  Uiso   1.00
C299   C     0.84874   0.82156   0.14960   0.00000  Uiso   1.00
H300   H     0.83454   0.13564   0.05626   0.00000  Uiso   1.00
H301   H     0.95047   0.13536   0.99151   0.00000  Uiso   1.00
H302   H     0.79890   0.31204   0.09699   0.00000  Uiso   1.00
H303   H     0.73519   0.96789   0.07182   0.00000  Uiso   1.00
H304   H     0.10902   0.12195   0.93308   0.00000  Uiso   1.00
H305   H     0.78941   0.49448   0.15548   0.00000  Uiso   1.00
H306   H     0.65506   0.76878   0.10242   0.00000  Uiso   1.00
H307   H     0.06588   0.03441   0.15904   0.00000  Uiso   1.00
H308   H     0.19450   0.02857   0.09993   0.00000  Uiso   1.00
H309   H     0.04293   0.20526   0.20541   0.00000  Uiso   1.00
H310   H     0.97922   0.86111   0.18024   0.00000  Uiso   1.00
H311   H     0.30709   0.03528   0.02107   0.00000  Uiso   1.00
H312   H     0.98747   0.40781   0.24348   0.00000  Uiso   1.00
H313   H     0.85313   0.68211   0.19042   0.00000  Uiso   1.00
O314   O     0.28850   0.07663   0.93634   0.00000  Uiso   1.00
O315   O     0.86917   0.56536   0.22813   0.00000  Uiso   1.00
O316   O     0.69291   0.61327   0.15852   0.00000  Uiso   1.00
N317   N     0.13798   0.10233   0.96190   0.00000  Uiso   1.00
N318   N     0.83917   0.45063   0.16983   0.00000  Uiso   1.00
N319   N     0.71356   0.77218   0.12023   0.00000  Uiso   1.00
N320   N     0.24456   0.05569   0.00925   0.00000  Uiso   1.00
N321   N     0.94575   0.40399   0.21718   0.00000  Uiso   1.00
N322   N     0.82013   0.72554   0.16758   0.00000  Uiso   1.00
C323   C     0.17708   0.87476   0.39062   0.00000  Uiso   1.00
C324   C     0.27168   0.88902   0.41200   0.00000  Uiso   1.00
C325   C     0.29114   0.87593   0.45613   0.00000  Uiso   1.00
C326   C     0.38205   0.89261   0.46922   0.00000  Uiso   1.00
C327   C     0.51847   0.91033   0.50697   0.00000  Uiso   1.00
C328   C     0.19038   0.79202   0.35464   0.00000  Uiso   1.00
C329   C     0.14146   0.69739   0.35055   0.00000  Uiso   1.00
C330   C     0.16393   0.63243   0.31535   0.00000  Uiso   1.00
C331   C     0.17408   0.49960   0.26404   0.00000  Uiso   1.00
C332   C     0.15611   0.97949   0.36738   0.00000  Uiso   1.00
C333   C     0.07837   0.04246   0.37398   0.00000  Uiso   1.00
C334   C     0.07198   0.13533   0.34950   0.00000  Uiso   1.00
C335   C     0.02892   0.29356   0.31796   0.00000  Uiso   1.00
C336   C     0.30394   0.92768   0.33540   0.00000  Uiso   1.00
C337   C     0.34058   0.91776   0.38200   0.00000  Uiso   1.00
C338   C     0.43149   0.93448   0.39503   0.00000  Uiso   1.00
C339   C     0.45108   0.92141   0.43917   0.00000  Uiso   1.00
C340   C     0.25928   0.82076   0.32465   0.00000  Uiso   1.00
C341   C     0.28182   0.75594   0.28945   0.00000  Uiso   1.00
C342   C     0.23296   0.66123   0.28530   0.00000  Uiso   1.00
C343   C     0.22502   0.00824   0.33738   0.00000  Uiso   1.00
C344   C     0.21873   0.10102   0.31288   0.00000  Uiso   1.00
C345   C     0.14100   0.16412   0.31945   0.00000  Uiso   1.00
H346   H     0.12343   0.85237   0.41397   0.00000  Uiso   1.00
H347   H     0.23779   0.85367   0.47933   0.00000  Uiso   1.00
H348   H     0.08814   0.67517   0.37377   0.00000  Uiso   1.00
H349   H     0.02506   0.02019   0.39720   0.00000  Uiso   1.00
H350   H     0.39498   0.86775   0.53856   0.00000  Uiso   1.00
H351   H     0.07940   0.49138   0.31596   0.00000  Uiso   1.00
H352   H     0.94639   0.21893   0.36537   0.00000  Uiso   1.00
H353   H     0.35758   0.95006   0.31204   0.00000  Uiso   1.00
H354   H     0.48480   0.95672   0.37181   0.00000  Uiso   1.00
H355   H     0.33514   0.77821   0.26624   0.00000  Uiso   1.00
H356   H     0.27207   0.12324   0.28967   0.00000  Uiso   1.00
H357   H     0.59546   0.95138   0.45129   0.00000  Uiso   1.00
H358   H     0.27988   0.57502   0.22869   0.00000  Uiso   1.00
H359   H     0.14687   0.30257   0.27810   0.00000  Uiso   1.00
O360   O     0.57469   0.91215   0.53608   0.00000  Uiso   1.00
O361   O     0.16065   0.41838   0.24403   0.00000  Uiso   1.00
O362   O     0.98615   0.37291   0.30886   0.00000  Uiso   1.00
N363   N     0.42470   0.88654   0.50982   0.00000  Uiso   1.00
N364   N     0.12966   0.53465   0.30171   0.00000  Uiso   1.00
N365   N     0.00530   0.21483   0.34789   0.00000  Uiso   1.00
N366   N     0.53258   0.93154   0.46286   0.00000  Uiso   1.00
N367   N     0.23754   0.57965   0.25475   0.00000  Uiso   1.00
N368   N     0.11318   0.25984   0.30093   0.00000  Uiso   1.00
