data_job_04995
_audit_creation_date              2018-12-19
_audit_creation_method            'Materials Studio'
_symmetry_space_group_name_H-M    'P1'
_symmetry_Int_Tables_number       1
_symmetry_cell_setting            triclinic
loop_
_symmetry_equiv_pos_as_xyz
  x,y,z
_cell_length_a                    14.8834
_cell_length_b                    16.9425
_cell_length_c                    25.9596
_cell_angle_alpha                 90.0000
_cell_angle_beta                  147.0190
_cell_angle_gamma                 90.0000
loop_
_atom_site_label
_atom_site_type_symbol
_atom_site_fract_x
_atom_site_fract_y
_atom_site_fract_z
_atom_site_U_iso_or_equiv
_atom_site_adp_type
_atom_site_occupancy
C1     C     0.41668   0.29686   0.08995   0.00000  Uiso   1.00
C2     C     0.45511   0.21345   0.08990   0.00000  Uiso   1.00
C3     C     0.40913   0.14414   0.09240   0.00000  Uiso   1.00
C4     C     0.45619   0.07377   0.09190   0.00000  Uiso   1.00
C5     C     0.50227   0.94440   0.09231   0.00000  Uiso   1.00
C6     C     0.58259   0.33878   0.17431   0.00000  Uiso   1.00
C7     C     0.64377   0.37486   0.24776   0.00000  Uiso   1.00
C8     C     0.79813   0.41000   0.31831   0.00000  Uiso   1.00
C9     C     0.04207   0.47527   0.44973   0.00000  Uiso   1.00
C10    C     0.32566   0.33715   0.00199   0.00000  Uiso   1.00
C11    C     0.17084   0.37188   0.93058   0.00000  Uiso   1.00
C12    C     0.10890   0.40567   0.85606   0.00000  Uiso   1.00
C13    C     0.95393   0.46840   0.71994   0.00000  Uiso   1.00
C14    C     0.58202   0.29512   0.08461   0.00000  Uiso   1.00
C15    C     0.54492   0.21251   0.08700   0.00000  Uiso   1.00
C16    C     0.59206   0.14222   0.08649   0.00000  Uiso   1.00
C17    C     0.54615   0.07282   0.08899   0.00000  Uiso   1.00
C18    C     0.67239   0.33784   0.17141   0.00000  Uiso   1.00
C19    C     0.82670   0.37294   0.24186   0.00000  Uiso   1.00
C20    C     0.88810   0.40906   0.31541   0.00000  Uiso   1.00
C21    C     0.41547   0.33621   0.99909   0.00000  Uiso   1.00
C22    C     0.35376   0.36996   0.92467   0.00000  Uiso   1.00
C23    C     0.19887   0.40473   0.85316   0.00000  Uiso   1.00
H24    H     0.34677   0.29759   0.09221   0.00000  Uiso   1.00
H25    H     0.33964   0.14489   0.09465   0.00000  Uiso   1.00
H26    H     0.57424   0.37559   0.24998   0.00000  Uiso   1.00
H27    H     0.10138   0.37260   0.93285   0.00000  Uiso   1.00
H28    H     0.37140   0.97518   0.09611   0.00000  Uiso   1.00
H29    H     0.86603   0.46164   0.42363   0.00000  Uiso   1.00
H30    H     0.86891   0.45534   0.75489   0.00000  Uiso   1.00
H31    H     0.65194   0.29439   0.08235   0.00000  Uiso   1.00
H32    H     0.66155   0.14151   0.08425   0.00000  Uiso   1.00
H33    H     0.89615   0.37220   0.23959   0.00000  Uiso   1.00
H34    H     0.42329   0.36922   0.92245   0.00000  Uiso   1.00
H35    H     0.63268   0.97244   0.08767   0.00000  Uiso   1.00
H36    H     0.12731   0.45890   0.41519   0.00000  Uiso   1.00
H37    H     0.13019   0.45260   0.74645   0.00000  Uiso   1.00
O38    O     0.50290   0.87330   0.09335   0.00000  Uiso   1.00
O39    O     0.15182   0.51152   0.52303   0.00000  Uiso   1.00
O40    O     0.84363   0.50326   0.64566   0.00000  Uiso   1.00
N41    N     0.43154   0.99552   0.09384   0.00000  Uiso   1.00
N42    N     0.89400   0.45031   0.40006   0.00000  Uiso   1.00
N43    N     0.96180   0.44445   0.77486   0.00000  Uiso   1.00
N44    N     0.57213   0.99404   0.08930   0.00000  Uiso   1.00
N45    N     0.03459   0.44883   0.39552   0.00000  Uiso   1.00
N46    N     0.10239   0.44297   0.77032   0.00000  Uiso   1.00
C47    C     0.58332   0.79686   0.41005   0.00000  Uiso   1.00
C48    C     0.54489   0.71345   0.41010   0.00000  Uiso   1.00
C49    C     0.59087   0.64414   0.40760   0.00000  Uiso   1.00
C50    C     0.54381   0.57377   0.40810   0.00000  Uiso   1.00
C51    C     0.49773   0.44440   0.40769   0.00000  Uiso   1.00
C52    C     0.41741   0.83878   0.32569   0.00000  Uiso   1.00
C53    C     0.35623   0.87486   0.25224   0.00000  Uiso   1.00
C54    C     0.20187   0.91000   0.18169   0.00000  Uiso   1.00
C55    C     0.95793   0.97527   0.05027   0.00000  Uiso   1.00
C56    C     0.67434   0.83715   0.49801   0.00000  Uiso   1.00
C57    C     0.82916   0.87188   0.56942   0.00000  Uiso   1.00
C58    C     0.89110   0.90567   0.64394   0.00000  Uiso   1.00
C59    C     0.04607   0.96840   0.78006   0.00000  Uiso   1.00
C60    C     0.41798   0.79512   0.41539   0.00000  Uiso   1.00
C61    C     0.45508   0.71251   0.41300   0.00000  Uiso   1.00
C62    C     0.40794   0.64222   0.41351   0.00000  Uiso   1.00
C63    C     0.45385   0.57282   0.41101   0.00000  Uiso   1.00
C64    C     0.32761   0.83784   0.32859   0.00000  Uiso   1.00
C65    C     0.17330   0.87294   0.25814   0.00000  Uiso   1.00
C66    C     0.11190   0.90906   0.18459   0.00000  Uiso   1.00
C67    C     0.58453   0.83621   0.50091   0.00000  Uiso   1.00
C68    C     0.64624   0.86996   0.57533   0.00000  Uiso   1.00
C69    C     0.80113   0.90473   0.64684   0.00000  Uiso   1.00
H70    H     0.65323   0.79759   0.40779   0.00000  Uiso   1.00
H71    H     0.66036   0.64489   0.40535   0.00000  Uiso   1.00
H72    H     0.42576   0.87559   0.25002   0.00000  Uiso   1.00
H73    H     0.89862   0.87260   0.56715   0.00000  Uiso   1.00
H74    H     0.62860   0.47518   0.40389   0.00000  Uiso   1.00
H75    H     0.13397   0.96164   0.07637   0.00000  Uiso   1.00
H76    H     0.13109   0.95534   0.74511   0.00000  Uiso   1.00
H77    H     0.34806   0.79439   0.41765   0.00000  Uiso   1.00
H78    H     0.33845   0.64151   0.41575   0.00000  Uiso   1.00
H79    H     0.10385   0.87220   0.26041   0.00000  Uiso   1.00
H80    H     0.57671   0.86922   0.57755   0.00000  Uiso   1.00
H81    H     0.36732   0.47244   0.41233   0.00000  Uiso   1.00
H82    H     0.87269   0.95890   0.08481   0.00000  Uiso   1.00
H83    H     0.86981   0.95260   0.75355   0.00000  Uiso   1.00
O84    O     0.49710   0.37330   0.40665   0.00000  Uiso   1.00
O85    O     0.84818   0.01152   0.97697   0.00000  Uiso   1.00
O86    O     0.15637   0.00326   0.85434   0.00000  Uiso   1.00
N87    N     0.56846   0.49552   0.40616   0.00000  Uiso   1.00
N88    N     0.10600   0.95031   0.09994   0.00000  Uiso   1.00
N89    N     0.03820   0.94445   0.72514   0.00000  Uiso   1.00
N90    N     0.42787   0.49404   0.41070   0.00000  Uiso   1.00
N91    N     0.96541   0.94883   0.10448   0.00000  Uiso   1.00
N92    N     0.89761   0.94297   0.72968   0.00000  Uiso   1.00
C93    C     0.58332   0.70314   0.91005   0.00000  Uiso   1.00
C94    C     0.54489   0.78655   0.91010   0.00000  Uiso   1.00
C95    C     0.59087   0.85586   0.90760   0.00000  Uiso   1.00
C96    C     0.54381   0.92623   0.90810   0.00000  Uiso   1.00
C97    C     0.49773   0.05560   0.90769   0.00000  Uiso   1.00
C98    C     0.41741   0.66122   0.82569   0.00000  Uiso   1.00
C99    C     0.35623   0.62514   0.75224   0.00000  Uiso   1.00
C100   C     0.20187   0.59000   0.68169   0.00000  Uiso   1.00
C101   C     0.95793   0.52473   0.55027   0.00000  Uiso   1.00
C102   C     0.67434   0.66285   0.99801   0.00000  Uiso   1.00
C103   C     0.82916   0.62812   0.06942   0.00000  Uiso   1.00
C104   C     0.89110   0.59433   0.14394   0.00000  Uiso   1.00
C105   C     0.04607   0.53160   0.28006   0.00000  Uiso   1.00
C106   C     0.41798   0.70488   0.91539   0.00000  Uiso   1.00
C107   C     0.45508   0.78749   0.91300   0.00000  Uiso   1.00
C108   C     0.40794   0.85778   0.91351   0.00000  Uiso   1.00
C109   C     0.45385   0.92718   0.91101   0.00000  Uiso   1.00
C110   C     0.32761   0.66216   0.82859   0.00000  Uiso   1.00
C111   C     0.17330   0.62706   0.75814   0.00000  Uiso   1.00
C112   C     0.11190   0.59094   0.68459   0.00000  Uiso   1.00
C113   C     0.58453   0.66379   0.00091   0.00000  Uiso   1.00
C114   C     0.64624   0.63004   0.07533   0.00000  Uiso   1.00
C115   C     0.80113   0.59527   0.14684   0.00000  Uiso   1.00
H116   H     0.65323   0.70241   0.90779   0.00000  Uiso   1.00
H117   H     0.66036   0.85511   0.90535   0.00000  Uiso   1.00
H118   H     0.42576   0.62441   0.75002   0.00000  Uiso   1.00
H119   H     0.89862   0.62740   0.06715   0.00000  Uiso   1.00
H120   H     0.62860   0.02482   0.90389   0.00000  Uiso   1.00
H121   H     0.13397   0.53836   0.57637   0.00000  Uiso   1.00
H122   H     0.13109   0.54466   0.24511   0.00000  Uiso   1.00
H123   H     0.34806   0.70561   0.91765   0.00000  Uiso   1.00
H124   H     0.33845   0.85849   0.91575   0.00000  Uiso   1.00
H125   H     0.10385   0.62780   0.76041   0.00000  Uiso   1.00
H126   H     0.57671   0.63078   0.07755   0.00000  Uiso   1.00
H127   H     0.36732   0.02756   0.91233   0.00000  Uiso   1.00
H128   H     0.87269   0.54110   0.58481   0.00000  Uiso   1.00
H129   H     0.86981   0.54740   0.25355   0.00000  Uiso   1.00
O130   O     0.49710   0.12670   0.90665   0.00000  Uiso   1.00
O131   O     0.84818   0.48848   0.47697   0.00000  Uiso   1.00
O132   O     0.15637   0.49674   0.35434   0.00000  Uiso   1.00
N133   N     0.56846   0.00448   0.90616   0.00000  Uiso   1.00
N134   N     0.10600   0.54969   0.59994   0.00000  Uiso   1.00
N135   N     0.03820   0.55555   0.22514   0.00000  Uiso   1.00
N136   N     0.42787   0.00596   0.91070   0.00000  Uiso   1.00
N137   N     0.96541   0.55117   0.60448   0.00000  Uiso   1.00
N138   N     0.89761   0.55703   0.22968   0.00000  Uiso   1.00
C139   C     0.41668   0.20314   0.58995   0.00000  Uiso   1.00
C140   C     0.45511   0.28655   0.58990   0.00000  Uiso   1.00
C141   C     0.40913   0.35586   0.59240   0.00000  Uiso   1.00
C142   C     0.45619   0.42623   0.59190   0.00000  Uiso   1.00
C143   C     0.50227   0.55560   0.59231   0.00000  Uiso   1.00
C144   C     0.58259   0.16122   0.67431   0.00000  Uiso   1.00
C145   C     0.64377   0.12514   0.74776   0.00000  Uiso   1.00
C146   C     0.79813   0.09000   0.81831   0.00000  Uiso   1.00
C147   C     0.04207   0.02473   0.94973   0.00000  Uiso   1.00
C148   C     0.32566   0.16285   0.50199   0.00000  Uiso   1.00
C149   C     0.17084   0.12812   0.43058   0.00000  Uiso   1.00
C150   C     0.10890   0.09433   0.35606   0.00000  Uiso   1.00
C151   C     0.95393   0.03160   0.21994   0.00000  Uiso   1.00
C152   C     0.58202   0.20488   0.58461   0.00000  Uiso   1.00
C153   C     0.54492   0.28749   0.58700   0.00000  Uiso   1.00
C154   C     0.59206   0.35778   0.58649   0.00000  Uiso   1.00
C155   C     0.54615   0.42718   0.58899   0.00000  Uiso   1.00
C156   C     0.67239   0.16216   0.67141   0.00000  Uiso   1.00
C157   C     0.82670   0.12706   0.74186   0.00000  Uiso   1.00
C158   C     0.88810   0.09094   0.81541   0.00000  Uiso   1.00
C159   C     0.41547   0.16379   0.49909   0.00000  Uiso   1.00
C160   C     0.35376   0.13004   0.42467   0.00000  Uiso   1.00
C161   C     0.19887   0.09527   0.35316   0.00000  Uiso   1.00
H162   H     0.34677   0.20241   0.59221   0.00000  Uiso   1.00
H163   H     0.33964   0.35511   0.59465   0.00000  Uiso   1.00
H164   H     0.57424   0.12441   0.74998   0.00000  Uiso   1.00
H165   H     0.10138   0.12740   0.43285   0.00000  Uiso   1.00
H166   H     0.37140   0.52482   0.59611   0.00000  Uiso   1.00
H167   H     0.86603   0.03836   0.92363   0.00000  Uiso   1.00
H168   H     0.86891   0.04466   0.25489   0.00000  Uiso   1.00
H169   H     0.65194   0.20561   0.58235   0.00000  Uiso   1.00
H170   H     0.66155   0.35849   0.58425   0.00000  Uiso   1.00
H171   H     0.89615   0.12780   0.73959   0.00000  Uiso   1.00
H172   H     0.42329   0.13078   0.42245   0.00000  Uiso   1.00
H173   H     0.63268   0.52756   0.58767   0.00000  Uiso   1.00
H174   H     0.12731   0.04110   0.91519   0.00000  Uiso   1.00
H175   H     0.13019   0.04740   0.24645   0.00000  Uiso   1.00
O176   O     0.50290   0.62670   0.59335   0.00000  Uiso   1.00
O177   O     0.15182   0.98848   0.02303   0.00000  Uiso   1.00
O178   O     0.84363   0.99674   0.14566   0.00000  Uiso   1.00
N179   N     0.43154   0.50448   0.59384   0.00000  Uiso   1.00
N180   N     0.89400   0.04969   0.90006   0.00000  Uiso   1.00
N181   N     0.96180   0.05555   0.27486   0.00000  Uiso   1.00
N182   N     0.57213   0.50596   0.58930   0.00000  Uiso   1.00
N183   N     0.03459   0.05117   0.89552   0.00000  Uiso   1.00
N184   N     0.10239   0.05703   0.27032   0.00000  Uiso   1.00
