data_job_03246
_audit_creation_date              2018-12-19
_audit_creation_method            'Materials Studio'
_symmetry_space_group_name_H-M    'P1'
_symmetry_Int_Tables_number       1
_symmetry_cell_setting            triclinic
loop_
_symmetry_equiv_pos_as_xyz
  x,y,z
_cell_length_a                    32.0101
_cell_length_b                    10.9216
_cell_length_c                    24.1797
_cell_angle_alpha                 90.0000
_cell_angle_beta                  54.4735
_cell_angle_gamma                 90.0000
loop_
_atom_site_label
_atom_site_type_symbol
_atom_site_fract_x
_atom_site_fract_y
_atom_site_fract_z
_atom_site_U_iso_or_equiv
_atom_site_adp_type
_atom_site_occupancy
C1     C     0.85766   0.72063   0.81610   0.00000  Uiso   1.00
C2     C     0.88248   0.81063   0.83713   0.00000  Uiso   1.00
C3     C     0.90282   0.78154   0.87286   0.00000  Uiso   1.00
C4     C     0.92381   0.87695   0.88719   0.00000  Uiso   1.00
C5     C     0.96224   0.99843   0.92302   0.00000  Uiso   1.00
C6     C     0.80398   0.77018   0.84587   0.00000  Uiso   1.00
C7     C     0.75834   0.70708   0.88895   0.00000  Uiso   1.00
C8     C     0.71325   0.76844   0.91063   0.00000  Uiso   1.00
C9     C     0.62982   0.82709   0.95999   0.00000  Uiso   1.00
C10    C     0.88725   0.73264   0.73920   0.00000  Uiso   1.00
C11    C     0.91160   0.63797   0.69258   0.00000  Uiso   1.00
C12    C     0.93660   0.66772   0.62445   0.00000  Uiso   1.00
C13    C     0.98244   0.66809   0.50818   0.00000  Uiso   1.00
C14    C     0.85874   0.94180   0.77799   0.00000  Uiso   1.00
C15    C     0.88307   0.93076   0.81643   0.00000  Uiso   1.00
C16    C     0.90403   0.02624   0.83070   0.00000  Uiso   1.00
C17    C     0.92440   0.99730   0.86646   0.00000  Uiso   1.00
C18    C     0.80457   0.89031   0.82517   0.00000  Uiso   1.00
C19    C     0.75954   0.95177   0.84679   0.00000  Uiso   1.00
C20    C     0.71384   0.88879   0.88989   0.00000  Uiso   1.00
C21    C     0.88784   0.85277   0.71850   0.00000  Uiso   1.00
C22    C     0.91280   0.88267   0.65042   0.00000  Uiso   1.00
C23    C     0.93719   0.78807   0.60371   0.00000  Uiso   1.00
H24    H     0.85719   0.62710   0.83221   0.00000  Uiso   1.00
H25    H     0.90235   0.68856   0.88888   0.00000  Uiso   1.00
H26    H     0.75789   0.61411   0.90495   0.00000  Uiso   1.00
H27    H     0.91113   0.54502   0.70862   0.00000  Uiso   1.00
H28    H     0.95267   0.80969   0.94259   0.00000  Uiso   1.00
H29    H     0.64807   0.65268   0.97647   0.00000  Uiso   1.00
H30    H     0.97119   0.50699   0.56245   0.00000  Uiso   1.00
H31    H     0.85920   0.03533   0.76188   0.00000  Uiso   1.00
H32    H     0.90448   0.11919   0.81468   0.00000  Uiso   1.00
H33    H     0.76002   0.04474   0.83076   0.00000  Uiso   1.00
H34    H     0.91325   0.97565   0.63442   0.00000  Uiso   1.00
H35    H     0.95439   0.15920   0.88238   0.00000  Uiso   1.00
H36    H     0.64979   0.00220   0.91625   0.00000  Uiso   1.00
H37    H     0.97292   0.85651   0.50224   0.00000  Uiso   1.00
O38    O     0.98326   0.03226   0.94851   0.00000  Uiso   1.00
O39    O     0.58364   0.82626   0.99294   0.00000  Uiso   1.00
O40    O     0.00757   0.63512   0.44977   0.00000  Uiso   1.00
N41    N     0.94687   0.88043   0.92116   0.00000  Uiso   1.00
N42    N     0.66208   0.73365   0.95284   0.00000  Uiso   1.00
N43    N     0.96417   0.59743   0.56578   0.00000  Uiso   1.00
N44    N     0.94780   0.06851   0.88876   0.00000  Uiso   1.00
N45    N     0.66301   0.92172   0.92044   0.00000  Uiso   1.00
N46    N     0.96510   0.78550   0.53337   0.00000  Uiso   1.00
C47    C     0.35766   0.22063   0.81610   0.00000  Uiso   1.00
C48    C     0.38248   0.31063   0.83713   0.00000  Uiso   1.00
C49    C     0.40282   0.28154   0.87286   0.00000  Uiso   1.00
C50    C     0.42381   0.37695   0.88719   0.00000  Uiso   1.00
C51    C     0.46224   0.49843   0.92302   0.00000  Uiso   1.00
C52    C     0.30398   0.27018   0.84587   0.00000  Uiso   1.00
C53    C     0.25834   0.20708   0.88895   0.00000  Uiso   1.00
C54    C     0.21325   0.26844   0.91063   0.00000  Uiso   1.00
C55    C     0.12982   0.32709   0.95999   0.00000  Uiso   1.00
C56    C     0.38725   0.23264   0.73920   0.00000  Uiso   1.00
C57    C     0.41160   0.13797   0.69258   0.00000  Uiso   1.00
C58    C     0.43660   0.16772   0.62445   0.00000  Uiso   1.00
C59    C     0.48244   0.16809   0.50818   0.00000  Uiso   1.00
C60    C     0.35874   0.44180   0.77799   0.00000  Uiso   1.00
C61    C     0.38307   0.43076   0.81643   0.00000  Uiso   1.00
C62    C     0.40403   0.52624   0.83070   0.00000  Uiso   1.00
C63    C     0.42440   0.49730   0.86646   0.00000  Uiso   1.00
C64    C     0.30457   0.39031   0.82517   0.00000  Uiso   1.00
C65    C     0.25954   0.45177   0.84679   0.00000  Uiso   1.00
C66    C     0.21384   0.38879   0.88989   0.00000  Uiso   1.00
C67    C     0.38784   0.35277   0.71850   0.00000  Uiso   1.00
C68    C     0.41280   0.38267   0.65042   0.00000  Uiso   1.00
C69    C     0.43719   0.28807   0.60371   0.00000  Uiso   1.00
H70    H     0.35719   0.12710   0.83221   0.00000  Uiso   1.00
H71    H     0.40235   0.18856   0.88888   0.00000  Uiso   1.00
H72    H     0.25789   0.11411   0.90495   0.00000  Uiso   1.00
H73    H     0.41113   0.04502   0.70862   0.00000  Uiso   1.00
H74    H     0.45267   0.30969   0.94259   0.00000  Uiso   1.00
H75    H     0.14807   0.15268   0.97647   0.00000  Uiso   1.00
H76    H     0.47119   0.00699   0.56245   0.00000  Uiso   1.00
H77    H     0.35920   0.53533   0.76188   0.00000  Uiso   1.00
H78    H     0.40448   0.61919   0.81468   0.00000  Uiso   1.00
H79    H     0.26002   0.54474   0.83076   0.00000  Uiso   1.00
H80    H     0.41325   0.47565   0.63442   0.00000  Uiso   1.00
H81    H     0.45439   0.65920   0.88238   0.00000  Uiso   1.00
H82    H     0.14979   0.50220   0.91625   0.00000  Uiso   1.00
H83    H     0.47292   0.35651   0.50224   0.00000  Uiso   1.00
O84    O     0.48326   0.53226   0.94851   0.00000  Uiso   1.00
O85    O     0.08364   0.32626   0.99294   0.00000  Uiso   1.00
O86    O     0.50757   0.13512   0.44977   0.00000  Uiso   1.00
N87    N     0.44687   0.38043   0.92116   0.00000  Uiso   1.00
N88    N     0.16208   0.23365   0.95284   0.00000  Uiso   1.00
N89    N     0.46417   0.09743   0.56578   0.00000  Uiso   1.00
N90    N     0.44780   0.56851   0.88876   0.00000  Uiso   1.00
N91    N     0.16301   0.42172   0.92044   0.00000  Uiso   1.00
N92    N     0.46510   0.28550   0.53337   0.00000  Uiso   1.00
C93    C     0.14234   0.72063   0.68390   0.00000  Uiso   1.00
C94    C     0.11752   0.81063   0.66287   0.00000  Uiso   1.00
C95    C     0.09718   0.78154   0.62714   0.00000  Uiso   1.00
C96    C     0.07619   0.87695   0.61281   0.00000  Uiso   1.00
C97    C     0.03776   0.99843   0.57698   0.00000  Uiso   1.00
C98    C     0.19602   0.77018   0.65413   0.00000  Uiso   1.00
C99    C     0.24166   0.70708   0.61105   0.00000  Uiso   1.00
C100   C     0.28675   0.76844   0.58937   0.00000  Uiso   1.00
C101   C     0.37018   0.82709   0.54001   0.00000  Uiso   1.00
C102   C     0.11275   0.73264   0.76080   0.00000  Uiso   1.00
C103   C     0.08840   0.63797   0.80742   0.00000  Uiso   1.00
C104   C     0.06340   0.66772   0.87555   0.00000  Uiso   1.00
C105   C     0.01756   0.66809   0.99182   0.00000  Uiso   1.00
C106   C     0.14126   0.94180   0.72201   0.00000  Uiso   1.00
C107   C     0.11693   0.93076   0.68357   0.00000  Uiso   1.00
C108   C     0.09597   0.02624   0.66930   0.00000  Uiso   1.00
C109   C     0.07560   0.99730   0.63354   0.00000  Uiso   1.00
C110   C     0.19543   0.89031   0.67483   0.00000  Uiso   1.00
C111   C     0.24046   0.95177   0.65321   0.00000  Uiso   1.00
C112   C     0.28616   0.88879   0.61011   0.00000  Uiso   1.00
C113   C     0.11216   0.85277   0.78150   0.00000  Uiso   1.00
C114   C     0.08720   0.88267   0.84958   0.00000  Uiso   1.00
C115   C     0.06281   0.78807   0.89629   0.00000  Uiso   1.00
H116   H     0.14281   0.62710   0.66779   0.00000  Uiso   1.00
H117   H     0.09765   0.68856   0.61112   0.00000  Uiso   1.00
H118   H     0.24211   0.61411   0.59505   0.00000  Uiso   1.00
H119   H     0.08887   0.54502   0.79138   0.00000  Uiso   1.00
H120   H     0.04733   0.80969   0.55741   0.00000  Uiso   1.00
H121   H     0.35193   0.65268   0.52353   0.00000  Uiso   1.00
H122   H     0.02881   0.50699   0.93755   0.00000  Uiso   1.00
H123   H     0.14080   0.03533   0.73812   0.00000  Uiso   1.00
H124   H     0.09552   0.11919   0.68532   0.00000  Uiso   1.00
H125   H     0.23998   0.04474   0.66924   0.00000  Uiso   1.00
H126   H     0.08675   0.97565   0.86558   0.00000  Uiso   1.00
H127   H     0.04561   0.15920   0.61762   0.00000  Uiso   1.00
H128   H     0.35021   0.00220   0.58375   0.00000  Uiso   1.00
H129   H     0.02708   0.85651   0.99776   0.00000  Uiso   1.00
O130   O     0.01674   0.03226   0.55149   0.00000  Uiso   1.00
O131   O     0.41636   0.82626   0.50706   0.00000  Uiso   1.00
O132   O     0.99243   0.63512   0.05023   0.00000  Uiso   1.00
N133   N     0.05313   0.88043   0.57884   0.00000  Uiso   1.00
N134   N     0.33792   0.73365   0.54716   0.00000  Uiso   1.00
N135   N     0.03583   0.59743   0.93422   0.00000  Uiso   1.00
N136   N     0.05220   0.06851   0.61124   0.00000  Uiso   1.00
N137   N     0.33699   0.92172   0.57956   0.00000  Uiso   1.00
N138   N     0.03490   0.78550   0.96663   0.00000  Uiso   1.00
C139   C     0.64234   0.22063   0.68390   0.00000  Uiso   1.00
C140   C     0.61752   0.31063   0.66287   0.00000  Uiso   1.00
C141   C     0.59718   0.28154   0.62714   0.00000  Uiso   1.00
C142   C     0.57619   0.37695   0.61281   0.00000  Uiso   1.00
C143   C     0.53776   0.49843   0.57698   0.00000  Uiso   1.00
C144   C     0.69602   0.27018   0.65413   0.00000  Uiso   1.00
C145   C     0.74166   0.20708   0.61105   0.00000  Uiso   1.00
C146   C     0.78675   0.26844   0.58937   0.00000  Uiso   1.00
C147   C     0.87018   0.32709   0.54001   0.00000  Uiso   1.00
C148   C     0.61275   0.23264   0.76080   0.00000  Uiso   1.00
C149   C     0.58840   0.13797   0.80742   0.00000  Uiso   1.00
C150   C     0.56340   0.16772   0.87555   0.00000  Uiso   1.00
C151   C     0.51756   0.16809   0.99182   0.00000  Uiso   1.00
C152   C     0.64126   0.44180   0.72201   0.00000  Uiso   1.00
C153   C     0.61693   0.43076   0.68357   0.00000  Uiso   1.00
C154   C     0.59597   0.52624   0.66930   0.00000  Uiso   1.00
C155   C     0.57560   0.49730   0.63354   0.00000  Uiso   1.00
C156   C     0.69543   0.39031   0.67483   0.00000  Uiso   1.00
C157   C     0.74046   0.45177   0.65321   0.00000  Uiso   1.00
C158   C     0.78616   0.38879   0.61011   0.00000  Uiso   1.00
C159   C     0.61216   0.35277   0.78150   0.00000  Uiso   1.00
C160   C     0.58720   0.38267   0.84958   0.00000  Uiso   1.00
C161   C     0.56281   0.28807   0.89629   0.00000  Uiso   1.00
H162   H     0.64281   0.12710   0.66779   0.00000  Uiso   1.00
H163   H     0.59765   0.18856   0.61112   0.00000  Uiso   1.00
H164   H     0.74211   0.11411   0.59505   0.00000  Uiso   1.00
H165   H     0.58887   0.04502   0.79138   0.00000  Uiso   1.00
H166   H     0.54733   0.30969   0.55741   0.00000  Uiso   1.00
H167   H     0.85193   0.15268   0.52353   0.00000  Uiso   1.00
H168   H     0.52881   0.00699   0.93755   0.00000  Uiso   1.00
H169   H     0.64080   0.53533   0.73812   0.00000  Uiso   1.00
H170   H     0.59552   0.61919   0.68532   0.00000  Uiso   1.00
H171   H     0.73998   0.54474   0.66924   0.00000  Uiso   1.00
H172   H     0.58675   0.47565   0.86558   0.00000  Uiso   1.00
H173   H     0.54561   0.65920   0.61762   0.00000  Uiso   1.00
H174   H     0.85021   0.50220   0.58375   0.00000  Uiso   1.00
H175   H     0.52708   0.35651   0.99776   0.00000  Uiso   1.00
O176   O     0.51674   0.53226   0.55149   0.00000  Uiso   1.00
O177   O     0.91636   0.32626   0.50706   0.00000  Uiso   1.00
O178   O     0.49243   0.13512   0.05023   0.00000  Uiso   1.00
N179   N     0.55313   0.38043   0.57884   0.00000  Uiso   1.00
N180   N     0.83792   0.23365   0.54716   0.00000  Uiso   1.00
N181   N     0.53583   0.09743   0.93422   0.00000  Uiso   1.00
N182   N     0.55220   0.56851   0.61124   0.00000  Uiso   1.00
N183   N     0.83699   0.42172   0.57956   0.00000  Uiso   1.00
N184   N     0.53490   0.28550   0.96663   0.00000  Uiso   1.00
C185   C     0.14234   0.27937   0.18390   0.00000  Uiso   1.00
C186   C     0.11752   0.18937   0.16287   0.00000  Uiso   1.00
C187   C     0.09718   0.21846   0.12714   0.00000  Uiso   1.00
C188   C     0.07619   0.12305   0.11281   0.00000  Uiso   1.00
C189   C     0.03776   0.00157   0.07698   0.00000  Uiso   1.00
C190   C     0.19602   0.22982   0.15413   0.00000  Uiso   1.00
C191   C     0.24166   0.29292   0.11105   0.00000  Uiso   1.00
C192   C     0.28675   0.23156   0.08937   0.00000  Uiso   1.00
C193   C     0.37018   0.17291   0.04001   0.00000  Uiso   1.00
C194   C     0.11275   0.26736   0.26080   0.00000  Uiso   1.00
C195   C     0.08840   0.36203   0.30742   0.00000  Uiso   1.00
C196   C     0.06340   0.33228   0.37555   0.00000  Uiso   1.00
C197   C     0.01756   0.33191   0.49182   0.00000  Uiso   1.00
C198   C     0.14126   0.05820   0.22201   0.00000  Uiso   1.00
C199   C     0.11693   0.06924   0.18357   0.00000  Uiso   1.00
C200   C     0.09597   0.97376   0.16930   0.00000  Uiso   1.00
C201   C     0.07560   0.00270   0.13354   0.00000  Uiso   1.00
C202   C     0.19543   0.10969   0.17483   0.00000  Uiso   1.00
C203   C     0.24046   0.04823   0.15321   0.00000  Uiso   1.00
C204   C     0.28616   0.11121   0.11011   0.00000  Uiso   1.00
C205   C     0.11216   0.14723   0.28150   0.00000  Uiso   1.00
C206   C     0.08720   0.11733   0.34958   0.00000  Uiso   1.00
C207   C     0.06281   0.21193   0.39629   0.00000  Uiso   1.00
H208   H     0.14281   0.37290   0.16779   0.00000  Uiso   1.00
H209   H     0.09765   0.31144   0.11112   0.00000  Uiso   1.00
H210   H     0.24211   0.38589   0.09505   0.00000  Uiso   1.00
H211   H     0.08887   0.45498   0.29138   0.00000  Uiso   1.00
H212   H     0.04733   0.19031   0.05741   0.00000  Uiso   1.00
H213   H     0.35193   0.34732   0.02353   0.00000  Uiso   1.00
H214   H     0.02881   0.49301   0.43755   0.00000  Uiso   1.00
H215   H     0.14080   0.96467   0.23812   0.00000  Uiso   1.00
H216   H     0.09552   0.88081   0.18532   0.00000  Uiso   1.00
H217   H     0.23998   0.95526   0.16924   0.00000  Uiso   1.00
H218   H     0.08675   0.02435   0.36558   0.00000  Uiso   1.00
H219   H     0.04561   0.84080   0.11762   0.00000  Uiso   1.00
H220   H     0.35021   0.99780   0.08375   0.00000  Uiso   1.00
H221   H     0.02708   0.14349   0.49776   0.00000  Uiso   1.00
O222   O     0.01674   0.96774   0.05149   0.00000  Uiso   1.00
O223   O     0.41636   0.17374   0.00706   0.00000  Uiso   1.00
O224   O     0.99243   0.36488   0.55023   0.00000  Uiso   1.00
N225   N     0.05313   0.11957   0.07884   0.00000  Uiso   1.00
N226   N     0.33792   0.26635   0.04716   0.00000  Uiso   1.00
N227   N     0.03583   0.40257   0.43422   0.00000  Uiso   1.00
N228   N     0.05220   0.93149   0.11124   0.00000  Uiso   1.00
N229   N     0.33699   0.07828   0.07956   0.00000  Uiso   1.00
N230   N     0.03490   0.21450   0.46663   0.00000  Uiso   1.00
C231   C     0.64234   0.77937   0.18390   0.00000  Uiso   1.00
C232   C     0.61752   0.68937   0.16287   0.00000  Uiso   1.00
C233   C     0.59718   0.71846   0.12714   0.00000  Uiso   1.00
C234   C     0.57619   0.62305   0.11281   0.00000  Uiso   1.00
C235   C     0.53776   0.50157   0.07698   0.00000  Uiso   1.00
C236   C     0.69602   0.72982   0.15413   0.00000  Uiso   1.00
C237   C     0.74166   0.79292   0.11105   0.00000  Uiso   1.00
C238   C     0.78675   0.73156   0.08937   0.00000  Uiso   1.00
C239   C     0.87018   0.67291   0.04001   0.00000  Uiso   1.00
C240   C     0.61275   0.76736   0.26080   0.00000  Uiso   1.00
C241   C     0.58840   0.86203   0.30742   0.00000  Uiso   1.00
C242   C     0.56340   0.83228   0.37555   0.00000  Uiso   1.00
C243   C     0.51756   0.83191   0.49182   0.00000  Uiso   1.00
C244   C     0.64126   0.55820   0.22201   0.00000  Uiso   1.00
C245   C     0.61693   0.56924   0.18357   0.00000  Uiso   1.00
C246   C     0.59597   0.47376   0.16930   0.00000  Uiso   1.00
C247   C     0.57560   0.50270   0.13354   0.00000  Uiso   1.00
C248   C     0.69543   0.60969   0.17483   0.00000  Uiso   1.00
C249   C     0.74046   0.54823   0.15321   0.00000  Uiso   1.00
C250   C     0.78616   0.61121   0.11011   0.00000  Uiso   1.00
C251   C     0.61216   0.64723   0.28150   0.00000  Uiso   1.00
C252   C     0.58720   0.61733   0.34958   0.00000  Uiso   1.00
C253   C     0.56281   0.71193   0.39629   0.00000  Uiso   1.00
H254   H     0.64281   0.87290   0.16779   0.00000  Uiso   1.00
H255   H     0.59765   0.81144   0.11112   0.00000  Uiso   1.00
H256   H     0.74211   0.88589   0.09505   0.00000  Uiso   1.00
H257   H     0.58887   0.95498   0.29138   0.00000  Uiso   1.00
H258   H     0.54733   0.69031   0.05741   0.00000  Uiso   1.00
H259   H     0.85193   0.84732   0.02353   0.00000  Uiso   1.00
H260   H     0.52881   0.99301   0.43755   0.00000  Uiso   1.00
H261   H     0.64080   0.46467   0.23812   0.00000  Uiso   1.00
H262   H     0.59552   0.38081   0.18532   0.00000  Uiso   1.00
H263   H     0.73998   0.45526   0.16924   0.00000  Uiso   1.00
H264   H     0.58675   0.52435   0.36558   0.00000  Uiso   1.00
H265   H     0.54561   0.34080   0.11762   0.00000  Uiso   1.00
H266   H     0.85021   0.49780   0.08375   0.00000  Uiso   1.00
H267   H     0.52708   0.64349   0.49776   0.00000  Uiso   1.00
O268   O     0.51674   0.46774   0.05149   0.00000  Uiso   1.00
O269   O     0.91636   0.67374   0.00706   0.00000  Uiso   1.00
O270   O     0.49243   0.86488   0.55023   0.00000  Uiso   1.00
N271   N     0.55313   0.61957   0.07884   0.00000  Uiso   1.00
N272   N     0.83792   0.76635   0.04716   0.00000  Uiso   1.00
N273   N     0.53583   0.90257   0.43422   0.00000  Uiso   1.00
N274   N     0.55220   0.43149   0.11124   0.00000  Uiso   1.00
N275   N     0.83699   0.57828   0.07956   0.00000  Uiso   1.00
N276   N     0.53490   0.71450   0.46663   0.00000  Uiso   1.00
C277   C     0.85766   0.27937   0.31610   0.00000  Uiso   1.00
C278   C     0.88248   0.18937   0.33713   0.00000  Uiso   1.00
C279   C     0.90282   0.21846   0.37286   0.00000  Uiso   1.00
C280   C     0.92381   0.12305   0.38719   0.00000  Uiso   1.00
C281   C     0.96224   0.00157   0.42302   0.00000  Uiso   1.00
C282   C     0.80398   0.22982   0.34587   0.00000  Uiso   1.00
C283   C     0.75834   0.29292   0.38895   0.00000  Uiso   1.00
C284   C     0.71325   0.23156   0.41063   0.00000  Uiso   1.00
C285   C     0.62982   0.17291   0.45999   0.00000  Uiso   1.00
C286   C     0.88725   0.26736   0.23920   0.00000  Uiso   1.00
C287   C     0.91160   0.36203   0.19258   0.00000  Uiso   1.00
C288   C     0.93660   0.33228   0.12445   0.00000  Uiso   1.00
C289   C     0.98244   0.33191   0.00818   0.00000  Uiso   1.00
C290   C     0.85874   0.05820   0.27799   0.00000  Uiso   1.00
C291   C     0.88307   0.06924   0.31643   0.00000  Uiso   1.00
C292   C     0.90403   0.97376   0.33070   0.00000  Uiso   1.00
C293   C     0.92440   0.00270   0.36646   0.00000  Uiso   1.00
C294   C     0.80457   0.10969   0.32517   0.00000  Uiso   1.00
C295   C     0.75954   0.04823   0.34679   0.00000  Uiso   1.00
C296   C     0.71384   0.11121   0.38989   0.00000  Uiso   1.00
C297   C     0.88784   0.14723   0.21850   0.00000  Uiso   1.00
C298   C     0.91280   0.11733   0.15042   0.00000  Uiso   1.00
C299   C     0.93719   0.21193   0.10371   0.00000  Uiso   1.00
H300   H     0.85719   0.37290   0.33221   0.00000  Uiso   1.00
H301   H     0.90235   0.31144   0.38888   0.00000  Uiso   1.00
H302   H     0.75789   0.38589   0.40495   0.00000  Uiso   1.00
H303   H     0.91113   0.45498   0.20862   0.00000  Uiso   1.00
H304   H     0.95267   0.19031   0.44259   0.00000  Uiso   1.00
H305   H     0.64807   0.34732   0.47647   0.00000  Uiso   1.00
H306   H     0.97119   0.49301   0.06245   0.00000  Uiso   1.00
H307   H     0.85920   0.96467   0.26188   0.00000  Uiso   1.00
H308   H     0.90448   0.88081   0.31468   0.00000  Uiso   1.00
H309   H     0.76002   0.95526   0.33076   0.00000  Uiso   1.00
H310   H     0.91325   0.02435   0.13442   0.00000  Uiso   1.00
H311   H     0.95439   0.84080   0.38238   0.00000  Uiso   1.00
H312   H     0.64979   0.99780   0.41625   0.00000  Uiso   1.00
H313   H     0.97292   0.14349   0.00224   0.00000  Uiso   1.00
O314   O     0.98326   0.96774   0.44851   0.00000  Uiso   1.00
O315   O     0.58364   0.17374   0.49294   0.00000  Uiso   1.00
O316   O     0.00757   0.36488   0.94977   0.00000  Uiso   1.00
N317   N     0.94687   0.11957   0.42116   0.00000  Uiso   1.00
N318   N     0.66208   0.26635   0.45284   0.00000  Uiso   1.00
N319   N     0.96417   0.40257   0.06578   0.00000  Uiso   1.00
N320   N     0.94780   0.93149   0.38876   0.00000  Uiso   1.00
N321   N     0.66301   0.07828   0.42044   0.00000  Uiso   1.00
N322   N     0.96510   0.21450   0.03337   0.00000  Uiso   1.00
C323   C     0.35766   0.77937   0.31610   0.00000  Uiso   1.00
C324   C     0.38248   0.68937   0.33713   0.00000  Uiso   1.00
C325   C     0.40282   0.71846   0.37286   0.00000  Uiso   1.00
C326   C     0.42381   0.62305   0.38719   0.00000  Uiso   1.00
C327   C     0.46224   0.50157   0.42302   0.00000  Uiso   1.00
C328   C     0.30398   0.72982   0.34587   0.00000  Uiso   1.00
C329   C     0.25834   0.79292   0.38895   0.00000  Uiso   1.00
C330   C     0.21325   0.73156   0.41063   0.00000  Uiso   1.00
C331   C     0.12982   0.67291   0.45999   0.00000  Uiso   1.00
C332   C     0.38725   0.76736   0.23920   0.00000  Uiso   1.00
C333   C     0.41160   0.86203   0.19258   0.00000  Uiso   1.00
C334   C     0.43660   0.83228   0.12445   0.00000  Uiso   1.00
C335   C     0.48244   0.83191   0.00818   0.00000  Uiso   1.00
C336   C     0.35874   0.55820   0.27799   0.00000  Uiso   1.00
C337   C     0.38307   0.56924   0.31643   0.00000  Uiso   1.00
C338   C     0.40403   0.47376   0.33070   0.00000  Uiso   1.00
C339   C     0.42440   0.50270   0.36646   0.00000  Uiso   1.00
C340   C     0.30457   0.60969   0.32517   0.00000  Uiso   1.00
C341   C     0.25954   0.54823   0.34679   0.00000  Uiso   1.00
C342   C     0.21384   0.61121   0.38989   0.00000  Uiso   1.00
C343   C     0.38784   0.64723   0.21850   0.00000  Uiso   1.00
C344   C     0.41280   0.61733   0.15042   0.00000  Uiso   1.00
C345   C     0.43719   0.71193   0.10371   0.00000  Uiso   1.00
H346   H     0.35719   0.87290   0.33221   0.00000  Uiso   1.00
H347   H     0.40235   0.81144   0.38888   0.00000  Uiso   1.00
H348   H     0.25789   0.88589   0.40495   0.00000  Uiso   1.00
H349   H     0.41113   0.95498   0.20862   0.00000  Uiso   1.00
H350   H     0.45267   0.69031   0.44259   0.00000  Uiso   1.00
H351   H     0.14807   0.84732   0.47647   0.00000  Uiso   1.00
H352   H     0.47119   0.99301   0.06245   0.00000  Uiso   1.00
H353   H     0.35920   0.46467   0.26188   0.00000  Uiso   1.00
H354   H     0.40448   0.38081   0.31468   0.00000  Uiso   1.00
H355   H     0.26002   0.45526   0.33076   0.00000  Uiso   1.00
H356   H     0.41325   0.52435   0.13442   0.00000  Uiso   1.00
H357   H     0.45439   0.34080   0.38238   0.00000  Uiso   1.00
H358   H     0.14979   0.49780   0.41625   0.00000  Uiso   1.00
H359   H     0.47292   0.64349   0.00224   0.00000  Uiso   1.00
O360   O     0.48326   0.46774   0.44851   0.00000  Uiso   1.00
O361   O     0.08364   0.67374   0.49294   0.00000  Uiso   1.00
O362   O     0.50757   0.86488   0.94977   0.00000  Uiso   1.00
N363   N     0.44687   0.61957   0.42116   0.00000  Uiso   1.00
N364   N     0.16208   0.76635   0.45284   0.00000  Uiso   1.00
N365   N     0.46417   0.90257   0.06578   0.00000  Uiso   1.00
N366   N     0.44780   0.43149   0.38876   0.00000  Uiso   1.00
N367   N     0.16301   0.57828   0.42044   0.00000  Uiso   1.00
N368   N     0.46510   0.71450   0.03337   0.00000  Uiso   1.00
