data_job_00659
_audit_creation_date              2018-12-19
_audit_creation_method            'Materials Studio'
_symmetry_space_group_name_H-M    'P1'
_symmetry_Int_Tables_number       1
_symmetry_cell_setting            triclinic
loop_
_symmetry_equiv_pos_as_xyz
  x,y,z
_cell_length_a                    15.0561
_cell_length_b                    17.2914
_cell_length_c                    19.0495
_cell_angle_alpha                 90.0000
_cell_angle_beta                  90.0000
_cell_angle_gamma                 90.0000
loop_
_atom_site_label
_atom_site_type_symbol
_atom_site_fract_x
_atom_site_fract_y
_atom_site_fract_z
_atom_site_U_iso_or_equiv
_atom_site_adp_type
_atom_site_occupancy
C1     C     0.93989   0.98622   0.24620   0.00000  Uiso   1.00
C2     C     0.86652   0.95762   0.29490   0.00000  Uiso   1.00
C3     C     0.78029   0.98585   0.29735   0.00000  Uiso   1.00
C4     C     0.72313   0.95198   0.34557   0.00000  Uiso   1.00
C5     C     0.60494   0.91671   0.41450   0.00000  Uiso   1.00
C6     C     0.01673   0.00999   0.29368   0.00000  Uiso   1.00
C7     C     0.05681   0.08225   0.29509   0.00000  Uiso   1.00
C8     C     0.12610   0.09246   0.34228   0.00000  Uiso   1.00
C9     C     0.24116   0.13848   0.40928   0.00000  Uiso   1.00
C10    C     0.97192   0.91543   0.20573   0.00000  Uiso   1.00
C11    C     0.97435   0.90820   0.13320   0.00000  Uiso   1.00
C12    C     0.00594   0.83880   0.10634   0.00000  Uiso   1.00
C13    C     0.05142   0.73801   0.03679   0.00000  Uiso   1.00
C14    C     0.99170   0.87586   0.32748   0.00000  Uiso   1.00
C15    C     0.89466   0.89767   0.33905   0.00000  Uiso   1.00
C16    C     0.83761   0.86375   0.38728   0.00000  Uiso   1.00
C17    C     0.75132   0.89193   0.38980   0.00000  Uiso   1.00
C18    C     0.04487   0.95005   0.33782   0.00000  Uiso   1.00
C19    C     0.11413   0.96015   0.38502   0.00000  Uiso   1.00
C20    C     0.15430   0.03240   0.38651   0.00000  Uiso   1.00
C21    C     0.00006   0.85548   0.24988   0.00000  Uiso   1.00
C22    C     0.03166   0.78609   0.22313   0.00000  Uiso   1.00
C23    C     0.03413   0.77875   0.15057   0.00000  Uiso   1.00
H24    H     0.91798   0.03289   0.21183   0.00000  Uiso   1.00
H25    H     0.75854   0.03225   0.26318   0.00000  Uiso   1.00
H26    H     0.03502   0.12863   0.26092   0.00000  Uiso   1.00
H27    H     0.95256   0.95460   0.09905   0.00000  Uiso   1.00
H28    H     0.59419   0.00512   0.33960   0.00000  Uiso   1.00
H29    H     0.17718   0.20833   0.33481   0.00000  Uiso   1.00
H30    H     0.00331   0.84135   0.99348   0.00000  Uiso   1.00
H31    H     0.01361   0.82919   0.36185   0.00000  Uiso   1.00
H32    H     0.85941   0.81736   0.42143   0.00000  Uiso   1.00
H33    H     0.13589   0.91374   0.41917   0.00000  Uiso   1.00
H34    H     0.05344   0.73971   0.25731   0.00000  Uiso   1.00
H35    H     0.67606   0.83071   0.46804   0.00000  Uiso   1.00
H36    H     0.25906   0.03392   0.46326   0.00000  Uiso   1.00
H37    H     0.08518   0.66695   0.12193   0.00000  Uiso   1.00
O38    O     0.53197   0.91383   0.44032   0.00000  Uiso   1.00
O39    O     0.29684   0.18043   0.43404   0.00000  Uiso   1.00
O40    O     0.06873   0.69897   0.98622   0.00000  Uiso   1.00
N41    N     0.63462   0.96568   0.36164   0.00000  Uiso   1.00
N42    N     0.17967   0.15568   0.35717   0.00000  Uiso   1.00
N43    N     0.01714   0.81260   0.03806   0.00000  Uiso   1.00
N44    N     0.67867   0.87184   0.43076   0.00000  Uiso   1.00
N45    N     0.22372   0.06183   0.42629   0.00000  Uiso   1.00
N46    N     0.06119   0.71875   0.10718   0.00000  Uiso   1.00
C47    C     0.56011   0.51378   0.24620   0.00000  Uiso   1.00
C48    C     0.63348   0.54238   0.29490   0.00000  Uiso   1.00
C49    C     0.71971   0.51415   0.29735   0.00000  Uiso   1.00
C50    C     0.77687   0.54802   0.34557   0.00000  Uiso   1.00
C51    C     0.89506   0.58329   0.41450   0.00000  Uiso   1.00
C52    C     0.48327   0.49001   0.29368   0.00000  Uiso   1.00
C53    C     0.44319   0.41775   0.29509   0.00000  Uiso   1.00
C54    C     0.37390   0.40754   0.34228   0.00000  Uiso   1.00
C55    C     0.25884   0.36152   0.40928   0.00000  Uiso   1.00
C56    C     0.52808   0.58457   0.20573   0.00000  Uiso   1.00
C57    C     0.52565   0.59180   0.13320   0.00000  Uiso   1.00
C58    C     0.49406   0.66120   0.10634   0.00000  Uiso   1.00
C59    C     0.44858   0.76199   0.03679   0.00000  Uiso   1.00
C60    C     0.50830   0.62414   0.32748   0.00000  Uiso   1.00
C61    C     0.60534   0.60233   0.33905   0.00000  Uiso   1.00
C62    C     0.66239   0.63625   0.38728   0.00000  Uiso   1.00
C63    C     0.74868   0.60807   0.38980   0.00000  Uiso   1.00
C64    C     0.45513   0.54995   0.33782   0.00000  Uiso   1.00
C65    C     0.38587   0.53985   0.38502   0.00000  Uiso   1.00
C66    C     0.34570   0.46760   0.38651   0.00000  Uiso   1.00
C67    C     0.49994   0.64452   0.24988   0.00000  Uiso   1.00
C68    C     0.46834   0.71391   0.22313   0.00000  Uiso   1.00
C69    C     0.46587   0.72125   0.15057   0.00000  Uiso   1.00
H70    H     0.58202   0.46711   0.21183   0.00000  Uiso   1.00
H71    H     0.74146   0.46775   0.26318   0.00000  Uiso   1.00
H72    H     0.46498   0.37137   0.26092   0.00000  Uiso   1.00
H73    H     0.54744   0.54540   0.09905   0.00000  Uiso   1.00
H74    H     0.90581   0.49488   0.33960   0.00000  Uiso   1.00
H75    H     0.32282   0.29167   0.33481   0.00000  Uiso   1.00
H76    H     0.49669   0.65865   0.99348   0.00000  Uiso   1.00
H77    H     0.48639   0.67081   0.36185   0.00000  Uiso   1.00
H78    H     0.64059   0.68264   0.42143   0.00000  Uiso   1.00
H79    H     0.36411   0.58626   0.41917   0.00000  Uiso   1.00
H80    H     0.44656   0.76029   0.25731   0.00000  Uiso   1.00
H81    H     0.82394   0.66929   0.46804   0.00000  Uiso   1.00
H82    H     0.24094   0.46608   0.46326   0.00000  Uiso   1.00
H83    H     0.41482   0.83305   0.12193   0.00000  Uiso   1.00
O84    O     0.96803   0.58617   0.44032   0.00000  Uiso   1.00
O85    O     0.20316   0.31957   0.43404   0.00000  Uiso   1.00
O86    O     0.43127   0.80103   0.98622   0.00000  Uiso   1.00
N87    N     0.86538   0.53432   0.36164   0.00000  Uiso   1.00
N88    N     0.32033   0.34432   0.35717   0.00000  Uiso   1.00
N89    N     0.48286   0.68740   0.03806   0.00000  Uiso   1.00
N90    N     0.82133   0.62816   0.43076   0.00000  Uiso   1.00
N91    N     0.27628   0.43817   0.42629   0.00000  Uiso   1.00
N92    N     0.43881   0.78125   0.10718   0.00000  Uiso   1.00
C93    C     0.06011   0.48622   0.25380   0.00000  Uiso   1.00
C94    C     0.13348   0.45762   0.20510   0.00000  Uiso   1.00
C95    C     0.21971   0.48585   0.20265   0.00000  Uiso   1.00
C96    C     0.27687   0.45198   0.15443   0.00000  Uiso   1.00
C97    C     0.39506   0.41671   0.08550   0.00000  Uiso   1.00
C98    C     0.98327   0.50999   0.20632   0.00000  Uiso   1.00
C99    C     0.94319   0.58225   0.20491   0.00000  Uiso   1.00
C100   C     0.87390   0.59246   0.15772   0.00000  Uiso   1.00
C101   C     0.75884   0.63848   0.09072   0.00000  Uiso   1.00
C102   C     0.02808   0.41543   0.29427   0.00000  Uiso   1.00
C103   C     0.02565   0.40820   0.36680   0.00000  Uiso   1.00
C104   C     0.99406   0.33880   0.39366   0.00000  Uiso   1.00
C105   C     0.94858   0.23801   0.46321   0.00000  Uiso   1.00
C106   C     0.00830   0.37586   0.17252   0.00000  Uiso   1.00
C107   C     0.10534   0.39767   0.16095   0.00000  Uiso   1.00
C108   C     0.16239   0.36375   0.11272   0.00000  Uiso   1.00
C109   C     0.24868   0.39193   0.11020   0.00000  Uiso   1.00
C110   C     0.95513   0.45005   0.16218   0.00000  Uiso   1.00
C111   C     0.88587   0.46015   0.11498   0.00000  Uiso   1.00
C112   C     0.84570   0.53240   0.11349   0.00000  Uiso   1.00
C113   C     0.99994   0.35548   0.25012   0.00000  Uiso   1.00
C114   C     0.96834   0.28609   0.27687   0.00000  Uiso   1.00
C115   C     0.96587   0.27875   0.34943   0.00000  Uiso   1.00
H116   H     0.08202   0.53289   0.28817   0.00000  Uiso   1.00
H117   H     0.24146   0.53225   0.23682   0.00000  Uiso   1.00
H118   H     0.96498   0.62863   0.23908   0.00000  Uiso   1.00
H119   H     0.04744   0.45460   0.40095   0.00000  Uiso   1.00
H120   H     0.40581   0.50512   0.16040   0.00000  Uiso   1.00
H121   H     0.82282   0.70833   0.16519   0.00000  Uiso   1.00
H122   H     0.99669   0.34135   0.50652   0.00000  Uiso   1.00
H123   H     0.98639   0.32919   0.13815   0.00000  Uiso   1.00
H124   H     0.14059   0.31736   0.07857   0.00000  Uiso   1.00
H125   H     0.86411   0.41374   0.08083   0.00000  Uiso   1.00
H126   H     0.94656   0.23971   0.24269   0.00000  Uiso   1.00
H127   H     0.32394   0.33071   0.03196   0.00000  Uiso   1.00
H128   H     0.74094   0.53392   0.03674   0.00000  Uiso   1.00
H129   H     0.91482   0.16695   0.37807   0.00000  Uiso   1.00
O130   O     0.46803   0.41383   0.05968   0.00000  Uiso   1.00
O131   O     0.70316   0.68043   0.06596   0.00000  Uiso   1.00
O132   O     0.93127   0.19897   0.51378   0.00000  Uiso   1.00
N133   N     0.36538   0.46568   0.13836   0.00000  Uiso   1.00
N134   N     0.82033   0.65568   0.14283   0.00000  Uiso   1.00
N135   N     0.98286   0.31260   0.46194   0.00000  Uiso   1.00
N136   N     0.32133   0.37184   0.06924   0.00000  Uiso   1.00
N137   N     0.77628   0.56183   0.07371   0.00000  Uiso   1.00
N138   N     0.93881   0.21875   0.39282   0.00000  Uiso   1.00
C139   C     0.43989   0.01378   0.25380   0.00000  Uiso   1.00
C140   C     0.36652   0.04238   0.20510   0.00000  Uiso   1.00
C141   C     0.28029   0.01415   0.20265   0.00000  Uiso   1.00
C142   C     0.22313   0.04802   0.15443   0.00000  Uiso   1.00
C143   C     0.10494   0.08329   0.08550   0.00000  Uiso   1.00
C144   C     0.51673   0.99001   0.20632   0.00000  Uiso   1.00
C145   C     0.55681   0.91775   0.20491   0.00000  Uiso   1.00
C146   C     0.62610   0.90754   0.15772   0.00000  Uiso   1.00
C147   C     0.74116   0.86152   0.09072   0.00000  Uiso   1.00
C148   C     0.47192   0.08457   0.29427   0.00000  Uiso   1.00
C149   C     0.47435   0.09180   0.36680   0.00000  Uiso   1.00
C150   C     0.50594   0.16120   0.39366   0.00000  Uiso   1.00
C151   C     0.55142   0.26199   0.46321   0.00000  Uiso   1.00
C152   C     0.49170   0.12414   0.17252   0.00000  Uiso   1.00
C153   C     0.39466   0.10233   0.16095   0.00000  Uiso   1.00
C154   C     0.33761   0.13625   0.11272   0.00000  Uiso   1.00
C155   C     0.25132   0.10807   0.11020   0.00000  Uiso   1.00
C156   C     0.54487   0.04995   0.16218   0.00000  Uiso   1.00
C157   C     0.61413   0.03985   0.11498   0.00000  Uiso   1.00
C158   C     0.65430   0.96760   0.11349   0.00000  Uiso   1.00
C159   C     0.50006   0.14452   0.25012   0.00000  Uiso   1.00
C160   C     0.53166   0.21391   0.27687   0.00000  Uiso   1.00
C161   C     0.53413   0.22125   0.34943   0.00000  Uiso   1.00
H162   H     0.41798   0.96711   0.28817   0.00000  Uiso   1.00
H163   H     0.25854   0.96775   0.23682   0.00000  Uiso   1.00
H164   H     0.53502   0.87137   0.23908   0.00000  Uiso   1.00
H165   H     0.45256   0.04540   0.40095   0.00000  Uiso   1.00
H166   H     0.09419   0.99488   0.16040   0.00000  Uiso   1.00
H167   H     0.67718   0.79167   0.16519   0.00000  Uiso   1.00
H168   H     0.50331   0.15865   0.50652   0.00000  Uiso   1.00
H169   H     0.51361   0.17081   0.13815   0.00000  Uiso   1.00
H170   H     0.35941   0.18264   0.07857   0.00000  Uiso   1.00
H171   H     0.63589   0.08626   0.08083   0.00000  Uiso   1.00
H172   H     0.55344   0.26029   0.24269   0.00000  Uiso   1.00
H173   H     0.17606   0.16929   0.03196   0.00000  Uiso   1.00
H174   H     0.75906   0.96608   0.03674   0.00000  Uiso   1.00
H175   H     0.58518   0.33305   0.37807   0.00000  Uiso   1.00
O176   O     0.03197   0.08617   0.05968   0.00000  Uiso   1.00
O177   O     0.79684   0.81957   0.06596   0.00000  Uiso   1.00
O178   O     0.56873   0.30103   0.51378   0.00000  Uiso   1.00
N179   N     0.13462   0.03432   0.13836   0.00000  Uiso   1.00
N180   N     0.67967   0.84432   0.14283   0.00000  Uiso   1.00
N181   N     0.51714   0.18740   0.46194   0.00000  Uiso   1.00
N182   N     0.17867   0.12816   0.06924   0.00000  Uiso   1.00
N183   N     0.72372   0.93817   0.07371   0.00000  Uiso   1.00
N184   N     0.56119   0.28125   0.39282   0.00000  Uiso   1.00
C185   C     0.06011   0.01378   0.75380   0.00000  Uiso   1.00
C186   C     0.13348   0.04238   0.70510   0.00000  Uiso   1.00
C187   C     0.21971   0.01415   0.70265   0.00000  Uiso   1.00
C188   C     0.27687   0.04802   0.65443   0.00000  Uiso   1.00
C189   C     0.39506   0.08329   0.58550   0.00000  Uiso   1.00
C190   C     0.98327   0.99001   0.70632   0.00000  Uiso   1.00
C191   C     0.94319   0.91775   0.70491   0.00000  Uiso   1.00
C192   C     0.87390   0.90754   0.65772   0.00000  Uiso   1.00
C193   C     0.75884   0.86152   0.59072   0.00000  Uiso   1.00
C194   C     0.02808   0.08457   0.79427   0.00000  Uiso   1.00
C195   C     0.02565   0.09180   0.86680   0.00000  Uiso   1.00
C196   C     0.99406   0.16120   0.89366   0.00000  Uiso   1.00
C197   C     0.94858   0.26199   0.96321   0.00000  Uiso   1.00
C198   C     0.00830   0.12414   0.67252   0.00000  Uiso   1.00
C199   C     0.10534   0.10233   0.66095   0.00000  Uiso   1.00
C200   C     0.16239   0.13625   0.61272   0.00000  Uiso   1.00
C201   C     0.24868   0.10807   0.61020   0.00000  Uiso   1.00
C202   C     0.95513   0.04995   0.66218   0.00000  Uiso   1.00
C203   C     0.88587   0.03985   0.61498   0.00000  Uiso   1.00
C204   C     0.84570   0.96760   0.61349   0.00000  Uiso   1.00
C205   C     0.99994   0.14452   0.75012   0.00000  Uiso   1.00
C206   C     0.96834   0.21391   0.77687   0.00000  Uiso   1.00
C207   C     0.96587   0.22125   0.84943   0.00000  Uiso   1.00
H208   H     0.08202   0.96711   0.78817   0.00000  Uiso   1.00
H209   H     0.24146   0.96775   0.73682   0.00000  Uiso   1.00
H210   H     0.96498   0.87137   0.73908   0.00000  Uiso   1.00
H211   H     0.04744   0.04540   0.90095   0.00000  Uiso   1.00
H212   H     0.40581   0.99488   0.66040   0.00000  Uiso   1.00
H213   H     0.82282   0.79167   0.66519   0.00000  Uiso   1.00
H214   H     0.99669   0.15865   0.00652   0.00000  Uiso   1.00
H215   H     0.98639   0.17081   0.63815   0.00000  Uiso   1.00
H216   H     0.14059   0.18264   0.57857   0.00000  Uiso   1.00
H217   H     0.86411   0.08626   0.58083   0.00000  Uiso   1.00
H218   H     0.94656   0.26029   0.74269   0.00000  Uiso   1.00
H219   H     0.32394   0.16929   0.53196   0.00000  Uiso   1.00
H220   H     0.74094   0.96608   0.53674   0.00000  Uiso   1.00
H221   H     0.91482   0.33305   0.87807   0.00000  Uiso   1.00
O222   O     0.46803   0.08617   0.55968   0.00000  Uiso   1.00
O223   O     0.70316   0.81957   0.56596   0.00000  Uiso   1.00
O224   O     0.93127   0.30103   0.01378   0.00000  Uiso   1.00
N225   N     0.36538   0.03432   0.63836   0.00000  Uiso   1.00
N226   N     0.82033   0.84432   0.64283   0.00000  Uiso   1.00
N227   N     0.98286   0.18740   0.96194   0.00000  Uiso   1.00
N228   N     0.32133   0.12816   0.56924   0.00000  Uiso   1.00
N229   N     0.77628   0.93817   0.57371   0.00000  Uiso   1.00
N230   N     0.93881   0.28125   0.89282   0.00000  Uiso   1.00
C231   C     0.43989   0.48622   0.75380   0.00000  Uiso   1.00
C232   C     0.36652   0.45762   0.70510   0.00000  Uiso   1.00
C233   C     0.28029   0.48585   0.70265   0.00000  Uiso   1.00
C234   C     0.22313   0.45198   0.65443   0.00000  Uiso   1.00
C235   C     0.10494   0.41671   0.58550   0.00000  Uiso   1.00
C236   C     0.51673   0.50999   0.70632   0.00000  Uiso   1.00
C237   C     0.55681   0.58225   0.70491   0.00000  Uiso   1.00
C238   C     0.62610   0.59246   0.65772   0.00000  Uiso   1.00
C239   C     0.74116   0.63848   0.59072   0.00000  Uiso   1.00
C240   C     0.47192   0.41543   0.79427   0.00000  Uiso   1.00
C241   C     0.47435   0.40820   0.86680   0.00000  Uiso   1.00
C242   C     0.50594   0.33880   0.89366   0.00000  Uiso   1.00
C243   C     0.55142   0.23801   0.96321   0.00000  Uiso   1.00
C244   C     0.49170   0.37586   0.67252   0.00000  Uiso   1.00
C245   C     0.39466   0.39767   0.66095   0.00000  Uiso   1.00
C246   C     0.33761   0.36375   0.61272   0.00000  Uiso   1.00
C247   C     0.25132   0.39193   0.61020   0.00000  Uiso   1.00
C248   C     0.54487   0.45005   0.66218   0.00000  Uiso   1.00
C249   C     0.61413   0.46015   0.61498   0.00000  Uiso   1.00
C250   C     0.65430   0.53240   0.61349   0.00000  Uiso   1.00
C251   C     0.50006   0.35548   0.75012   0.00000  Uiso   1.00
C252   C     0.53166   0.28609   0.77687   0.00000  Uiso   1.00
C253   C     0.53413   0.27875   0.84943   0.00000  Uiso   1.00
H254   H     0.41798   0.53289   0.78817   0.00000  Uiso   1.00
H255   H     0.25854   0.53225   0.73682   0.00000  Uiso   1.00
H256   H     0.53502   0.62863   0.73908   0.00000  Uiso   1.00
H257   H     0.45256   0.45460   0.90095   0.00000  Uiso   1.00
H258   H     0.09419   0.50512   0.66040   0.00000  Uiso   1.00
H259   H     0.67718   0.70833   0.66519   0.00000  Uiso   1.00
H260   H     0.50331   0.34135   0.00652   0.00000  Uiso   1.00
H261   H     0.51361   0.32919   0.63815   0.00000  Uiso   1.00
H262   H     0.35941   0.31736   0.57857   0.00000  Uiso   1.00
H263   H     0.63589   0.41374   0.58083   0.00000  Uiso   1.00
H264   H     0.55344   0.23971   0.74269   0.00000  Uiso   1.00
H265   H     0.17606   0.33071   0.53196   0.00000  Uiso   1.00
H266   H     0.75906   0.53392   0.53674   0.00000  Uiso   1.00
H267   H     0.58518   0.16695   0.87807   0.00000  Uiso   1.00
O268   O     0.03197   0.41383   0.55968   0.00000  Uiso   1.00
O269   O     0.79684   0.68043   0.56596   0.00000  Uiso   1.00
O270   O     0.56873   0.19897   0.01378   0.00000  Uiso   1.00
N271   N     0.13462   0.46568   0.63836   0.00000  Uiso   1.00
N272   N     0.67967   0.65568   0.64283   0.00000  Uiso   1.00
N273   N     0.51714   0.31260   0.96194   0.00000  Uiso   1.00
N274   N     0.17867   0.37184   0.56924   0.00000  Uiso   1.00
N275   N     0.72372   0.56183   0.57371   0.00000  Uiso   1.00
N276   N     0.56119   0.21875   0.89282   0.00000  Uiso   1.00
C277   C     0.93989   0.51378   0.74620   0.00000  Uiso   1.00
C278   C     0.86652   0.54238   0.79490   0.00000  Uiso   1.00
C279   C     0.78029   0.51415   0.79735   0.00000  Uiso   1.00
C280   C     0.72313   0.54802   0.84557   0.00000  Uiso   1.00
C281   C     0.60494   0.58329   0.91450   0.00000  Uiso   1.00
C282   C     0.01673   0.49001   0.79368   0.00000  Uiso   1.00
C283   C     0.05681   0.41775   0.79509   0.00000  Uiso   1.00
C284   C     0.12610   0.40754   0.84228   0.00000  Uiso   1.00
C285   C     0.24116   0.36152   0.90928   0.00000  Uiso   1.00
C286   C     0.97192   0.58457   0.70573   0.00000  Uiso   1.00
C287   C     0.97435   0.59180   0.63320   0.00000  Uiso   1.00
C288   C     0.00594   0.66120   0.60634   0.00000  Uiso   1.00
C289   C     0.05142   0.76199   0.53679   0.00000  Uiso   1.00
C290   C     0.99170   0.62414   0.82748   0.00000  Uiso   1.00
C291   C     0.89466   0.60233   0.83905   0.00000  Uiso   1.00
C292   C     0.83761   0.63625   0.88728   0.00000  Uiso   1.00
C293   C     0.75132   0.60807   0.88980   0.00000  Uiso   1.00
C294   C     0.04487   0.54995   0.83782   0.00000  Uiso   1.00
C295   C     0.11413   0.53985   0.88502   0.00000  Uiso   1.00
C296   C     0.15430   0.46760   0.88651   0.00000  Uiso   1.00
C297   C     0.00006   0.64452   0.74988   0.00000  Uiso   1.00
C298   C     0.03166   0.71391   0.72313   0.00000  Uiso   1.00
C299   C     0.03413   0.72125   0.65057   0.00000  Uiso   1.00
H300   H     0.91798   0.46711   0.71183   0.00000  Uiso   1.00
H301   H     0.75854   0.46775   0.76318   0.00000  Uiso   1.00
H302   H     0.03502   0.37137   0.76092   0.00000  Uiso   1.00
H303   H     0.95256   0.54540   0.59905   0.00000  Uiso   1.00
H304   H     0.59419   0.49488   0.83960   0.00000  Uiso   1.00
H305   H     0.17718   0.29167   0.83481   0.00000  Uiso   1.00
H306   H     0.00331   0.65865   0.49348   0.00000  Uiso   1.00
H307   H     0.01361   0.67081   0.86185   0.00000  Uiso   1.00
H308   H     0.85941   0.68264   0.92143   0.00000  Uiso   1.00
H309   H     0.13589   0.58626   0.91917   0.00000  Uiso   1.00
H310   H     0.05344   0.76029   0.75731   0.00000  Uiso   1.00
H311   H     0.67606   0.66929   0.96804   0.00000  Uiso   1.00
H312   H     0.25906   0.46608   0.96326   0.00000  Uiso   1.00
H313   H     0.08518   0.83305   0.62193   0.00000  Uiso   1.00
O314   O     0.53197   0.58617   0.94032   0.00000  Uiso   1.00
O315   O     0.29684   0.31957   0.93404   0.00000  Uiso   1.00
O316   O     0.06873   0.80103   0.48622   0.00000  Uiso   1.00
N317   N     0.63462   0.53432   0.86164   0.00000  Uiso   1.00
N318   N     0.17967   0.34432   0.85717   0.00000  Uiso   1.00
N319   N     0.01714   0.68740   0.53806   0.00000  Uiso   1.00
N320   N     0.67867   0.62816   0.93076   0.00000  Uiso   1.00
N321   N     0.22372   0.43817   0.92629   0.00000  Uiso   1.00
N322   N     0.06119   0.78125   0.60718   0.00000  Uiso   1.00
C323   C     0.56011   0.98622   0.74620   0.00000  Uiso   1.00
C324   C     0.63348   0.95762   0.79490   0.00000  Uiso   1.00
C325   C     0.71971   0.98585   0.79735   0.00000  Uiso   1.00
C326   C     0.77687   0.95198   0.84557   0.00000  Uiso   1.00
C327   C     0.89506   0.91671   0.91450   0.00000  Uiso   1.00
C328   C     0.48327   0.00999   0.79368   0.00000  Uiso   1.00
C329   C     0.44319   0.08225   0.79509   0.00000  Uiso   1.00
C330   C     0.37390   0.09246   0.84228   0.00000  Uiso   1.00
C331   C     0.25884   0.13848   0.90928   0.00000  Uiso   1.00
C332   C     0.52808   0.91543   0.70573   0.00000  Uiso   1.00
C333   C     0.52565   0.90820   0.63320   0.00000  Uiso   1.00
C334   C     0.49406   0.83880   0.60634   0.00000  Uiso   1.00
C335   C     0.44858   0.73801   0.53679   0.00000  Uiso   1.00
C336   C     0.50830   0.87586   0.82748   0.00000  Uiso   1.00
C337   C     0.60534   0.89767   0.83905   0.00000  Uiso   1.00
C338   C     0.66239   0.86375   0.88728   0.00000  Uiso   1.00
C339   C     0.74868   0.89193   0.88980   0.00000  Uiso   1.00
C340   C     0.45513   0.95005   0.83782   0.00000  Uiso   1.00
C341   C     0.38587   0.96015   0.88502   0.00000  Uiso   1.00
C342   C     0.34570   0.03240   0.88651   0.00000  Uiso   1.00
C343   C     0.49994   0.85548   0.74988   0.00000  Uiso   1.00
C344   C     0.46834   0.78609   0.72313   0.00000  Uiso   1.00
C345   C     0.46587   0.77875   0.65057   0.00000  Uiso   1.00
H346   H     0.58202   0.03289   0.71183   0.00000  Uiso   1.00
H347   H     0.74146   0.03225   0.76318   0.00000  Uiso   1.00
H348   H     0.46498   0.12863   0.76092   0.00000  Uiso   1.00
H349   H     0.54744   0.95460   0.59905   0.00000  Uiso   1.00
H350   H     0.90581   0.00512   0.83960   0.00000  Uiso   1.00
H351   H     0.32282   0.20833   0.83481   0.00000  Uiso   1.00
H352   H     0.49669   0.84135   0.49348   0.00000  Uiso   1.00
H353   H     0.48639   0.82919   0.86185   0.00000  Uiso   1.00
H354   H     0.64059   0.81736   0.92143   0.00000  Uiso   1.00
H355   H     0.36411   0.91374   0.91917   0.00000  Uiso   1.00
H356   H     0.44656   0.73971   0.75731   0.00000  Uiso   1.00
H357   H     0.82394   0.83071   0.96804   0.00000  Uiso   1.00
H358   H     0.24094   0.03392   0.96326   0.00000  Uiso   1.00
H359   H     0.41482   0.66695   0.62193   0.00000  Uiso   1.00
O360   O     0.96803   0.91383   0.94032   0.00000  Uiso   1.00
O361   O     0.20316   0.18043   0.93404   0.00000  Uiso   1.00
O362   O     0.43127   0.69897   0.48622   0.00000  Uiso   1.00
N363   N     0.86538   0.96568   0.86164   0.00000  Uiso   1.00
N364   N     0.32033   0.15568   0.85717   0.00000  Uiso   1.00
N365   N     0.48286   0.81260   0.53806   0.00000  Uiso   1.00
N366   N     0.82133   0.87184   0.93076   0.00000  Uiso   1.00
N367   N     0.27628   0.06183   0.92629   0.00000  Uiso   1.00
N368   N     0.43881   0.71875   0.60718   0.00000  Uiso   1.00
