data_job_01062
_audit_creation_date              2018-12-19
_audit_creation_method            'Materials Studio'
_symmetry_space_group_name_H-M    'P1'
_symmetry_Int_Tables_number       1
_symmetry_cell_setting            triclinic
loop_
_symmetry_equiv_pos_as_xyz
  x,y,z
_cell_length_a                    40.0168
_cell_length_b                    12.6331
_cell_length_c                    12.3287
_cell_angle_alpha                 90.0000
_cell_angle_beta                  80.7364
_cell_angle_gamma                 90.0000
loop_
_atom_site_label
_atom_site_type_symbol
_atom_site_fract_x
_atom_site_fract_y
_atom_site_fract_z
_atom_site_U_iso_or_equiv
_atom_site_adp_type
_atom_site_occupancy
C1     C     0.36046   0.62127   0.71917   0.00000  Uiso   1.00
C2     C     0.33762   0.53925   0.67743   0.00000  Uiso   1.00
C3     C     0.32787   0.44329   0.72756   0.00000  Uiso   1.00
C4     C     0.30688   0.37929   0.67643   0.00000  Uiso   1.00
C5     C     0.27308   0.24719   0.62645   0.00000  Uiso   1.00
C6     C     0.38978   0.63937   0.62552   0.00000  Uiso   1.00
C7     C     0.42388   0.62761   0.63202   0.00000  Uiso   1.00
C8     C     0.44679   0.64791   0.53719   0.00000  Uiso   1.00
C9     C     0.49396   0.67133   0.40665   0.00000  Uiso   1.00
C10    C     0.34031   0.72423   0.73123   0.00000  Uiso   1.00
C11    C     0.33284   0.78384   0.82661   0.00000  Uiso   1.00
C12    C     0.31411   0.87559   0.82078   0.00000  Uiso   1.00
C13    C     0.28448   0.03077   0.85438   0.00000  Uiso   1.00
C14    C     0.34051   0.67823   0.53922   0.00000  Uiso   1.00
C15    C     0.32678   0.57019   0.57968   0.00000  Uiso   1.00
C16    C     0.30580   0.50631   0.52847   0.00000  Uiso   1.00
C17    C     0.29602   0.41028   0.57852   0.00000  Uiso   1.00
C18    C     0.37894   0.67031   0.52778   0.00000  Uiso   1.00
C19    C     0.40180   0.69063   0.43293   0.00000  Uiso   1.00
C20    C     0.43593   0.67890   0.43927   0.00000  Uiso   1.00
C21    C     0.32947   0.75517   0.63349   0.00000  Uiso   1.00
C22    C     0.31076   0.84685   0.62752   0.00000  Uiso   1.00
C23    C     0.30325   0.90659   0.72286   0.00000  Uiso   1.00
H24    H     0.36890   0.59719   0.79526   0.00000  Uiso   1.00
H25    H     0.33627   0.41938   0.80319   0.00000  Uiso   1.00
H26    H     0.43226   0.60368   0.70767   0.00000  Uiso   1.00
H27    H     0.34123   0.75987   0.90223   0.00000  Uiso   1.00
H28    H     0.29532   0.23587   0.76886   0.00000  Uiso   1.00
H29    H     0.49772   0.62452   0.56746   0.00000  Uiso   1.00
H30    H     0.30577   0.95389   0.97773   0.00000  Uiso   1.00
H31    H     0.33207   0.70232   0.46312   0.00000  Uiso   1.00
H32    H     0.29741   0.53027   0.45283   0.00000  Uiso   1.00
H33    H     0.39340   0.71458   0.35731   0.00000  Uiso   1.00
H34    H     0.30237   0.87077   0.55187   0.00000  Uiso   1.00
H35    H     0.26378   0.32587   0.48449   0.00000  Uiso   1.00
H36    H     0.46619   0.71453   0.28309   0.00000  Uiso   1.00
H37    H     0.27423   0.04389   0.69336   0.00000  Uiso   1.00
O38    O     0.25743   0.16578   0.62588   0.00000  Uiso   1.00
O39    O     0.52297   0.67569   0.36165   0.00000  Uiso   1.00
O40    O     0.27113   0.10781   0.89992   0.00000  Uiso   1.00
N41    N     0.29265   0.28067   0.70336   0.00000  Uiso   1.00
N42    N     0.48188   0.64402   0.51505   0.00000  Uiso   1.00
N43    N     0.30243   0.95197   0.89861   0.00000  Uiso   1.00
N44    N     0.27568   0.32910   0.55035   0.00000  Uiso   1.00
N45    N     0.46491   0.69245   0.36204   0.00000  Uiso   1.00
N46    N     0.28546   0.00040   0.74560   0.00000  Uiso   1.00
C47    C     0.86046   0.12127   0.71917   0.00000  Uiso   1.00
C48    C     0.83762   0.03925   0.67743   0.00000  Uiso   1.00
C49    C     0.82787   0.94329   0.72756   0.00000  Uiso   1.00
C50    C     0.80688   0.87929   0.67643   0.00000  Uiso   1.00
C51    C     0.77308   0.74719   0.62645   0.00000  Uiso   1.00
C52    C     0.88978   0.13937   0.62552   0.00000  Uiso   1.00
C53    C     0.92388   0.12761   0.63202   0.00000  Uiso   1.00
C54    C     0.94679   0.14791   0.53719   0.00000  Uiso   1.00
C55    C     0.99396   0.17133   0.40665   0.00000  Uiso   1.00
C56    C     0.84031   0.22423   0.73123   0.00000  Uiso   1.00
C57    C     0.83284   0.28384   0.82661   0.00000  Uiso   1.00
C58    C     0.81411   0.37559   0.82078   0.00000  Uiso   1.00
C59    C     0.78448   0.53077   0.85438   0.00000  Uiso   1.00
C60    C     0.84051   0.17823   0.53922   0.00000  Uiso   1.00
C61    C     0.82678   0.07019   0.57968   0.00000  Uiso   1.00
C62    C     0.80580   0.00631   0.52847   0.00000  Uiso   1.00
C63    C     0.79602   0.91028   0.57852   0.00000  Uiso   1.00
C64    C     0.87894   0.17031   0.52778   0.00000  Uiso   1.00
C65    C     0.90180   0.19063   0.43293   0.00000  Uiso   1.00
C66    C     0.93593   0.17890   0.43927   0.00000  Uiso   1.00
C67    C     0.82947   0.25517   0.63349   0.00000  Uiso   1.00
C68    C     0.81076   0.34685   0.62752   0.00000  Uiso   1.00
C69    C     0.80325   0.40659   0.72286   0.00000  Uiso   1.00
H70    H     0.86890   0.09719   0.79526   0.00000  Uiso   1.00
H71    H     0.83627   0.91938   0.80319   0.00000  Uiso   1.00
H72    H     0.93226   0.10368   0.70767   0.00000  Uiso   1.00
H73    H     0.84123   0.25987   0.90223   0.00000  Uiso   1.00
H74    H     0.79532   0.73587   0.76886   0.00000  Uiso   1.00
H75    H     0.99772   0.12452   0.56746   0.00000  Uiso   1.00
H76    H     0.80577   0.45389   0.97773   0.00000  Uiso   1.00
H77    H     0.83207   0.20232   0.46312   0.00000  Uiso   1.00
H78    H     0.79741   0.03027   0.45283   0.00000  Uiso   1.00
H79    H     0.89340   0.21458   0.35731   0.00000  Uiso   1.00
H80    H     0.80237   0.37077   0.55187   0.00000  Uiso   1.00
H81    H     0.76378   0.82587   0.48449   0.00000  Uiso   1.00
H82    H     0.96619   0.21453   0.28309   0.00000  Uiso   1.00
H83    H     0.77423   0.54389   0.69336   0.00000  Uiso   1.00
O84    O     0.75743   0.66578   0.62588   0.00000  Uiso   1.00
O85    O     0.02297   0.17569   0.36165   0.00000  Uiso   1.00
O86    O     0.77113   0.60781   0.89992   0.00000  Uiso   1.00
N87    N     0.79265   0.78067   0.70336   0.00000  Uiso   1.00
N88    N     0.98188   0.14402   0.51505   0.00000  Uiso   1.00
N89    N     0.80243   0.45197   0.89861   0.00000  Uiso   1.00
N90    N     0.77568   0.82910   0.55035   0.00000  Uiso   1.00
N91    N     0.96491   0.19245   0.36204   0.00000  Uiso   1.00
N92    N     0.78546   0.50040   0.74560   0.00000  Uiso   1.00
C93    C     0.63954   0.62127   0.78083   0.00000  Uiso   1.00
C94    C     0.66238   0.53925   0.82257   0.00000  Uiso   1.00
C95    C     0.67213   0.44329   0.77244   0.00000  Uiso   1.00
C96    C     0.69312   0.37929   0.82357   0.00000  Uiso   1.00
C97    C     0.72692   0.24719   0.87355   0.00000  Uiso   1.00
C98    C     0.61022   0.63937   0.87448   0.00000  Uiso   1.00
C99    C     0.57612   0.62761   0.86798   0.00000  Uiso   1.00
C100   C     0.55321   0.64791   0.96281   0.00000  Uiso   1.00
C101   C     0.50604   0.67133   0.09335   0.00000  Uiso   1.00
C102   C     0.65969   0.72423   0.76877   0.00000  Uiso   1.00
C103   C     0.66716   0.78384   0.67339   0.00000  Uiso   1.00
C104   C     0.68589   0.87559   0.67922   0.00000  Uiso   1.00
C105   C     0.71552   0.03077   0.64562   0.00000  Uiso   1.00
C106   C     0.65949   0.67823   0.96078   0.00000  Uiso   1.00
C107   C     0.67322   0.57019   0.92032   0.00000  Uiso   1.00
C108   C     0.69420   0.50631   0.97153   0.00000  Uiso   1.00
C109   C     0.70398   0.41028   0.92148   0.00000  Uiso   1.00
C110   C     0.62106   0.67031   0.97222   0.00000  Uiso   1.00
C111   C     0.59820   0.69063   0.06707   0.00000  Uiso   1.00
C112   C     0.56407   0.67890   0.06073   0.00000  Uiso   1.00
C113   C     0.67053   0.75517   0.86651   0.00000  Uiso   1.00
C114   C     0.68924   0.84685   0.87248   0.00000  Uiso   1.00
C115   C     0.69675   0.90659   0.77714   0.00000  Uiso   1.00
H116   H     0.63110   0.59719   0.70474   0.00000  Uiso   1.00
H117   H     0.66373   0.41938   0.69681   0.00000  Uiso   1.00
H118   H     0.56774   0.60368   0.79233   0.00000  Uiso   1.00
H119   H     0.65877   0.75987   0.59777   0.00000  Uiso   1.00
H120   H     0.70468   0.23587   0.73114   0.00000  Uiso   1.00
H121   H     0.50228   0.62452   0.93254   0.00000  Uiso   1.00
H122   H     0.69423   0.95389   0.52227   0.00000  Uiso   1.00
H123   H     0.66793   0.70232   0.03688   0.00000  Uiso   1.00
H124   H     0.70259   0.53027   0.04717   0.00000  Uiso   1.00
H125   H     0.60660   0.71458   0.14269   0.00000  Uiso   1.00
H126   H     0.69763   0.87077   0.94813   0.00000  Uiso   1.00
H127   H     0.73622   0.32587   0.01551   0.00000  Uiso   1.00
H128   H     0.53381   0.71453   0.21691   0.00000  Uiso   1.00
H129   H     0.72577   0.04389   0.80664   0.00000  Uiso   1.00
O130   O     0.74257   0.16578   0.87412   0.00000  Uiso   1.00
O131   O     0.47703   0.67569   0.13835   0.00000  Uiso   1.00
O132   O     0.72887   0.10781   0.60008   0.00000  Uiso   1.00
N133   N     0.70735   0.28067   0.79664   0.00000  Uiso   1.00
N134   N     0.51812   0.64402   0.98495   0.00000  Uiso   1.00
N135   N     0.69757   0.95197   0.60139   0.00000  Uiso   1.00
N136   N     0.72432   0.32910   0.94965   0.00000  Uiso   1.00
N137   N     0.53509   0.69245   0.13796   0.00000  Uiso   1.00
N138   N     0.71454   0.00040   0.75440   0.00000  Uiso   1.00
C139   C     0.13954   0.12127   0.78083   0.00000  Uiso   1.00
C140   C     0.16238   0.03925   0.82257   0.00000  Uiso   1.00
C141   C     0.17213   0.94329   0.77244   0.00000  Uiso   1.00
C142   C     0.19312   0.87929   0.82357   0.00000  Uiso   1.00
C143   C     0.22692   0.74719   0.87355   0.00000  Uiso   1.00
C144   C     0.11022   0.13937   0.87448   0.00000  Uiso   1.00
C145   C     0.07612   0.12761   0.86798   0.00000  Uiso   1.00
C146   C     0.05321   0.14791   0.96281   0.00000  Uiso   1.00
C147   C     0.00604   0.17133   0.09335   0.00000  Uiso   1.00
C148   C     0.15969   0.22423   0.76877   0.00000  Uiso   1.00
C149   C     0.16716   0.28384   0.67339   0.00000  Uiso   1.00
C150   C     0.18589   0.37559   0.67922   0.00000  Uiso   1.00
C151   C     0.21552   0.53077   0.64562   0.00000  Uiso   1.00
C152   C     0.15949   0.17823   0.96078   0.00000  Uiso   1.00
C153   C     0.17322   0.07019   0.92032   0.00000  Uiso   1.00
C154   C     0.19420   0.00631   0.97153   0.00000  Uiso   1.00
C155   C     0.20398   0.91028   0.92148   0.00000  Uiso   1.00
C156   C     0.12106   0.17031   0.97222   0.00000  Uiso   1.00
C157   C     0.09820   0.19063   0.06707   0.00000  Uiso   1.00
C158   C     0.06407   0.17890   0.06073   0.00000  Uiso   1.00
C159   C     0.17053   0.25517   0.86651   0.00000  Uiso   1.00
C160   C     0.18924   0.34685   0.87248   0.00000  Uiso   1.00
C161   C     0.19675   0.40659   0.77714   0.00000  Uiso   1.00
H162   H     0.13110   0.09719   0.70474   0.00000  Uiso   1.00
H163   H     0.16373   0.91938   0.69681   0.00000  Uiso   1.00
H164   H     0.06774   0.10368   0.79233   0.00000  Uiso   1.00
H165   H     0.15877   0.25987   0.59777   0.00000  Uiso   1.00
H166   H     0.20468   0.73587   0.73114   0.00000  Uiso   1.00
H167   H     0.00228   0.12452   0.93254   0.00000  Uiso   1.00
H168   H     0.19423   0.45389   0.52227   0.00000  Uiso   1.00
H169   H     0.16793   0.20232   0.03688   0.00000  Uiso   1.00
H170   H     0.20259   0.03027   0.04717   0.00000  Uiso   1.00
H171   H     0.10660   0.21458   0.14269   0.00000  Uiso   1.00
H172   H     0.19763   0.37077   0.94813   0.00000  Uiso   1.00
H173   H     0.23622   0.82587   0.01551   0.00000  Uiso   1.00
H174   H     0.03381   0.21453   0.21691   0.00000  Uiso   1.00
H175   H     0.22577   0.54389   0.80664   0.00000  Uiso   1.00
O176   O     0.24257   0.66578   0.87412   0.00000  Uiso   1.00
O177   O     0.97703   0.17569   0.13835   0.00000  Uiso   1.00
O178   O     0.22887   0.60781   0.60008   0.00000  Uiso   1.00
N179   N     0.20735   0.78067   0.79664   0.00000  Uiso   1.00
N180   N     0.01812   0.14402   0.98495   0.00000  Uiso   1.00
N181   N     0.19757   0.45197   0.60139   0.00000  Uiso   1.00
N182   N     0.22432   0.82910   0.94965   0.00000  Uiso   1.00
N183   N     0.03509   0.19245   0.13796   0.00000  Uiso   1.00
N184   N     0.21454   0.50040   0.75440   0.00000  Uiso   1.00
C185   C     0.63954   0.37873   0.28083   0.00000  Uiso   1.00
C186   C     0.66238   0.46075   0.32257   0.00000  Uiso   1.00
C187   C     0.67213   0.55671   0.27244   0.00000  Uiso   1.00
C188   C     0.69312   0.62071   0.32357   0.00000  Uiso   1.00
C189   C     0.72692   0.75281   0.37355   0.00000  Uiso   1.00
C190   C     0.61022   0.36063   0.37448   0.00000  Uiso   1.00
C191   C     0.57612   0.37239   0.36798   0.00000  Uiso   1.00
C192   C     0.55321   0.35209   0.46281   0.00000  Uiso   1.00
C193   C     0.50604   0.32867   0.59335   0.00000  Uiso   1.00
C194   C     0.65969   0.27577   0.26877   0.00000  Uiso   1.00
C195   C     0.66716   0.21616   0.17339   0.00000  Uiso   1.00
C196   C     0.68589   0.12441   0.17922   0.00000  Uiso   1.00
C197   C     0.71552   0.96923   0.14562   0.00000  Uiso   1.00
C198   C     0.65949   0.32177   0.46078   0.00000  Uiso   1.00
C199   C     0.67322   0.42981   0.42032   0.00000  Uiso   1.00
C200   C     0.69420   0.49369   0.47153   0.00000  Uiso   1.00
C201   C     0.70398   0.58972   0.42148   0.00000  Uiso   1.00
C202   C     0.62106   0.32969   0.47222   0.00000  Uiso   1.00
C203   C     0.59820   0.30937   0.56707   0.00000  Uiso   1.00
C204   C     0.56407   0.32110   0.56073   0.00000  Uiso   1.00
C205   C     0.67053   0.24483   0.36651   0.00000  Uiso   1.00
C206   C     0.68924   0.15315   0.37248   0.00000  Uiso   1.00
C207   C     0.69675   0.09341   0.27714   0.00000  Uiso   1.00
H208   H     0.63110   0.40281   0.20474   0.00000  Uiso   1.00
H209   H     0.66373   0.58062   0.19681   0.00000  Uiso   1.00
H210   H     0.56774   0.39632   0.29233   0.00000  Uiso   1.00
H211   H     0.65877   0.24013   0.09777   0.00000  Uiso   1.00
H212   H     0.70468   0.76413   0.23114   0.00000  Uiso   1.00
H213   H     0.50228   0.37548   0.43254   0.00000  Uiso   1.00
H214   H     0.69423   0.04611   0.02227   0.00000  Uiso   1.00
H215   H     0.66793   0.29768   0.53688   0.00000  Uiso   1.00
H216   H     0.70259   0.46973   0.54717   0.00000  Uiso   1.00
H217   H     0.60660   0.28542   0.64269   0.00000  Uiso   1.00
H218   H     0.69763   0.12923   0.44813   0.00000  Uiso   1.00
H219   H     0.73622   0.67413   0.51551   0.00000  Uiso   1.00
H220   H     0.53381   0.28547   0.71691   0.00000  Uiso   1.00
H221   H     0.72577   0.95611   0.30664   0.00000  Uiso   1.00
O222   O     0.74257   0.83422   0.37412   0.00000  Uiso   1.00
O223   O     0.47703   0.32431   0.63835   0.00000  Uiso   1.00
O224   O     0.72887   0.89219   0.10008   0.00000  Uiso   1.00
N225   N     0.70735   0.71933   0.29664   0.00000  Uiso   1.00
N226   N     0.51812   0.35598   0.48495   0.00000  Uiso   1.00
N227   N     0.69757   0.04803   0.10139   0.00000  Uiso   1.00
N228   N     0.72432   0.67090   0.44965   0.00000  Uiso   1.00
N229   N     0.53509   0.30755   0.63796   0.00000  Uiso   1.00
N230   N     0.71454   0.99960   0.25440   0.00000  Uiso   1.00
C231   C     0.13954   0.87873   0.28083   0.00000  Uiso   1.00
C232   C     0.16238   0.96075   0.32257   0.00000  Uiso   1.00
C233   C     0.17213   0.05671   0.27244   0.00000  Uiso   1.00
C234   C     0.19312   0.12071   0.32357   0.00000  Uiso   1.00
C235   C     0.22692   0.25281   0.37355   0.00000  Uiso   1.00
C236   C     0.11022   0.86063   0.37448   0.00000  Uiso   1.00
C237   C     0.07612   0.87239   0.36798   0.00000  Uiso   1.00
C238   C     0.05321   0.85209   0.46281   0.00000  Uiso   1.00
C239   C     0.00604   0.82867   0.59335   0.00000  Uiso   1.00
C240   C     0.15969   0.77577   0.26877   0.00000  Uiso   1.00
C241   C     0.16716   0.71616   0.17339   0.00000  Uiso   1.00
C242   C     0.18589   0.62441   0.17922   0.00000  Uiso   1.00
C243   C     0.21552   0.46923   0.14562   0.00000  Uiso   1.00
C244   C     0.15949   0.82177   0.46078   0.00000  Uiso   1.00
C245   C     0.17322   0.92981   0.42032   0.00000  Uiso   1.00
C246   C     0.19420   0.99369   0.47153   0.00000  Uiso   1.00
C247   C     0.20398   0.08972   0.42148   0.00000  Uiso   1.00
C248   C     0.12106   0.82969   0.47222   0.00000  Uiso   1.00
C249   C     0.09820   0.80937   0.56707   0.00000  Uiso   1.00
C250   C     0.06407   0.82110   0.56073   0.00000  Uiso   1.00
C251   C     0.17053   0.74483   0.36651   0.00000  Uiso   1.00
C252   C     0.18924   0.65315   0.37248   0.00000  Uiso   1.00
C253   C     0.19675   0.59341   0.27714   0.00000  Uiso   1.00
H254   H     0.13110   0.90281   0.20474   0.00000  Uiso   1.00
H255   H     0.16373   0.08062   0.19681   0.00000  Uiso   1.00
H256   H     0.06774   0.89632   0.29233   0.00000  Uiso   1.00
H257   H     0.15877   0.74013   0.09777   0.00000  Uiso   1.00
H258   H     0.20468   0.26413   0.23114   0.00000  Uiso   1.00
H259   H     0.00228   0.87548   0.43254   0.00000  Uiso   1.00
H260   H     0.19423   0.54611   0.02227   0.00000  Uiso   1.00
H261   H     0.16793   0.79768   0.53688   0.00000  Uiso   1.00
H262   H     0.20259   0.96973   0.54717   0.00000  Uiso   1.00
H263   H     0.10660   0.78542   0.64269   0.00000  Uiso   1.00
H264   H     0.19763   0.62923   0.44813   0.00000  Uiso   1.00
H265   H     0.23622   0.17413   0.51551   0.00000  Uiso   1.00
H266   H     0.03381   0.78547   0.71691   0.00000  Uiso   1.00
H267   H     0.22577   0.45611   0.30664   0.00000  Uiso   1.00
O268   O     0.24257   0.33422   0.37412   0.00000  Uiso   1.00
O269   O     0.97703   0.82431   0.63835   0.00000  Uiso   1.00
O270   O     0.22887   0.39219   0.10008   0.00000  Uiso   1.00
N271   N     0.20735   0.21933   0.29664   0.00000  Uiso   1.00
N272   N     0.01812   0.85598   0.48495   0.00000  Uiso   1.00
N273   N     0.19757   0.54803   0.10139   0.00000  Uiso   1.00
N274   N     0.22432   0.17090   0.44965   0.00000  Uiso   1.00
N275   N     0.03509   0.80755   0.63796   0.00000  Uiso   1.00
N276   N     0.21454   0.49960   0.25440   0.00000  Uiso   1.00
C277   C     0.36046   0.37873   0.21917   0.00000  Uiso   1.00
C278   C     0.33762   0.46075   0.17743   0.00000  Uiso   1.00
C279   C     0.32787   0.55671   0.22756   0.00000  Uiso   1.00
C280   C     0.30688   0.62071   0.17643   0.00000  Uiso   1.00
C281   C     0.27308   0.75281   0.12645   0.00000  Uiso   1.00
C282   C     0.38978   0.36063   0.12552   0.00000  Uiso   1.00
C283   C     0.42388   0.37239   0.13202   0.00000  Uiso   1.00
C284   C     0.44679   0.35209   0.03719   0.00000  Uiso   1.00
C285   C     0.49396   0.32867   0.90665   0.00000  Uiso   1.00
C286   C     0.34031   0.27577   0.23123   0.00000  Uiso   1.00
C287   C     0.33284   0.21616   0.32661   0.00000  Uiso   1.00
C288   C     0.31411   0.12441   0.32078   0.00000  Uiso   1.00
C289   C     0.28448   0.96923   0.35438   0.00000  Uiso   1.00
C290   C     0.34051   0.32177   0.03922   0.00000  Uiso   1.00
C291   C     0.32678   0.42981   0.07968   0.00000  Uiso   1.00
C292   C     0.30580   0.49369   0.02847   0.00000  Uiso   1.00
C293   C     0.29602   0.58972   0.07852   0.00000  Uiso   1.00
C294   C     0.37894   0.32969   0.02778   0.00000  Uiso   1.00
C295   C     0.40180   0.30937   0.93293   0.00000  Uiso   1.00
C296   C     0.43593   0.32110   0.93927   0.00000  Uiso   1.00
C297   C     0.32947   0.24483   0.13349   0.00000  Uiso   1.00
C298   C     0.31076   0.15315   0.12752   0.00000  Uiso   1.00
C299   C     0.30325   0.09341   0.22286   0.00000  Uiso   1.00
H300   H     0.36890   0.40281   0.29526   0.00000  Uiso   1.00
H301   H     0.33627   0.58062   0.30319   0.00000  Uiso   1.00
H302   H     0.43226   0.39632   0.20767   0.00000  Uiso   1.00
H303   H     0.34123   0.24013   0.40223   0.00000  Uiso   1.00
H304   H     0.29532   0.76413   0.26886   0.00000  Uiso   1.00
H305   H     0.49772   0.37548   0.06746   0.00000  Uiso   1.00
H306   H     0.30577   0.04611   0.47773   0.00000  Uiso   1.00
H307   H     0.33207   0.29768   0.96312   0.00000  Uiso   1.00
H308   H     0.29741   0.46973   0.95283   0.00000  Uiso   1.00
H309   H     0.39340   0.28542   0.85731   0.00000  Uiso   1.00
H310   H     0.30237   0.12923   0.05187   0.00000  Uiso   1.00
H311   H     0.26378   0.67413   0.98449   0.00000  Uiso   1.00
H312   H     0.46619   0.28547   0.78309   0.00000  Uiso   1.00
H313   H     0.27423   0.95611   0.19336   0.00000  Uiso   1.00
O314   O     0.25743   0.83422   0.12588   0.00000  Uiso   1.00
O315   O     0.52297   0.32431   0.86165   0.00000  Uiso   1.00
O316   O     0.27113   0.89219   0.39992   0.00000  Uiso   1.00
N317   N     0.29265   0.71933   0.20336   0.00000  Uiso   1.00
N318   N     0.48188   0.35598   0.01505   0.00000  Uiso   1.00
N319   N     0.30243   0.04803   0.39861   0.00000  Uiso   1.00
N320   N     0.27568   0.67090   0.05035   0.00000  Uiso   1.00
N321   N     0.46491   0.30755   0.86204   0.00000  Uiso   1.00
N322   N     0.28546   0.99960   0.24560   0.00000  Uiso   1.00
C323   C     0.86046   0.87873   0.21917   0.00000  Uiso   1.00
C324   C     0.83762   0.96075   0.17743   0.00000  Uiso   1.00
C325   C     0.82787   0.05671   0.22756   0.00000  Uiso   1.00
C326   C     0.80688   0.12071   0.17643   0.00000  Uiso   1.00
C327   C     0.77308   0.25281   0.12645   0.00000  Uiso   1.00
C328   C     0.88978   0.86063   0.12552   0.00000  Uiso   1.00
C329   C     0.92388   0.87239   0.13202   0.00000  Uiso   1.00
C330   C     0.94679   0.85209   0.03719   0.00000  Uiso   1.00
C331   C     0.99396   0.82867   0.90665   0.00000  Uiso   1.00
C332   C     0.84031   0.77577   0.23123   0.00000  Uiso   1.00
C333   C     0.83284   0.71616   0.32661   0.00000  Uiso   1.00
C334   C     0.81411   0.62441   0.32078   0.00000  Uiso   1.00
C335   C     0.78448   0.46923   0.35438   0.00000  Uiso   1.00
C336   C     0.84051   0.82177   0.03922   0.00000  Uiso   1.00
C337   C     0.82678   0.92981   0.07968   0.00000  Uiso   1.00
C338   C     0.80580   0.99369   0.02847   0.00000  Uiso   1.00
C339   C     0.79602   0.08972   0.07852   0.00000  Uiso   1.00
C340   C     0.87894   0.82969   0.02778   0.00000  Uiso   1.00
C341   C     0.90180   0.80937   0.93293   0.00000  Uiso   1.00
C342   C     0.93593   0.82110   0.93927   0.00000  Uiso   1.00
C343   C     0.82947   0.74483   0.13349   0.00000  Uiso   1.00
C344   C     0.81076   0.65315   0.12752   0.00000  Uiso   1.00
C345   C     0.80325   0.59341   0.22286   0.00000  Uiso   1.00
H346   H     0.86890   0.90281   0.29526   0.00000  Uiso   1.00
H347   H     0.83627   0.08062   0.30319   0.00000  Uiso   1.00
H348   H     0.93226   0.89632   0.20767   0.00000  Uiso   1.00
H349   H     0.84123   0.74013   0.40223   0.00000  Uiso   1.00
H350   H     0.79532   0.26413   0.26886   0.00000  Uiso   1.00
H351   H     0.99772   0.87548   0.06746   0.00000  Uiso   1.00
H352   H     0.80577   0.54611   0.47773   0.00000  Uiso   1.00
H353   H     0.83207   0.79768   0.96312   0.00000  Uiso   1.00
H354   H     0.79741   0.96973   0.95283   0.00000  Uiso   1.00
H355   H     0.89340   0.78542   0.85731   0.00000  Uiso   1.00
H356   H     0.80237   0.62923   0.05187   0.00000  Uiso   1.00
H357   H     0.76378   0.17413   0.98449   0.00000  Uiso   1.00
H358   H     0.96619   0.78547   0.78309   0.00000  Uiso   1.00
H359   H     0.77423   0.45611   0.19336   0.00000  Uiso   1.00
O360   O     0.75743   0.33422   0.12588   0.00000  Uiso   1.00
O361   O     0.02297   0.82431   0.86165   0.00000  Uiso   1.00
O362   O     0.77113   0.39219   0.39992   0.00000  Uiso   1.00
N363   N     0.79265   0.21933   0.20336   0.00000  Uiso   1.00
N364   N     0.98188   0.85598   0.01505   0.00000  Uiso   1.00
N365   N     0.80243   0.54803   0.39861   0.00000  Uiso   1.00
N366   N     0.77568   0.17090   0.05035   0.00000  Uiso   1.00
N367   N     0.96491   0.80755   0.86204   0.00000  Uiso   1.00
N368   N     0.78546   0.49960   0.24560   0.00000  Uiso   1.00
