data_job_02189
_audit_creation_date              2018-12-19
_audit_creation_method            'Materials Studio'
_symmetry_space_group_name_H-M    'P1'
_symmetry_Int_Tables_number       1
_symmetry_cell_setting            triclinic
loop_
_symmetry_equiv_pos_as_xyz
  x,y,z
_cell_length_a                    23.8319
_cell_length_b                    9.5872
_cell_length_c                    20.0287
_cell_angle_alpha                 90.0000
_cell_angle_beta                  39.3691
_cell_angle_gamma                 90.0000
loop_
_atom_site_label
_atom_site_type_symbol
_atom_site_fract_x
_atom_site_fract_y
_atom_site_fract_z
_atom_site_U_iso_or_equiv
_atom_site_adp_type
_atom_site_occupancy
C1     C     0.74573   0.32858   0.27230   0.00000  Uiso   1.00
C2     C     0.69418   0.27773   0.38047   0.00000  Uiso   1.00
C3     C     0.61793   0.33828   0.47608   0.00000  Uiso   1.00
C4     C     0.58071   0.27613   0.56627   0.00000  Uiso   1.00
C5     C     0.49495   0.21524   0.73504   0.00000  Uiso   1.00
C6     C     0.84010   0.35364   0.20956   0.00000  Uiso   1.00
C7     C     0.88654   0.47801   0.16145   0.00000  Uiso   1.00
C8     C     0.97217   0.47975   0.10776   0.00000  Uiso   1.00
C9     C     0.11298   0.53669   0.01111   0.00000  Uiso   1.00
C10    C     0.75054   0.20493   0.22013   0.00000  Uiso   1.00
C11    C     0.72169   0.20426   0.18088   0.00000  Uiso   1.00
C12    C     0.73192   0.08080   0.13606   0.00000  Uiso   1.00
C13    C     0.73367   0.90684   0.05583   0.00000  Uiso   1.00
C14    C     0.81523   0.11052   0.26245   0.00000  Uiso   1.00
C15    C     0.73194   0.15930   0.37512   0.00000  Uiso   1.00
C16    C     0.69482   0.09703   0.46519   0.00000  Uiso   1.00
C17    C     0.61853   0.15748   0.56092   0.00000  Uiso   1.00
C18    C     0.87785   0.23521   0.20421   0.00000  Uiso   1.00
C19    C     0.96343   0.23676   0.15056   0.00000  Uiso   1.00
C20    C     0.00999   0.36110   0.10240   0.00000  Uiso   1.00
C21    C     0.78829   0.08649   0.21478   0.00000  Uiso   1.00
C22    C     0.79858   0.96301   0.17000   0.00000  Uiso   1.00
C23    C     0.76974   0.96215   0.13070   0.00000  Uiso   1.00
H24    H     0.71635   0.42079   0.27646   0.00000  Uiso   1.00
H25    H     0.58874   0.42995   0.48019   0.00000  Uiso   1.00
H26    H     0.85731   0.56965   0.16560   0.00000  Uiso   1.00
H27    H     0.69248   0.29594   0.18504   0.00000  Uiso   1.00
H28    H     0.46393   0.38790   0.70370   0.00000  Uiso   1.00
H29    H     0.03024   0.68245   0.04034   0.00000  Uiso   1.00
H30    H     0.68266   0.10528   0.08132   0.00000  Uiso   1.00
H31    H     0.84462   0.01831   0.25829   0.00000  Uiso   1.00
H32    H     0.72405   0.00538   0.46103   0.00000  Uiso   1.00
H33    H     0.99263   0.14509   0.14644   0.00000  Uiso   1.00
H34    H     0.82779   0.87137   0.16587   0.00000  Uiso   1.00
H35    H     0.57376   0.04331   0.68814   0.00000  Uiso   1.00
H36    H     0.14007   0.33787   0.02478   0.00000  Uiso   1.00
H37    H     0.79249   0.76069   0.06577   0.00000  Uiso   1.00
O38    O     0.43723   0.21439   0.82961   0.00000  Uiso   1.00
O39    O     0.18021   0.60082   0.95929   0.00000  Uiso   1.00
O40    O     0.72419   0.84359   0.01307   0.00000  Uiso   1.00
N41    N     0.50632   0.30856   0.67221   0.00000  Uiso   1.00
N42    N     0.03578   0.58396   0.05203   0.00000  Uiso   1.00
N43    N     0.71084   0.04436   0.09032   0.00000  Uiso   1.00
N44    N     0.56541   0.12314   0.66385   0.00000  Uiso   1.00
N45    N     0.09487   0.39853   0.04366   0.00000  Uiso   1.00
N46    N     0.76994   0.85894   0.08195   0.00000  Uiso   1.00
C47    C     0.24573   0.82858   0.27230   0.00000  Uiso   1.00
C48    C     0.19418   0.77773   0.38047   0.00000  Uiso   1.00
C49    C     0.11793   0.83828   0.47608   0.00000  Uiso   1.00
C50    C     0.08071   0.77613   0.56627   0.00000  Uiso   1.00
C51    C     0.99495   0.71524   0.73504   0.00000  Uiso   1.00
C52    C     0.34010   0.85364   0.20956   0.00000  Uiso   1.00
C53    C     0.38654   0.97801   0.16145   0.00000  Uiso   1.00
C54    C     0.47217   0.97975   0.10776   0.00000  Uiso   1.00
C55    C     0.61298   0.03669   0.01111   0.00000  Uiso   1.00
C56    C     0.25054   0.70493   0.22013   0.00000  Uiso   1.00
C57    C     0.22169   0.70426   0.18088   0.00000  Uiso   1.00
C58    C     0.23192   0.58080   0.13606   0.00000  Uiso   1.00
C59    C     0.23367   0.40684   0.05583   0.00000  Uiso   1.00
C60    C     0.31523   0.61052   0.26245   0.00000  Uiso   1.00
C61    C     0.23194   0.65930   0.37512   0.00000  Uiso   1.00
C62    C     0.19482   0.59703   0.46519   0.00000  Uiso   1.00
C63    C     0.11853   0.65748   0.56092   0.00000  Uiso   1.00
C64    C     0.37785   0.73521   0.20421   0.00000  Uiso   1.00
C65    C     0.46343   0.73676   0.15056   0.00000  Uiso   1.00
C66    C     0.50999   0.86110   0.10240   0.00000  Uiso   1.00
C67    C     0.28829   0.58649   0.21478   0.00000  Uiso   1.00
C68    C     0.29858   0.46301   0.17000   0.00000  Uiso   1.00
C69    C     0.26974   0.46215   0.13070   0.00000  Uiso   1.00
H70    H     0.21635   0.92079   0.27646   0.00000  Uiso   1.00
H71    H     0.08874   0.92995   0.48019   0.00000  Uiso   1.00
H72    H     0.35731   0.06965   0.16560   0.00000  Uiso   1.00
H73    H     0.19248   0.79594   0.18504   0.00000  Uiso   1.00
H74    H     0.96393   0.88790   0.70370   0.00000  Uiso   1.00
H75    H     0.53024   0.18245   0.04034   0.00000  Uiso   1.00
H76    H     0.18266   0.60528   0.08132   0.00000  Uiso   1.00
H77    H     0.34462   0.51831   0.25829   0.00000  Uiso   1.00
H78    H     0.22405   0.50538   0.46103   0.00000  Uiso   1.00
H79    H     0.49263   0.64509   0.14644   0.00000  Uiso   1.00
H80    H     0.32779   0.37137   0.16587   0.00000  Uiso   1.00
H81    H     0.07376   0.54331   0.68814   0.00000  Uiso   1.00
H82    H     0.64007   0.83787   0.02478   0.00000  Uiso   1.00
H83    H     0.29249   0.26069   0.06577   0.00000  Uiso   1.00
O84    O     0.93723   0.71439   0.82961   0.00000  Uiso   1.00
O85    O     0.68021   0.10082   0.95929   0.00000  Uiso   1.00
O86    O     0.22419   0.34359   0.01307   0.00000  Uiso   1.00
N87    N     0.00632   0.80856   0.67221   0.00000  Uiso   1.00
N88    N     0.53578   0.08396   0.05203   0.00000  Uiso   1.00
N89    N     0.21084   0.54436   0.09032   0.00000  Uiso   1.00
N90    N     0.06541   0.62314   0.66385   0.00000  Uiso   1.00
N91    N     0.59487   0.89853   0.04366   0.00000  Uiso   1.00
N92    N     0.26994   0.35894   0.08195   0.00000  Uiso   1.00
C93    C     0.25427   0.32858   0.72770   0.00000  Uiso   1.00
C94    C     0.30582   0.27773   0.61953   0.00000  Uiso   1.00
C95    C     0.38207   0.33828   0.52392   0.00000  Uiso   1.00
C96    C     0.41929   0.27613   0.43373   0.00000  Uiso   1.00
C97    C     0.50505   0.21524   0.26496   0.00000  Uiso   1.00
C98    C     0.15990   0.35364   0.79044   0.00000  Uiso   1.00
C99    C     0.11346   0.47801   0.83855   0.00000  Uiso   1.00
C100   C     0.02783   0.47975   0.89224   0.00000  Uiso   1.00
C101   C     0.88702   0.53669   0.98889   0.00000  Uiso   1.00
C102   C     0.24946   0.20493   0.77987   0.00000  Uiso   1.00
C103   C     0.27831   0.20426   0.81912   0.00000  Uiso   1.00
C104   C     0.26808   0.08080   0.86394   0.00000  Uiso   1.00
C105   C     0.26633   0.90684   0.94417   0.00000  Uiso   1.00
C106   C     0.18477   0.11052   0.73755   0.00000  Uiso   1.00
C107   C     0.26806   0.15930   0.62488   0.00000  Uiso   1.00
C108   C     0.30518   0.09703   0.53481   0.00000  Uiso   1.00
C109   C     0.38147   0.15748   0.43908   0.00000  Uiso   1.00
C110   C     0.12215   0.23521   0.79579   0.00000  Uiso   1.00
C111   C     0.03657   0.23676   0.84944   0.00000  Uiso   1.00
C112   C     0.99001   0.36110   0.89760   0.00000  Uiso   1.00
C113   C     0.21171   0.08649   0.78522   0.00000  Uiso   1.00
C114   C     0.20142   0.96301   0.83000   0.00000  Uiso   1.00
C115   C     0.23026   0.96215   0.86930   0.00000  Uiso   1.00
H116   H     0.28365   0.42079   0.72354   0.00000  Uiso   1.00
H117   H     0.41126   0.42995   0.51981   0.00000  Uiso   1.00
H118   H     0.14269   0.56965   0.83440   0.00000  Uiso   1.00
H119   H     0.30752   0.29594   0.81496   0.00000  Uiso   1.00
H120   H     0.53607   0.38790   0.29630   0.00000  Uiso   1.00
H121   H     0.96976   0.68245   0.95966   0.00000  Uiso   1.00
H122   H     0.31734   0.10528   0.91868   0.00000  Uiso   1.00
H123   H     0.15538   0.01831   0.74171   0.00000  Uiso   1.00
H124   H     0.27595   0.00538   0.53897   0.00000  Uiso   1.00
H125   H     0.00737   0.14509   0.85356   0.00000  Uiso   1.00
H126   H     0.17221   0.87137   0.83413   0.00000  Uiso   1.00
H127   H     0.42624   0.04331   0.31186   0.00000  Uiso   1.00
H128   H     0.85993   0.33787   0.97522   0.00000  Uiso   1.00
H129   H     0.20751   0.76069   0.93423   0.00000  Uiso   1.00
O130   O     0.56277   0.21439   0.17039   0.00000  Uiso   1.00
O131   O     0.81979   0.60082   0.04071   0.00000  Uiso   1.00
O132   O     0.27581   0.84359   0.98693   0.00000  Uiso   1.00
N133   N     0.49368   0.30856   0.32779   0.00000  Uiso   1.00
N134   N     0.96422   0.58396   0.94797   0.00000  Uiso   1.00
N135   N     0.28916   0.04436   0.90968   0.00000  Uiso   1.00
N136   N     0.43459   0.12314   0.33615   0.00000  Uiso   1.00
N137   N     0.90513   0.39853   0.95634   0.00000  Uiso   1.00
N138   N     0.23006   0.85894   0.91805   0.00000  Uiso   1.00
C139   C     0.75427   0.82858   0.72770   0.00000  Uiso   1.00
C140   C     0.80582   0.77773   0.61953   0.00000  Uiso   1.00
C141   C     0.88207   0.83828   0.52392   0.00000  Uiso   1.00
C142   C     0.91929   0.77613   0.43373   0.00000  Uiso   1.00
C143   C     0.00505   0.71524   0.26496   0.00000  Uiso   1.00
C144   C     0.65990   0.85364   0.79044   0.00000  Uiso   1.00
C145   C     0.61346   0.97801   0.83855   0.00000  Uiso   1.00
C146   C     0.52783   0.97975   0.89224   0.00000  Uiso   1.00
C147   C     0.38702   0.03669   0.98889   0.00000  Uiso   1.00
C148   C     0.74946   0.70493   0.77987   0.00000  Uiso   1.00
C149   C     0.77831   0.70426   0.81912   0.00000  Uiso   1.00
C150   C     0.76808   0.58080   0.86394   0.00000  Uiso   1.00
C151   C     0.76633   0.40684   0.94417   0.00000  Uiso   1.00
C152   C     0.68477   0.61052   0.73755   0.00000  Uiso   1.00
C153   C     0.76806   0.65930   0.62488   0.00000  Uiso   1.00
C154   C     0.80518   0.59703   0.53481   0.00000  Uiso   1.00
C155   C     0.88147   0.65748   0.43908   0.00000  Uiso   1.00
C156   C     0.62215   0.73521   0.79579   0.00000  Uiso   1.00
C157   C     0.53657   0.73676   0.84944   0.00000  Uiso   1.00
C158   C     0.49001   0.86110   0.89760   0.00000  Uiso   1.00
C159   C     0.71171   0.58649   0.78522   0.00000  Uiso   1.00
C160   C     0.70142   0.46301   0.83000   0.00000  Uiso   1.00
C161   C     0.73026   0.46215   0.86930   0.00000  Uiso   1.00
H162   H     0.78365   0.92079   0.72354   0.00000  Uiso   1.00
H163   H     0.91126   0.92995   0.51981   0.00000  Uiso   1.00
H164   H     0.64269   0.06965   0.83440   0.00000  Uiso   1.00
H165   H     0.80752   0.79594   0.81496   0.00000  Uiso   1.00
H166   H     0.03607   0.88790   0.29630   0.00000  Uiso   1.00
H167   H     0.46976   0.18245   0.95966   0.00000  Uiso   1.00
H168   H     0.81734   0.60528   0.91868   0.00000  Uiso   1.00
H169   H     0.65538   0.51831   0.74171   0.00000  Uiso   1.00
H170   H     0.77595   0.50538   0.53897   0.00000  Uiso   1.00
H171   H     0.50737   0.64509   0.85356   0.00000  Uiso   1.00
H172   H     0.67221   0.37137   0.83413   0.00000  Uiso   1.00
H173   H     0.92624   0.54331   0.31186   0.00000  Uiso   1.00
H174   H     0.35993   0.83787   0.97522   0.00000  Uiso   1.00
H175   H     0.70751   0.26069   0.93423   0.00000  Uiso   1.00
O176   O     0.06277   0.71439   0.17039   0.00000  Uiso   1.00
O177   O     0.31979   0.10082   0.04071   0.00000  Uiso   1.00
O178   O     0.77581   0.34359   0.98693   0.00000  Uiso   1.00
N179   N     0.99368   0.80856   0.32779   0.00000  Uiso   1.00
N180   N     0.46422   0.08396   0.94797   0.00000  Uiso   1.00
N181   N     0.78916   0.54436   0.90968   0.00000  Uiso   1.00
N182   N     0.93459   0.62314   0.33615   0.00000  Uiso   1.00
N183   N     0.40513   0.89853   0.95634   0.00000  Uiso   1.00
N184   N     0.73006   0.35894   0.91805   0.00000  Uiso   1.00
