data_job_04569
_audit_creation_date              2018-12-19
_audit_creation_method            'Materials Studio'
_symmetry_space_group_name_H-M    'P1'
_symmetry_Int_Tables_number       1
_symmetry_cell_setting            triclinic
loop_
_symmetry_equiv_pos_as_xyz
  x,y,z
_cell_length_a                    19.6506
_cell_length_b                    12.5017
_cell_length_c                    25.7114
_cell_angle_alpha                 90.0000
_cell_angle_beta                  113.7813
_cell_angle_gamma                 90.0000
loop_
_atom_site_label
_atom_site_type_symbol
_atom_site_fract_x
_atom_site_fract_y
_atom_site_fract_z
_atom_site_U_iso_or_equiv
_atom_site_adp_type
_atom_site_occupancy
C1     C     0.88347   0.37718   0.15569   0.00000  Uiso   1.00
C2     C     0.81265   0.38228   0.10133   0.00000  Uiso   1.00
C3     C     0.74134   0.36023   0.09699   0.00000  Uiso   1.00
C4     C     0.68393   0.36944   0.04347   0.00000  Uiso   1.00
C5     C     0.57192   0.37272   0.96627   0.00000  Uiso   1.00
C6     C     0.93533   0.30007   0.14346   0.00000  Uiso   1.00
C7     C     0.96718   0.20890   0.17455   0.00000  Uiso   1.00
C8     C     0.01305   0.14892   0.15649   0.00000  Uiso   1.00
C9     C     0.09155   0.02460   0.14473   0.00000  Uiso   1.00
C10    C     0.91945   0.48726   0.16243   0.00000  Uiso   1.00
C11    C     0.93796   0.55349   0.20948   0.00000  Uiso   1.00
C12    C     0.97047   0.65110   0.20740   0.00000  Uiso   1.00
C13    C     0.02431   0.81744   0.22509   0.00000  Uiso   1.00
C14    C     0.90831   0.43276   0.06836   0.00000  Uiso   1.00
C15    C     0.82615   0.41247   0.05389   0.00000  Uiso   1.00
C16    C     0.76883   0.42172   0.00037   0.00000  Uiso   1.00
C17    C     0.69745   0.39969   0.99595   0.00000  Uiso   1.00
C18    C     0.94883   0.33025   0.09602   0.00000  Uiso   1.00
C19    C     0.99467   0.27040   0.07792   0.00000  Uiso   1.00
C20    C     0.02657   0.17916   0.10897   0.00000  Uiso   1.00
C21    C     0.93294   0.51746   0.11499   0.00000  Uiso   1.00
C22    C     0.96544   0.61499   0.11285   0.00000  Uiso   1.00
C23    C     0.98399   0.68135   0.15988   0.00000  Uiso   1.00
H24    H     0.87296   0.35367   0.19262   0.00000  Uiso   1.00
H25    H     0.73092   0.33685   0.13371   0.00000  Uiso   1.00
H26    H     0.95673   0.18556   0.21126   0.00000  Uiso   1.00
H27    H     0.92751   0.53010   0.24618   0.00000  Uiso   1.00
H28    H     0.57940   0.33149   0.04747   0.00000  Uiso   1.00
H29    H     0.05554   0.01250   0.21100   0.00000  Uiso   1.00
H30    H     0.99392   0.73902   0.28463   0.00000  Uiso   1.00
H31    H     0.91882   0.45627   0.03142   0.00000  Uiso   1.00
H32    H     0.77929   0.44509   0.96366   0.00000  Uiso   1.00
H33    H     0.00510   0.29379   0.04121   0.00000  Uiso   1.00
H34    H     0.97588   0.63832   0.07613   0.00000  Uiso   1.00
H35    H     0.61866   0.41933   0.90946   0.00000  Uiso   1.00
H36    H     0.09481   0.10034   0.07298   0.00000  Uiso   1.00
H37    H     0.03318   0.82686   0.14662   0.00000  Uiso   1.00
O38    O     0.50642   0.36617   0.93680   0.00000  Uiso   1.00
O39    O     0.13111   0.94768   0.15134   0.00000  Uiso   1.00
O40    O     0.05026   0.90086   0.24795   0.00000  Uiso   1.00
N41    N     0.60778   0.35372   0.02429   0.00000  Uiso   1.00
N42    N     0.05294   0.05547   0.17717   0.00000  Uiso   1.00
N43    N     0.99535   0.73469   0.24602   0.00000  Uiso   1.00
N44    N     0.62891   0.40099   0.95003   0.00000  Uiso   1.00
N45    N     0.07407   0.10274   0.10291   0.00000  Uiso   1.00
N46    N     0.01648   0.78196   0.17176   0.00000  Uiso   1.00
C47    C     0.21885   0.56204   0.34412   0.00000  Uiso   1.00
C48    C     0.20547   0.56690   0.39852   0.00000  Uiso   1.00
C49    C     0.13875   0.54484   0.40288   0.00000  Uiso   1.00
C50    C     0.13789   0.55381   0.45643   0.00000  Uiso   1.00
C51    C     0.10745   0.55675   0.53368   0.00000  Uiso   1.00
C52    C     0.28356   0.48486   0.35622   0.00000  Uiso   1.00
C53    C     0.28250   0.39383   0.32500   0.00000  Uiso   1.00
C54    C     0.34737   0.33376   0.34294   0.00000  Uiso   1.00
C55    C     0.43817   0.20938   0.35449   0.00000  Uiso   1.00
C56    C     0.24778   0.67215   0.33750   0.00000  Uiso   1.00
C57    C     0.21665   0.73859   0.29055   0.00000  Uiso   1.00
C58    C     0.25142   0.83619   0.29272   0.00000  Uiso   1.00
C59    C     0.28668   0.00260   0.27522   0.00000  Uiso   1.00
C60    C     0.33596   0.61721   0.43148   0.00000  Uiso   1.00
C61    C     0.26908   0.59687   0.44597   0.00000  Uiso   1.00
C62    C     0.26832   0.60589   0.49953   0.00000  Uiso   1.00
C63    C     0.20161   0.58384   0.50396   0.00000  Uiso   1.00
C64    C     0.34716   0.51483   0.40366   0.00000  Uiso   1.00
C65    C     0.41206   0.45488   0.42165   0.00000  Uiso   1.00
C66    C     0.41109   0.36378   0.39047   0.00000  Uiso   1.00
C67    C     0.31139   0.70212   0.38495   0.00000  Uiso   1.00
C68    C     0.34622   0.79963   0.38720   0.00000  Uiso   1.00
C69    C     0.31514   0.86621   0.34026   0.00000  Uiso   1.00
H70    H     0.16934   0.53870   0.30718   0.00000  Uiso   1.00
H71    H     0.08954   0.52164   0.36615   0.00000  Uiso   1.00
H72    H     0.23327   0.37067   0.28828   0.00000  Uiso   1.00
H73    H     0.16743   0.71537   0.25384   0.00000  Uiso   1.00
H74    H     0.02914   0.51590   0.45245   0.00000  Uiso   1.00
H75    H     0.33219   0.19759   0.28825   0.00000  Uiso   1.00
H76    H     0.19337   0.92446   0.21561   0.00000  Uiso   1.00
H77    H     0.38548   0.64055   0.46842   0.00000  Uiso   1.00
H78    H     0.31755   0.62908   0.53624   0.00000  Uiso   1.00
H79    H     0.46127   0.47810   0.45837   0.00000  Uiso   1.00
H80    H     0.39544   0.82280   0.42392   0.00000  Uiso   1.00
H81    H     0.21419   0.60310   0.59050   0.00000  Uiso   1.00
H82    H     0.51725   0.28478   0.42630   0.00000  Uiso   1.00
H83    H     0.37843   0.01165   0.35367   0.00000  Uiso   1.00
O84    O     0.07308   0.55008   0.56318   0.00000  Uiso   1.00
O85    O     0.47068   0.13248   0.34775   0.00000  Uiso   1.00
O86    O     0.28855   0.08612   0.25245   0.00000  Uiso   1.00
N87    N     0.08201   0.53802   0.47563   0.00000  Uiso   1.00
N88    N     0.36534   0.24040   0.32212   0.00000  Uiso   1.00
N89    N     0.23557   0.91995   0.25420   0.00000  Uiso   1.00
N90    N     0.18159   0.58494   0.54992   0.00000  Uiso   1.00
N91    N     0.46492   0.28732   0.39641   0.00000  Uiso   1.00
N92    N     0.33515   0.96688   0.32849   0.00000  Uiso   1.00
C93    C     0.38347   0.87718   0.15569   0.00000  Uiso   1.00
C94    C     0.31265   0.88228   0.10133   0.00000  Uiso   1.00
C95    C     0.24134   0.86023   0.09699   0.00000  Uiso   1.00
C96    C     0.18393   0.86944   0.04347   0.00000  Uiso   1.00
C97    C     0.07192   0.87272   0.96627   0.00000  Uiso   1.00
C98    C     0.43533   0.80007   0.14346   0.00000  Uiso   1.00
C99    C     0.46718   0.70890   0.17455   0.00000  Uiso   1.00
C100   C     0.51305   0.64892   0.15649   0.00000  Uiso   1.00
C101   C     0.59155   0.52460   0.14473   0.00000  Uiso   1.00
C102   C     0.41945   0.98726   0.16243   0.00000  Uiso   1.00
C103   C     0.43796   0.05349   0.20948   0.00000  Uiso   1.00
C104   C     0.47047   0.15110   0.20740   0.00000  Uiso   1.00
C105   C     0.52431   0.31744   0.22509   0.00000  Uiso   1.00
C106   C     0.40831   0.93276   0.06836   0.00000  Uiso   1.00
C107   C     0.32615   0.91247   0.05389   0.00000  Uiso   1.00
C108   C     0.26883   0.92172   0.00037   0.00000  Uiso   1.00
C109   C     0.19745   0.89969   0.99595   0.00000  Uiso   1.00
C110   C     0.44883   0.83025   0.09602   0.00000  Uiso   1.00
C111   C     0.49467   0.77040   0.07792   0.00000  Uiso   1.00
C112   C     0.52657   0.67916   0.10897   0.00000  Uiso   1.00
C113   C     0.43294   0.01746   0.11499   0.00000  Uiso   1.00
C114   C     0.46544   0.11499   0.11285   0.00000  Uiso   1.00
C115   C     0.48399   0.18135   0.15988   0.00000  Uiso   1.00
H116   H     0.37296   0.85367   0.19262   0.00000  Uiso   1.00
H117   H     0.23092   0.83685   0.13371   0.00000  Uiso   1.00
H118   H     0.45673   0.68556   0.21126   0.00000  Uiso   1.00
H119   H     0.42751   0.03010   0.24618   0.00000  Uiso   1.00
H120   H     0.07940   0.83149   0.04747   0.00000  Uiso   1.00
H121   H     0.55554   0.51250   0.21100   0.00000  Uiso   1.00
H122   H     0.49392   0.23902   0.28463   0.00000  Uiso   1.00
H123   H     0.41882   0.95627   0.03142   0.00000  Uiso   1.00
H124   H     0.27929   0.94509   0.96366   0.00000  Uiso   1.00
H125   H     0.50510   0.79379   0.04121   0.00000  Uiso   1.00
H126   H     0.47588   0.13832   0.07613   0.00000  Uiso   1.00
H127   H     0.11866   0.91933   0.90946   0.00000  Uiso   1.00
H128   H     0.59481   0.60034   0.07298   0.00000  Uiso   1.00
H129   H     0.53318   0.32686   0.14662   0.00000  Uiso   1.00
O130   O     0.00642   0.86617   0.93680   0.00000  Uiso   1.00
O131   O     0.63111   0.44768   0.15134   0.00000  Uiso   1.00
O132   O     0.55026   0.40086   0.24795   0.00000  Uiso   1.00
N133   N     0.10778   0.85372   0.02429   0.00000  Uiso   1.00
N134   N     0.55294   0.55547   0.17717   0.00000  Uiso   1.00
N135   N     0.49535   0.23469   0.24602   0.00000  Uiso   1.00
N136   N     0.12891   0.90099   0.95003   0.00000  Uiso   1.00
N137   N     0.57407   0.60274   0.10291   0.00000  Uiso   1.00
N138   N     0.51648   0.28196   0.17176   0.00000  Uiso   1.00
C139   C     0.71885   0.06204   0.34412   0.00000  Uiso   1.00
C140   C     0.70547   0.06690   0.39852   0.00000  Uiso   1.00
C141   C     0.63875   0.04484   0.40288   0.00000  Uiso   1.00
C142   C     0.63789   0.05381   0.45643   0.00000  Uiso   1.00
C143   C     0.60745   0.05675   0.53368   0.00000  Uiso   1.00
C144   C     0.78356   0.98486   0.35622   0.00000  Uiso   1.00
C145   C     0.78250   0.89383   0.32500   0.00000  Uiso   1.00
C146   C     0.84737   0.83376   0.34294   0.00000  Uiso   1.00
C147   C     0.93817   0.70938   0.35449   0.00000  Uiso   1.00
C148   C     0.74778   0.17215   0.33750   0.00000  Uiso   1.00
C149   C     0.71665   0.23859   0.29055   0.00000  Uiso   1.00
C150   C     0.75142   0.33619   0.29272   0.00000  Uiso   1.00
C151   C     0.78668   0.50260   0.27522   0.00000  Uiso   1.00
C152   C     0.83596   0.11721   0.43148   0.00000  Uiso   1.00
C153   C     0.76908   0.09687   0.44597   0.00000  Uiso   1.00
C154   C     0.76832   0.10589   0.49953   0.00000  Uiso   1.00
C155   C     0.70161   0.08384   0.50396   0.00000  Uiso   1.00
C156   C     0.84716   0.01483   0.40366   0.00000  Uiso   1.00
C157   C     0.91206   0.95488   0.42165   0.00000  Uiso   1.00
C158   C     0.91109   0.86378   0.39047   0.00000  Uiso   1.00
C159   C     0.81139   0.20212   0.38495   0.00000  Uiso   1.00
C160   C     0.84622   0.29963   0.38720   0.00000  Uiso   1.00
C161   C     0.81514   0.36621   0.34026   0.00000  Uiso   1.00
H162   H     0.66934   0.03870   0.30718   0.00000  Uiso   1.00
H163   H     0.58954   0.02164   0.36615   0.00000  Uiso   1.00
H164   H     0.73327   0.87067   0.28828   0.00000  Uiso   1.00
H165   H     0.66743   0.21537   0.25384   0.00000  Uiso   1.00
H166   H     0.52914   0.01590   0.45245   0.00000  Uiso   1.00
H167   H     0.83219   0.69759   0.28825   0.00000  Uiso   1.00
H168   H     0.69337   0.42446   0.21561   0.00000  Uiso   1.00
H169   H     0.88548   0.14055   0.46842   0.00000  Uiso   1.00
H170   H     0.81755   0.12908   0.53624   0.00000  Uiso   1.00
H171   H     0.96127   0.97810   0.45837   0.00000  Uiso   1.00
H172   H     0.89544   0.32280   0.42392   0.00000  Uiso   1.00
H173   H     0.71419   0.10310   0.59050   0.00000  Uiso   1.00
H174   H     0.01725   0.78478   0.42630   0.00000  Uiso   1.00
H175   H     0.87843   0.51165   0.35367   0.00000  Uiso   1.00
O176   O     0.57308   0.05008   0.56318   0.00000  Uiso   1.00
O177   O     0.97068   0.63248   0.34775   0.00000  Uiso   1.00
O178   O     0.78855   0.58612   0.25245   0.00000  Uiso   1.00
N179   N     0.58201   0.03802   0.47563   0.00000  Uiso   1.00
N180   N     0.86534   0.74040   0.32212   0.00000  Uiso   1.00
N181   N     0.73557   0.41995   0.25420   0.00000  Uiso   1.00
N182   N     0.68159   0.08494   0.54992   0.00000  Uiso   1.00
N183   N     0.96492   0.78732   0.39641   0.00000  Uiso   1.00
N184   N     0.83515   0.46688   0.32849   0.00000  Uiso   1.00
C185   C     0.11653   0.37718   0.84431   0.00000  Uiso   1.00
C186   C     0.18735   0.38228   0.89867   0.00000  Uiso   1.00
C187   C     0.25866   0.36023   0.90301   0.00000  Uiso   1.00
C188   C     0.31607   0.36944   0.95653   0.00000  Uiso   1.00
C189   C     0.42808   0.37272   0.03373   0.00000  Uiso   1.00
C190   C     0.06467   0.30007   0.85654   0.00000  Uiso   1.00
C191   C     0.03282   0.20890   0.82545   0.00000  Uiso   1.00
C192   C     0.98695   0.14892   0.84351   0.00000  Uiso   1.00
C193   C     0.90845   0.02460   0.85527   0.00000  Uiso   1.00
C194   C     0.08055   0.48726   0.83757   0.00000  Uiso   1.00
C195   C     0.06204   0.55349   0.79052   0.00000  Uiso   1.00
C196   C     0.02953   0.65110   0.79260   0.00000  Uiso   1.00
C197   C     0.97569   0.81744   0.77491   0.00000  Uiso   1.00
C198   C     0.09169   0.43276   0.93164   0.00000  Uiso   1.00
C199   C     0.17385   0.41247   0.94611   0.00000  Uiso   1.00
C200   C     0.23117   0.42172   0.99963   0.00000  Uiso   1.00
C201   C     0.30255   0.39969   0.00405   0.00000  Uiso   1.00
C202   C     0.05117   0.33025   0.90398   0.00000  Uiso   1.00
C203   C     0.00533   0.27040   0.92208   0.00000  Uiso   1.00
C204   C     0.97343   0.17916   0.89103   0.00000  Uiso   1.00
C205   C     0.06706   0.51746   0.88501   0.00000  Uiso   1.00
C206   C     0.03456   0.61499   0.88715   0.00000  Uiso   1.00
C207   C     0.01601   0.68135   0.84012   0.00000  Uiso   1.00
H208   H     0.12704   0.35367   0.80738   0.00000  Uiso   1.00
H209   H     0.26908   0.33685   0.86629   0.00000  Uiso   1.00
H210   H     0.04327   0.18556   0.78874   0.00000  Uiso   1.00
H211   H     0.07249   0.53010   0.75382   0.00000  Uiso   1.00
H212   H     0.42060   0.33149   0.95253   0.00000  Uiso   1.00
H213   H     0.94446   0.01250   0.78900   0.00000  Uiso   1.00
H214   H     0.00608   0.73902   0.71537   0.00000  Uiso   1.00
H215   H     0.08118   0.45627   0.96858   0.00000  Uiso   1.00
H216   H     0.22071   0.44509   0.03634   0.00000  Uiso   1.00
H217   H     0.99490   0.29379   0.95879   0.00000  Uiso   1.00
H218   H     0.02412   0.63832   0.92387   0.00000  Uiso   1.00
H219   H     0.38134   0.41933   0.09054   0.00000  Uiso   1.00
H220   H     0.90519   0.10034   0.92702   0.00000  Uiso   1.00
H221   H     0.96682   0.82686   0.85338   0.00000  Uiso   1.00
O222   O     0.49358   0.36617   0.06320   0.00000  Uiso   1.00
O223   O     0.86889   0.94768   0.84866   0.00000  Uiso   1.00
O224   O     0.94974   0.90086   0.75205   0.00000  Uiso   1.00
N225   N     0.39222   0.35372   0.97571   0.00000  Uiso   1.00
N226   N     0.94706   0.05547   0.82283   0.00000  Uiso   1.00
N227   N     0.00465   0.73469   0.75398   0.00000  Uiso   1.00
N228   N     0.37109   0.40099   0.04997   0.00000  Uiso   1.00
N229   N     0.92593   0.10274   0.89709   0.00000  Uiso   1.00
N230   N     0.98352   0.78196   0.82824   0.00000  Uiso   1.00
C231   C     0.78115   0.56204   0.65588   0.00000  Uiso   1.00
C232   C     0.79453   0.56690   0.60148   0.00000  Uiso   1.00
C233   C     0.86125   0.54484   0.59712   0.00000  Uiso   1.00
C234   C     0.86211   0.55381   0.54357   0.00000  Uiso   1.00
C235   C     0.89255   0.55675   0.46632   0.00000  Uiso   1.00
C236   C     0.71644   0.48486   0.64378   0.00000  Uiso   1.00
C237   C     0.71750   0.39383   0.67500   0.00000  Uiso   1.00
C238   C     0.65263   0.33376   0.65706   0.00000  Uiso   1.00
C239   C     0.56183   0.20938   0.64551   0.00000  Uiso   1.00
C240   C     0.75222   0.67215   0.66250   0.00000  Uiso   1.00
C241   C     0.78335   0.73859   0.70945   0.00000  Uiso   1.00
C242   C     0.74858   0.83619   0.70728   0.00000  Uiso   1.00
C243   C     0.71332   0.00260   0.72478   0.00000  Uiso   1.00
C244   C     0.66404   0.61721   0.56852   0.00000  Uiso   1.00
C245   C     0.73092   0.59687   0.55403   0.00000  Uiso   1.00
C246   C     0.73168   0.60589   0.50047   0.00000  Uiso   1.00
C247   C     0.79839   0.58384   0.49604   0.00000  Uiso   1.00
C248   C     0.65284   0.51483   0.59634   0.00000  Uiso   1.00
C249   C     0.58794   0.45488   0.57835   0.00000  Uiso   1.00
C250   C     0.58891   0.36378   0.60953   0.00000  Uiso   1.00
C251   C     0.68861   0.70212   0.61505   0.00000  Uiso   1.00
C252   C     0.65378   0.79963   0.61280   0.00000  Uiso   1.00
C253   C     0.68486   0.86621   0.65974   0.00000  Uiso   1.00
H254   H     0.83066   0.53870   0.69282   0.00000  Uiso   1.00
H255   H     0.91046   0.52164   0.63385   0.00000  Uiso   1.00
H256   H     0.76673   0.37067   0.71172   0.00000  Uiso   1.00
H257   H     0.83257   0.71537   0.74616   0.00000  Uiso   1.00
H258   H     0.97086   0.51590   0.54755   0.00000  Uiso   1.00
H259   H     0.66781   0.19759   0.71175   0.00000  Uiso   1.00
H260   H     0.80663   0.92446   0.78439   0.00000  Uiso   1.00
H261   H     0.61452   0.64055   0.53158   0.00000  Uiso   1.00
H262   H     0.68245   0.62908   0.46376   0.00000  Uiso   1.00
H263   H     0.53873   0.47810   0.54163   0.00000  Uiso   1.00
H264   H     0.60456   0.82280   0.57608   0.00000  Uiso   1.00
H265   H     0.78581   0.60310   0.40950   0.00000  Uiso   1.00
H266   H     0.48275   0.28478   0.57370   0.00000  Uiso   1.00
H267   H     0.62157   0.01165   0.64633   0.00000  Uiso   1.00
O268   O     0.92692   0.55008   0.43682   0.00000  Uiso   1.00
O269   O     0.52932   0.13248   0.65225   0.00000  Uiso   1.00
O270   O     0.71145   0.08612   0.74755   0.00000  Uiso   1.00
N271   N     0.91799   0.53802   0.52437   0.00000  Uiso   1.00
N272   N     0.63466   0.24040   0.67788   0.00000  Uiso   1.00
N273   N     0.76443   0.91995   0.74580   0.00000  Uiso   1.00
N274   N     0.81841   0.58494   0.45008   0.00000  Uiso   1.00
N275   N     0.53508   0.28732   0.60359   0.00000  Uiso   1.00
N276   N     0.66485   0.96688   0.67151   0.00000  Uiso   1.00
C277   C     0.61653   0.87718   0.84431   0.00000  Uiso   1.00
C278   C     0.68735   0.88228   0.89867   0.00000  Uiso   1.00
C279   C     0.75866   0.86023   0.90301   0.00000  Uiso   1.00
C280   C     0.81607   0.86944   0.95653   0.00000  Uiso   1.00
C281   C     0.92808   0.87272   0.03373   0.00000  Uiso   1.00
C282   C     0.56467   0.80007   0.85654   0.00000  Uiso   1.00
C283   C     0.53282   0.70890   0.82545   0.00000  Uiso   1.00
C284   C     0.48695   0.64892   0.84351   0.00000  Uiso   1.00
C285   C     0.40845   0.52460   0.85527   0.00000  Uiso   1.00
C286   C     0.58055   0.98726   0.83757   0.00000  Uiso   1.00
C287   C     0.56204   0.05349   0.79052   0.00000  Uiso   1.00
C288   C     0.52953   0.15110   0.79260   0.00000  Uiso   1.00
C289   C     0.47569   0.31744   0.77491   0.00000  Uiso   1.00
C290   C     0.59169   0.93276   0.93164   0.00000  Uiso   1.00
C291   C     0.67385   0.91247   0.94611   0.00000  Uiso   1.00
C292   C     0.73117   0.92172   0.99963   0.00000  Uiso   1.00
C293   C     0.80255   0.89969   0.00405   0.00000  Uiso   1.00
C294   C     0.55117   0.83025   0.90398   0.00000  Uiso   1.00
C295   C     0.50533   0.77040   0.92208   0.00000  Uiso   1.00
C296   C     0.47343   0.67916   0.89103   0.00000  Uiso   1.00
C297   C     0.56706   0.01746   0.88501   0.00000  Uiso   1.00
C298   C     0.53456   0.11499   0.88715   0.00000  Uiso   1.00
C299   C     0.51601   0.18135   0.84012   0.00000  Uiso   1.00
H300   H     0.62704   0.85367   0.80738   0.00000  Uiso   1.00
H301   H     0.76908   0.83685   0.86629   0.00000  Uiso   1.00
H302   H     0.54327   0.68556   0.78874   0.00000  Uiso   1.00
H303   H     0.57249   0.03010   0.75382   0.00000  Uiso   1.00
H304   H     0.92060   0.83149   0.95253   0.00000  Uiso   1.00
H305   H     0.44446   0.51250   0.78900   0.00000  Uiso   1.00
H306   H     0.50608   0.23902   0.71537   0.00000  Uiso   1.00
H307   H     0.58118   0.95627   0.96858   0.00000  Uiso   1.00
H308   H     0.72071   0.94509   0.03634   0.00000  Uiso   1.00
H309   H     0.49490   0.79379   0.95879   0.00000  Uiso   1.00
H310   H     0.52412   0.13832   0.92387   0.00000  Uiso   1.00
H311   H     0.88134   0.91933   0.09054   0.00000  Uiso   1.00
H312   H     0.40519   0.60034   0.92702   0.00000  Uiso   1.00
H313   H     0.46682   0.32686   0.85338   0.00000  Uiso   1.00
O314   O     0.99358   0.86617   0.06320   0.00000  Uiso   1.00
O315   O     0.36889   0.44768   0.84866   0.00000  Uiso   1.00
O316   O     0.44974   0.40086   0.75205   0.00000  Uiso   1.00
N317   N     0.89222   0.85372   0.97571   0.00000  Uiso   1.00
N318   N     0.44706   0.55547   0.82283   0.00000  Uiso   1.00
N319   N     0.50465   0.23469   0.75398   0.00000  Uiso   1.00
N320   N     0.87109   0.90099   0.04997   0.00000  Uiso   1.00
N321   N     0.42593   0.60274   0.89709   0.00000  Uiso   1.00
N322   N     0.48352   0.28196   0.82824   0.00000  Uiso   1.00
C323   C     0.28115   0.06204   0.65588   0.00000  Uiso   1.00
C324   C     0.29453   0.06690   0.60148   0.00000  Uiso   1.00
C325   C     0.36125   0.04484   0.59712   0.00000  Uiso   1.00
C326   C     0.36211   0.05381   0.54357   0.00000  Uiso   1.00
C327   C     0.39255   0.05675   0.46632   0.00000  Uiso   1.00
C328   C     0.21644   0.98486   0.64378   0.00000  Uiso   1.00
C329   C     0.21750   0.89383   0.67500   0.00000  Uiso   1.00
C330   C     0.15263   0.83376   0.65706   0.00000  Uiso   1.00
C331   C     0.06183   0.70938   0.64551   0.00000  Uiso   1.00
C332   C     0.25222   0.17215   0.66250   0.00000  Uiso   1.00
C333   C     0.28335   0.23859   0.70945   0.00000  Uiso   1.00
C334   C     0.24858   0.33619   0.70728   0.00000  Uiso   1.00
C335   C     0.21332   0.50260   0.72478   0.00000  Uiso   1.00
C336   C     0.16404   0.11721   0.56852   0.00000  Uiso   1.00
C337   C     0.23092   0.09687   0.55403   0.00000  Uiso   1.00
C338   C     0.23168   0.10589   0.50047   0.00000  Uiso   1.00
C339   C     0.29839   0.08384   0.49604   0.00000  Uiso   1.00
C340   C     0.15284   0.01483   0.59634   0.00000  Uiso   1.00
C341   C     0.08794   0.95488   0.57835   0.00000  Uiso   1.00
C342   C     0.08891   0.86378   0.60953   0.00000  Uiso   1.00
C343   C     0.18861   0.20212   0.61505   0.00000  Uiso   1.00
C344   C     0.15378   0.29963   0.61280   0.00000  Uiso   1.00
C345   C     0.18486   0.36621   0.65974   0.00000  Uiso   1.00
H346   H     0.33066   0.03870   0.69282   0.00000  Uiso   1.00
H347   H     0.41046   0.02164   0.63385   0.00000  Uiso   1.00
H348   H     0.26673   0.87067   0.71172   0.00000  Uiso   1.00
H349   H     0.33257   0.21537   0.74616   0.00000  Uiso   1.00
H350   H     0.47086   0.01590   0.54755   0.00000  Uiso   1.00
H351   H     0.16781   0.69759   0.71175   0.00000  Uiso   1.00
H352   H     0.30663   0.42446   0.78439   0.00000  Uiso   1.00
H353   H     0.11452   0.14055   0.53158   0.00000  Uiso   1.00
H354   H     0.18245   0.12908   0.46376   0.00000  Uiso   1.00
H355   H     0.03873   0.97810   0.54163   0.00000  Uiso   1.00
H356   H     0.10456   0.32280   0.57608   0.00000  Uiso   1.00
H357   H     0.28581   0.10310   0.40950   0.00000  Uiso   1.00
H358   H     0.98275   0.78478   0.57370   0.00000  Uiso   1.00
H359   H     0.12157   0.51165   0.64633   0.00000  Uiso   1.00
O360   O     0.42692   0.05008   0.43682   0.00000  Uiso   1.00
O361   O     0.02932   0.63248   0.65225   0.00000  Uiso   1.00
O362   O     0.21145   0.58612   0.74755   0.00000  Uiso   1.00
N363   N     0.41799   0.03802   0.52437   0.00000  Uiso   1.00
N364   N     0.13466   0.74040   0.67788   0.00000  Uiso   1.00
N365   N     0.26443   0.41995   0.74580   0.00000  Uiso   1.00
N366   N     0.31841   0.08494   0.45008   0.00000  Uiso   1.00
N367   N     0.03508   0.78732   0.60359   0.00000  Uiso   1.00
N368   N     0.16485   0.46688   0.67151   0.00000  Uiso   1.00
