data_job_03416
_audit_creation_date              2018-12-19
_audit_creation_method            'Materials Studio'
_symmetry_space_group_name_H-M    'P1'
_symmetry_Int_Tables_number       1
_symmetry_cell_setting            triclinic
loop_
_symmetry_equiv_pos_as_xyz
  x,y,z
_cell_length_a                    10.4414
_cell_length_b                    10.5455
_cell_length_c                    14.6870
_cell_angle_alpha                 69.0443
_cell_angle_beta                  98.5980
_cell_angle_gamma                 115.8372
loop_
_atom_site_label
_atom_site_type_symbol
_atom_site_fract_x
_atom_site_fract_y
_atom_site_fract_z
_atom_site_U_iso_or_equiv
_atom_site_adp_type
_atom_site_occupancy
C1     C     0.27235   0.86007   0.30726   0.00000  Uiso   1.00
C2     C     0.22882   0.82929   0.21085   0.00000  Uiso   1.00
C3     C     0.11798   0.85087   0.15214   0.00000  Uiso   1.00
C4     C     0.09523   0.81604   0.06678   0.00000  Uiso   1.00
C5     C     0.01465   0.77646   0.92100   0.00000  Uiso   1.00
C6     C     0.26659   0.71393   0.38279   0.00000  Uiso   1.00
C7     C     0.18750   0.63854   0.46865   0.00000  Uiso   1.00
C8     C     0.19656   0.50661   0.52804   0.00000  Uiso   1.00
C9     C     0.17469   0.28799   0.64922   0.00000  Uiso   1.00
C10    C     0.42904   0.96826   0.29583   0.00000  Uiso   1.00
C11    C     0.48657   0.10671   0.30860   0.00000  Uiso   1.00
C12    C     0.63242   0.18889   0.29481   0.00000  Uiso   1.00
C13    C     0.86278   0.36516   0.28098   0.00000  Uiso   1.00
C14    C     0.42909   0.75982   0.26008   0.00000  Uiso   1.00
C15    C     0.31396   0.77483   0.18522   0.00000  Uiso   1.00
C16    C     0.29138   0.73996   0.09993   0.00000  Uiso   1.00
C17    C     0.18052   0.76150   0.04111   0.00000  Uiso   1.00
C18    C     0.35171   0.65948   0.35716   0.00000  Uiso   1.00
C19    C     0.36091   0.52763   0.41644   0.00000  Uiso   1.00
C20    C     0.28185   0.45206   0.50236   0.00000  Uiso   1.00
C21    C     0.51418   0.91381   0.27020   0.00000  Uiso   1.00
C22    C     0.65997   0.99579   0.25639   0.00000  Uiso   1.00
C23    C     0.71770   0.13434   0.26913   0.00000  Uiso   1.00
H24    H     0.20607   0.90245   0.32722   0.00000  Uiso   1.00
H25    H     0.05211   0.89300   0.17200   0.00000  Uiso   1.00
H26    H     0.12164   0.68072   0.48846   0.00000  Uiso   1.00
H27    H     0.42065   0.14881   0.32844   0.00000  Uiso   1.00
H28    H     0.91892   0.85846   0.98862   0.00000  Uiso   1.00
H29    H     0.06557   0.41087   0.65592   0.00000  Uiso   1.00
H30    H     0.69610   0.39793   0.31848   0.00000  Uiso   1.00
H31    H     0.49537   0.71742   0.24013   0.00000  Uiso   1.00
H32    H     0.35728   0.69782   0.08012   0.00000  Uiso   1.00
H33    H     0.42680   0.48553   0.39659   0.00000  Uiso   1.00
H34    H     0.72582   0.95362   0.23656   0.00000  Uiso   1.00
H35    H     0.16660   0.70004   0.91405   0.00000  Uiso   1.00
H36    H     0.31325   0.25245   0.58135   0.00000  Uiso   1.00
H37    H     0.94378   0.23951   0.24391   0.00000  Uiso   1.00
O38    O     0.94667   0.76965   0.84767   0.00000  Uiso   1.00
O39    O     0.13909   0.18245   0.72314   0.00000  Uiso   1.00
O40    O     0.96632   0.47744   0.28042   0.00000  Uiso   1.00
N41    N     0.99618   0.82390   0.99302   0.00000  Uiso   1.00
N42    N     0.13327   0.40541   0.61690   0.00000  Uiso   1.00
N43    N     0.72277   0.32821   0.30144   0.00000  Uiso   1.00
N44    N     0.12946   0.73865   0.95290   0.00000  Uiso   1.00
N45    N     0.26654   0.32017   0.57677   0.00000  Uiso   1.00
N46    N     0.85605   0.24297   0.26132   0.00000  Uiso   1.00
C47    C     0.72765   0.13993   0.69274   0.00000  Uiso   1.00
C48    C     0.77118   0.17071   0.78915   0.00000  Uiso   1.00
C49    C     0.88202   0.14913   0.84786   0.00000  Uiso   1.00
C50    C     0.90477   0.18396   0.93322   0.00000  Uiso   1.00
C51    C     0.98535   0.22354   0.07900   0.00000  Uiso   1.00
C52    C     0.73341   0.28607   0.61721   0.00000  Uiso   1.00
C53    C     0.81250   0.36146   0.53135   0.00000  Uiso   1.00
C54    C     0.80344   0.49339   0.47196   0.00000  Uiso   1.00
C55    C     0.82531   0.71201   0.35078   0.00000  Uiso   1.00
C56    C     0.57096   0.03174   0.70417   0.00000  Uiso   1.00
C57    C     0.51343   0.89329   0.69140   0.00000  Uiso   1.00
C58    C     0.36758   0.81111   0.70519   0.00000  Uiso   1.00
C59    C     0.13722   0.63484   0.71902   0.00000  Uiso   1.00
C60    C     0.57091   0.24018   0.73992   0.00000  Uiso   1.00
C61    C     0.68604   0.22517   0.81478   0.00000  Uiso   1.00
C62    C     0.70862   0.26004   0.90007   0.00000  Uiso   1.00
C63    C     0.81948   0.23850   0.95889   0.00000  Uiso   1.00
C64    C     0.64829   0.34052   0.64284   0.00000  Uiso   1.00
C65    C     0.63909   0.47237   0.58356   0.00000  Uiso   1.00
C66    C     0.71815   0.54794   0.49764   0.00000  Uiso   1.00
C67    C     0.48582   0.08619   0.72980   0.00000  Uiso   1.00
C68    C     0.34003   0.00421   0.74361   0.00000  Uiso   1.00
C69    C     0.28230   0.86566   0.73087   0.00000  Uiso   1.00
H70    H     0.79393   0.09755   0.67278   0.00000  Uiso   1.00
H71    H     0.94789   0.10700   0.82800   0.00000  Uiso   1.00
H72    H     0.87836   0.31928   0.51154   0.00000  Uiso   1.00
H73    H     0.57935   0.85119   0.67156   0.00000  Uiso   1.00
H74    H     0.08108   0.14154   0.01138   0.00000  Uiso   1.00
H75    H     0.93443   0.58913   0.34408   0.00000  Uiso   1.00
H76    H     0.30390   0.60207   0.68152   0.00000  Uiso   1.00
H77    H     0.50463   0.28258   0.75987   0.00000  Uiso   1.00
H78    H     0.64272   0.30218   0.91988   0.00000  Uiso   1.00
H79    H     0.57320   0.51447   0.60341   0.00000  Uiso   1.00
H80    H     0.27418   0.04638   0.76344   0.00000  Uiso   1.00
H81    H     0.83340   0.29996   0.08595   0.00000  Uiso   1.00
H82    H     0.68675   0.74755   0.41865   0.00000  Uiso   1.00
H83    H     0.05622   0.76049   0.75609   0.00000  Uiso   1.00
O84    O     0.05333   0.23035   0.15233   0.00000  Uiso   1.00
O85    O     0.86091   0.81755   0.27686   0.00000  Uiso   1.00
O86    O     0.03368   0.52256   0.71958   0.00000  Uiso   1.00
N87    N     0.00382   0.17610   0.00698   0.00000  Uiso   1.00
N88    N     0.86673   0.59459   0.38310   0.00000  Uiso   1.00
N89    N     0.27723   0.67179   0.69856   0.00000  Uiso   1.00
N90    N     0.87054   0.26135   0.04710   0.00000  Uiso   1.00
N91    N     0.73346   0.67983   0.42323   0.00000  Uiso   1.00
N92    N     0.14395   0.75703   0.73868   0.00000  Uiso   1.00
