data_job_02779
_audit_creation_date              2018-12-19
_audit_creation_method            'Materials Studio'
_symmetry_space_group_name_H-M    'P1'
_symmetry_Int_Tables_number       1
_symmetry_cell_setting            triclinic
loop_
_symmetry_equiv_pos_as_xyz
  x,y,z
_cell_length_a                    30.3327
_cell_length_b                    9.6984
_cell_length_c                    16.2522
_cell_angle_alpha                 90.0000
_cell_angle_beta                  90.0000
_cell_angle_gamma                 90.0000
loop_
_atom_site_label
_atom_site_type_symbol
_atom_site_fract_x
_atom_site_fract_y
_atom_site_fract_z
_atom_site_U_iso_or_equiv
_atom_site_adp_type
_atom_site_occupancy
C1     C     0.62823   0.46999   0.30275   0.00000  Uiso   1.00
C2     C     0.60290   0.33455   0.30880   0.00000  Uiso   1.00
C3     C     0.57392   0.29839   0.37124   0.00000  Uiso   1.00
C4     C     0.55403   0.16979   0.36558   0.00000  Uiso   1.00
C5     C     0.51337   0.97302   0.38499   0.00000  Uiso   1.00
C6     C     0.67682   0.43077   0.29688   0.00000  Uiso   1.00
C7     C     0.70998   0.47552   0.34930   0.00000  Uiso   1.00
C8     C     0.75232   0.42794   0.33360   0.00000  Uiso   1.00
C9     C     0.82643   0.38063   0.33447   0.00000  Uiso   1.00
C10    C     0.61611   0.53219   0.21961   0.00000  Uiso   1.00
C11    C     0.59825   0.66224   0.20705   0.00000  Uiso   1.00
C12    C     0.58949   0.70006   0.12629   0.00000  Uiso   1.00
C13    C     0.56934   0.81023   0.00719   0.00000  Uiso   1.00
C14    C     0.64447   0.30592   0.18166   0.00000  Uiso   1.00
C15    C     0.61172   0.24544   0.24302   0.00000  Uiso   1.00
C16    C     0.59187   0.11687   0.23726   0.00000  Uiso   1.00
C17    C     0.56286   0.08052   0.29968   0.00000  Uiso   1.00
C18    C     0.68563   0.34166   0.23111   0.00000  Uiso   1.00
C19    C     0.72794   0.29400   0.21532   0.00000  Uiso   1.00
C20    C     0.76116   0.33866   0.26770   0.00000  Uiso   1.00
C21    C     0.62493   0.44308   0.15383   0.00000  Uiso   1.00
C22    C     0.61620   0.48071   0.07307   0.00000  Uiso   1.00
C23    C     0.59832   0.61079   0.06040   0.00000  Uiso   1.00
H24    H     0.62137   0.53937   0.35396   0.00000  Uiso   1.00
H25    H     0.56710   0.36738   0.42214   0.00000  Uiso   1.00
H26    H     0.70315   0.54450   0.40019   0.00000  Uiso   1.00
H27    H     0.59143   0.73117   0.25797   0.00000  Uiso   1.00
H28    H     0.51084   0.13737   0.46873   0.00000  Uiso   1.00
H29    H     0.79770   0.51088   0.42244   0.00000  Uiso   1.00
H30    H     0.56212   0.90453   0.12253   0.00000  Uiso   1.00
H31    H     0.65133   0.23654   0.13045   0.00000  Uiso   1.00
H32    H     0.59870   0.04792   0.18635   0.00000  Uiso   1.00
H33    H     0.73475   0.22505   0.16441   0.00000  Uiso   1.00
H34    H     0.62303   0.41173   0.02219   0.00000  Uiso   1.00
H35    H     0.53648   0.87809   0.27736   0.00000  Uiso   1.00
H36    H     0.82335   0.25160   0.23107   0.00000  Uiso   1.00
H37    H     0.58776   0.64525   0.93116   0.00000  Uiso   1.00
O38    O     0.48851   0.88910   0.41387   0.00000  Uiso   1.00
O39    O     0.86486   0.37915   0.35313   0.00000  Uiso   1.00
O40    O     0.55578   0.89561   0.95966   0.00000  Uiso   1.00
N41    N     0.52409   0.10225   0.41601   0.00000  Uiso   1.00
N42    N     0.79229   0.45143   0.37274   0.00000  Uiso   1.00
N43    N     0.57205   0.81948   0.09235   0.00000  Uiso   1.00
N44    N     0.53789   0.96273   0.31303   0.00000  Uiso   1.00
N45    N     0.80609   0.31192   0.26976   0.00000  Uiso   1.00
N46    N     0.58585   0.67997   0.98938   0.00000  Uiso   1.00
C47    C     0.87177   0.53001   0.80275   0.00000  Uiso   1.00
C48    C     0.89710   0.66545   0.80880   0.00000  Uiso   1.00
C49    C     0.92608   0.70161   0.87124   0.00000  Uiso   1.00
C50    C     0.94597   0.83021   0.86558   0.00000  Uiso   1.00
C51    C     0.98663   0.02698   0.88499   0.00000  Uiso   1.00
C52    C     0.82318   0.56923   0.79688   0.00000  Uiso   1.00
C53    C     0.79002   0.52448   0.84930   0.00000  Uiso   1.00
C54    C     0.74768   0.57206   0.83360   0.00000  Uiso   1.00
C55    C     0.67357   0.61937   0.83447   0.00000  Uiso   1.00
C56    C     0.88389   0.46781   0.71961   0.00000  Uiso   1.00
C57    C     0.90175   0.33776   0.70705   0.00000  Uiso   1.00
C58    C     0.91051   0.29994   0.62629   0.00000  Uiso   1.00
C59    C     0.93066   0.18977   0.50719   0.00000  Uiso   1.00
C60    C     0.85553   0.69408   0.68166   0.00000  Uiso   1.00
C61    C     0.88828   0.75456   0.74302   0.00000  Uiso   1.00
C62    C     0.90813   0.88313   0.73726   0.00000  Uiso   1.00
C63    C     0.93714   0.91948   0.79968   0.00000  Uiso   1.00
C64    C     0.81437   0.65834   0.73111   0.00000  Uiso   1.00
C65    C     0.77206   0.70600   0.71532   0.00000  Uiso   1.00
C66    C     0.73884   0.66134   0.76770   0.00000  Uiso   1.00
C67    C     0.87507   0.55692   0.65383   0.00000  Uiso   1.00
C68    C     0.88380   0.51929   0.57307   0.00000  Uiso   1.00
C69    C     0.90168   0.38921   0.56040   0.00000  Uiso   1.00
H70    H     0.87863   0.46063   0.85396   0.00000  Uiso   1.00
H71    H     0.93290   0.63262   0.92214   0.00000  Uiso   1.00
H72    H     0.79685   0.45550   0.90019   0.00000  Uiso   1.00
H73    H     0.90857   0.26883   0.75797   0.00000  Uiso   1.00
H74    H     0.98916   0.86263   0.96873   0.00000  Uiso   1.00
H75    H     0.70230   0.48912   0.92244   0.00000  Uiso   1.00
H76    H     0.93788   0.09547   0.62253   0.00000  Uiso   1.00
H77    H     0.84867   0.76346   0.63045   0.00000  Uiso   1.00
H78    H     0.90130   0.95208   0.68635   0.00000  Uiso   1.00
H79    H     0.76525   0.77495   0.66441   0.00000  Uiso   1.00
H80    H     0.87697   0.58827   0.52219   0.00000  Uiso   1.00
H81    H     0.96352   0.12191   0.77736   0.00000  Uiso   1.00
H82    H     0.67665   0.74840   0.73107   0.00000  Uiso   1.00
H83    H     0.91224   0.35475   0.43116   0.00000  Uiso   1.00
O84    O     0.01149   0.11090   0.91387   0.00000  Uiso   1.00
O85    O     0.63514   0.62085   0.85313   0.00000  Uiso   1.00
O86    O     0.94422   0.10439   0.45966   0.00000  Uiso   1.00
N87    N     0.97591   0.89775   0.91601   0.00000  Uiso   1.00
N88    N     0.70771   0.54857   0.87274   0.00000  Uiso   1.00
N89    N     0.92795   0.18052   0.59235   0.00000  Uiso   1.00
N90    N     0.96211   0.03727   0.81303   0.00000  Uiso   1.00
N91    N     0.69391   0.68808   0.76976   0.00000  Uiso   1.00
N92    N     0.91415   0.32003   0.48938   0.00000  Uiso   1.00
C93    C     0.37177   0.96999   0.19725   0.00000  Uiso   1.00
C94    C     0.39710   0.83455   0.19120   0.00000  Uiso   1.00
C95    C     0.42608   0.79839   0.12876   0.00000  Uiso   1.00
C96    C     0.44597   0.66979   0.13442   0.00000  Uiso   1.00
C97    C     0.48663   0.47302   0.11501   0.00000  Uiso   1.00
C98    C     0.32318   0.93077   0.20312   0.00000  Uiso   1.00
C99    C     0.29002   0.97552   0.15070   0.00000  Uiso   1.00
C100   C     0.24768   0.92794   0.16640   0.00000  Uiso   1.00
C101   C     0.17357   0.88063   0.16553   0.00000  Uiso   1.00
C102   C     0.38389   0.03219   0.28039   0.00000  Uiso   1.00
C103   C     0.40175   0.16224   0.29295   0.00000  Uiso   1.00
C104   C     0.41051   0.20006   0.37371   0.00000  Uiso   1.00
C105   C     0.43066   0.31023   0.49281   0.00000  Uiso   1.00
C106   C     0.35553   0.80592   0.31834   0.00000  Uiso   1.00
C107   C     0.38828   0.74544   0.25698   0.00000  Uiso   1.00
C108   C     0.40813   0.61687   0.26274   0.00000  Uiso   1.00
C109   C     0.43714   0.58052   0.20032   0.00000  Uiso   1.00
C110   C     0.31437   0.84166   0.26889   0.00000  Uiso   1.00
C111   C     0.27206   0.79400   0.28468   0.00000  Uiso   1.00
C112   C     0.23884   0.83866   0.23230   0.00000  Uiso   1.00
C113   C     0.37507   0.94308   0.34617   0.00000  Uiso   1.00
C114   C     0.38380   0.98071   0.42693   0.00000  Uiso   1.00
C115   C     0.40168   0.11079   0.43960   0.00000  Uiso   1.00
H116   H     0.37863   0.03937   0.14604   0.00000  Uiso   1.00
H117   H     0.43290   0.86738   0.07786   0.00000  Uiso   1.00
H118   H     0.29685   0.04450   0.09981   0.00000  Uiso   1.00
H119   H     0.40857   0.23117   0.24203   0.00000  Uiso   1.00
H120   H     0.48916   0.63737   0.03127   0.00000  Uiso   1.00
H121   H     0.20230   0.01088   0.07756   0.00000  Uiso   1.00
H122   H     0.43788   0.40453   0.37747   0.00000  Uiso   1.00
H123   H     0.34867   0.73654   0.36955   0.00000  Uiso   1.00
H124   H     0.40130   0.54792   0.31365   0.00000  Uiso   1.00
H125   H     0.26525   0.72505   0.33559   0.00000  Uiso   1.00
H126   H     0.37697   0.91173   0.47781   0.00000  Uiso   1.00
H127   H     0.46352   0.37809   0.22264   0.00000  Uiso   1.00
H128   H     0.17665   0.75160   0.26893   0.00000  Uiso   1.00
H129   H     0.41224   0.14525   0.56884   0.00000  Uiso   1.00
O130   O     0.51149   0.38910   0.08613   0.00000  Uiso   1.00
O131   O     0.13514   0.87915   0.14687   0.00000  Uiso   1.00
O132   O     0.44422   0.39561   0.54034   0.00000  Uiso   1.00
N133   N     0.47591   0.60225   0.08399   0.00000  Uiso   1.00
N134   N     0.20771   0.95143   0.12726   0.00000  Uiso   1.00
N135   N     0.42795   0.31948   0.40765   0.00000  Uiso   1.00
N136   N     0.46211   0.46273   0.18697   0.00000  Uiso   1.00
N137   N     0.19391   0.81192   0.23024   0.00000  Uiso   1.00
N138   N     0.41415   0.17997   0.51062   0.00000  Uiso   1.00
C139   C     0.12823   0.03001   0.69725   0.00000  Uiso   1.00
C140   C     0.10290   0.16545   0.69120   0.00000  Uiso   1.00
C141   C     0.07392   0.20161   0.62876   0.00000  Uiso   1.00
C142   C     0.05403   0.33021   0.63442   0.00000  Uiso   1.00
C143   C     0.01337   0.52698   0.61501   0.00000  Uiso   1.00
C144   C     0.17682   0.06923   0.70312   0.00000  Uiso   1.00
C145   C     0.20998   0.02448   0.65070   0.00000  Uiso   1.00
C146   C     0.25232   0.07206   0.66640   0.00000  Uiso   1.00
C147   C     0.32643   0.11937   0.66553   0.00000  Uiso   1.00
C148   C     0.11611   0.96781   0.78039   0.00000  Uiso   1.00
C149   C     0.09825   0.83776   0.79295   0.00000  Uiso   1.00
C150   C     0.08949   0.79994   0.87371   0.00000  Uiso   1.00
C151   C     0.06934   0.68977   0.99281   0.00000  Uiso   1.00
C152   C     0.14447   0.19408   0.81834   0.00000  Uiso   1.00
C153   C     0.11172   0.25456   0.75698   0.00000  Uiso   1.00
C154   C     0.09187   0.38313   0.76274   0.00000  Uiso   1.00
C155   C     0.06286   0.41948   0.70032   0.00000  Uiso   1.00
C156   C     0.18563   0.15834   0.76889   0.00000  Uiso   1.00
C157   C     0.22794   0.20600   0.78468   0.00000  Uiso   1.00
C158   C     0.26116   0.16134   0.73230   0.00000  Uiso   1.00
C159   C     0.12493   0.05692   0.84617   0.00000  Uiso   1.00
C160   C     0.11620   0.01929   0.92693   0.00000  Uiso   1.00
C161   C     0.09832   0.88921   0.93960   0.00000  Uiso   1.00
H162   H     0.12137   0.96063   0.64604   0.00000  Uiso   1.00
H163   H     0.06710   0.13262   0.57786   0.00000  Uiso   1.00
H164   H     0.20315   0.95550   0.59981   0.00000  Uiso   1.00
H165   H     0.09143   0.76883   0.74203   0.00000  Uiso   1.00
H166   H     0.01084   0.36263   0.53127   0.00000  Uiso   1.00
H167   H     0.29770   0.98912   0.57756   0.00000  Uiso   1.00
H168   H     0.06212   0.59547   0.87747   0.00000  Uiso   1.00
H169   H     0.15133   0.26346   0.86955   0.00000  Uiso   1.00
H170   H     0.09870   0.45208   0.81365   0.00000  Uiso   1.00
H171   H     0.23475   0.27495   0.83559   0.00000  Uiso   1.00
H172   H     0.12303   0.08827   0.97781   0.00000  Uiso   1.00
H173   H     0.03648   0.62191   0.72264   0.00000  Uiso   1.00
H174   H     0.32335   0.24840   0.76893   0.00000  Uiso   1.00
H175   H     0.08776   0.85475   0.06884   0.00000  Uiso   1.00
O176   O     0.98851   0.61090   0.58613   0.00000  Uiso   1.00
O177   O     0.36486   0.12085   0.64687   0.00000  Uiso   1.00
O178   O     0.05578   0.60439   0.04034   0.00000  Uiso   1.00
N179   N     0.02409   0.39775   0.58399   0.00000  Uiso   1.00
N180   N     0.29229   0.04857   0.62726   0.00000  Uiso   1.00
N181   N     0.07205   0.68052   0.90765   0.00000  Uiso   1.00
N182   N     0.03789   0.53727   0.68697   0.00000  Uiso   1.00
N183   N     0.30609   0.18808   0.73024   0.00000  Uiso   1.00
N184   N     0.08585   0.82003   0.01062   0.00000  Uiso   1.00
C185   C     0.37177   0.53001   0.69725   0.00000  Uiso   1.00
C186   C     0.39710   0.66545   0.69120   0.00000  Uiso   1.00
C187   C     0.42608   0.70161   0.62876   0.00000  Uiso   1.00
C188   C     0.44597   0.83021   0.63442   0.00000  Uiso   1.00
C189   C     0.48663   0.02698   0.61501   0.00000  Uiso   1.00
C190   C     0.32318   0.56923   0.70312   0.00000  Uiso   1.00
C191   C     0.29002   0.52448   0.65070   0.00000  Uiso   1.00
C192   C     0.24768   0.57206   0.66640   0.00000  Uiso   1.00
C193   C     0.17357   0.61937   0.66553   0.00000  Uiso   1.00
C194   C     0.38389   0.46781   0.78039   0.00000  Uiso   1.00
C195   C     0.40175   0.33776   0.79295   0.00000  Uiso   1.00
C196   C     0.41051   0.29994   0.87371   0.00000  Uiso   1.00
C197   C     0.43066   0.18977   0.99281   0.00000  Uiso   1.00
C198   C     0.35553   0.69408   0.81834   0.00000  Uiso   1.00
C199   C     0.38828   0.75456   0.75698   0.00000  Uiso   1.00
C200   C     0.40813   0.88313   0.76274   0.00000  Uiso   1.00
C201   C     0.43714   0.91948   0.70032   0.00000  Uiso   1.00
C202   C     0.31437   0.65834   0.76889   0.00000  Uiso   1.00
C203   C     0.27206   0.70600   0.78468   0.00000  Uiso   1.00
C204   C     0.23884   0.66134   0.73230   0.00000  Uiso   1.00
C205   C     0.37507   0.55692   0.84617   0.00000  Uiso   1.00
C206   C     0.38380   0.51929   0.92693   0.00000  Uiso   1.00
C207   C     0.40168   0.38921   0.93960   0.00000  Uiso   1.00
H208   H     0.37863   0.46063   0.64604   0.00000  Uiso   1.00
H209   H     0.43290   0.63262   0.57786   0.00000  Uiso   1.00
H210   H     0.29685   0.45550   0.59981   0.00000  Uiso   1.00
H211   H     0.40857   0.26883   0.74203   0.00000  Uiso   1.00
H212   H     0.48916   0.86263   0.53127   0.00000  Uiso   1.00
H213   H     0.20230   0.48912   0.57756   0.00000  Uiso   1.00
H214   H     0.43788   0.09547   0.87747   0.00000  Uiso   1.00
H215   H     0.34867   0.76346   0.86955   0.00000  Uiso   1.00
H216   H     0.40130   0.95208   0.81365   0.00000  Uiso   1.00
H217   H     0.26525   0.77495   0.83559   0.00000  Uiso   1.00
H218   H     0.37697   0.58827   0.97781   0.00000  Uiso   1.00
H219   H     0.46352   0.12191   0.72264   0.00000  Uiso   1.00
H220   H     0.17665   0.74840   0.76893   0.00000  Uiso   1.00
H221   H     0.41224   0.35475   0.06884   0.00000  Uiso   1.00
O222   O     0.51149   0.11090   0.58613   0.00000  Uiso   1.00
O223   O     0.13514   0.62085   0.64687   0.00000  Uiso   1.00
O224   O     0.44422   0.10439   0.04034   0.00000  Uiso   1.00
N225   N     0.47591   0.89775   0.58399   0.00000  Uiso   1.00
N226   N     0.20771   0.54857   0.62726   0.00000  Uiso   1.00
N227   N     0.42795   0.18052   0.90765   0.00000  Uiso   1.00
N228   N     0.46211   0.03727   0.68697   0.00000  Uiso   1.00
N229   N     0.19391   0.68808   0.73024   0.00000  Uiso   1.00
N230   N     0.41415   0.32003   0.01062   0.00000  Uiso   1.00
C231   C     0.12823   0.46999   0.19725   0.00000  Uiso   1.00
C232   C     0.10290   0.33455   0.19120   0.00000  Uiso   1.00
C233   C     0.07392   0.29839   0.12876   0.00000  Uiso   1.00
C234   C     0.05403   0.16979   0.13442   0.00000  Uiso   1.00
C235   C     0.01337   0.97302   0.11501   0.00000  Uiso   1.00
C236   C     0.17682   0.43077   0.20312   0.00000  Uiso   1.00
C237   C     0.20998   0.47552   0.15070   0.00000  Uiso   1.00
C238   C     0.25232   0.42794   0.16640   0.00000  Uiso   1.00
C239   C     0.32643   0.38063   0.16553   0.00000  Uiso   1.00
C240   C     0.11611   0.53219   0.28039   0.00000  Uiso   1.00
C241   C     0.09825   0.66224   0.29295   0.00000  Uiso   1.00
C242   C     0.08949   0.70006   0.37371   0.00000  Uiso   1.00
C243   C     0.06934   0.81023   0.49281   0.00000  Uiso   1.00
C244   C     0.14447   0.30592   0.31834   0.00000  Uiso   1.00
C245   C     0.11172   0.24544   0.25698   0.00000  Uiso   1.00
C246   C     0.09187   0.11687   0.26274   0.00000  Uiso   1.00
C247   C     0.06286   0.08052   0.20032   0.00000  Uiso   1.00
C248   C     0.18563   0.34166   0.26889   0.00000  Uiso   1.00
C249   C     0.22794   0.29400   0.28468   0.00000  Uiso   1.00
C250   C     0.26116   0.33866   0.23230   0.00000  Uiso   1.00
C251   C     0.12493   0.44308   0.34617   0.00000  Uiso   1.00
C252   C     0.11620   0.48071   0.42693   0.00000  Uiso   1.00
C253   C     0.09832   0.61079   0.43960   0.00000  Uiso   1.00
H254   H     0.12137   0.53937   0.14604   0.00000  Uiso   1.00
H255   H     0.06710   0.36738   0.07786   0.00000  Uiso   1.00
H256   H     0.20315   0.54450   0.09981   0.00000  Uiso   1.00
H257   H     0.09143   0.73117   0.24203   0.00000  Uiso   1.00
H258   H     0.01084   0.13737   0.03127   0.00000  Uiso   1.00
H259   H     0.29770   0.51088   0.07756   0.00000  Uiso   1.00
H260   H     0.06212   0.90453   0.37747   0.00000  Uiso   1.00
H261   H     0.15133   0.23654   0.36955   0.00000  Uiso   1.00
H262   H     0.09870   0.04792   0.31365   0.00000  Uiso   1.00
H263   H     0.23475   0.22505   0.33559   0.00000  Uiso   1.00
H264   H     0.12303   0.41173   0.47781   0.00000  Uiso   1.00
H265   H     0.03648   0.87809   0.22264   0.00000  Uiso   1.00
H266   H     0.32335   0.25160   0.26893   0.00000  Uiso   1.00
H267   H     0.08776   0.64525   0.56884   0.00000  Uiso   1.00
O268   O     0.98851   0.88910   0.08613   0.00000  Uiso   1.00
O269   O     0.36486   0.37915   0.14687   0.00000  Uiso   1.00
O270   O     0.05578   0.89561   0.54034   0.00000  Uiso   1.00
N271   N     0.02409   0.10225   0.08399   0.00000  Uiso   1.00
N272   N     0.29229   0.45143   0.12726   0.00000  Uiso   1.00
N273   N     0.07205   0.81948   0.40765   0.00000  Uiso   1.00
N274   N     0.03789   0.96273   0.18697   0.00000  Uiso   1.00
N275   N     0.30609   0.31192   0.23024   0.00000  Uiso   1.00
N276   N     0.08585   0.67997   0.51062   0.00000  Uiso   1.00
C277   C     0.62823   0.03001   0.80275   0.00000  Uiso   1.00
C278   C     0.60290   0.16545   0.80880   0.00000  Uiso   1.00
C279   C     0.57392   0.20161   0.87124   0.00000  Uiso   1.00
C280   C     0.55403   0.33021   0.86558   0.00000  Uiso   1.00
C281   C     0.51337   0.52698   0.88499   0.00000  Uiso   1.00
C282   C     0.67682   0.06923   0.79688   0.00000  Uiso   1.00
C283   C     0.70998   0.02448   0.84930   0.00000  Uiso   1.00
C284   C     0.75232   0.07206   0.83360   0.00000  Uiso   1.00
C285   C     0.82643   0.11937   0.83447   0.00000  Uiso   1.00
C286   C     0.61611   0.96781   0.71961   0.00000  Uiso   1.00
C287   C     0.59825   0.83776   0.70705   0.00000  Uiso   1.00
C288   C     0.58949   0.79994   0.62629   0.00000  Uiso   1.00
C289   C     0.56934   0.68977   0.50719   0.00000  Uiso   1.00
C290   C     0.64447   0.19408   0.68166   0.00000  Uiso   1.00
C291   C     0.61172   0.25456   0.74302   0.00000  Uiso   1.00
C292   C     0.59187   0.38313   0.73726   0.00000  Uiso   1.00
C293   C     0.56286   0.41948   0.79968   0.00000  Uiso   1.00
C294   C     0.68563   0.15834   0.73111   0.00000  Uiso   1.00
C295   C     0.72794   0.20600   0.71532   0.00000  Uiso   1.00
C296   C     0.76116   0.16134   0.76770   0.00000  Uiso   1.00
C297   C     0.62493   0.05692   0.65383   0.00000  Uiso   1.00
C298   C     0.61620   0.01929   0.57307   0.00000  Uiso   1.00
C299   C     0.59832   0.88921   0.56040   0.00000  Uiso   1.00
H300   H     0.62137   0.96063   0.85396   0.00000  Uiso   1.00
H301   H     0.56710   0.13262   0.92214   0.00000  Uiso   1.00
H302   H     0.70315   0.95550   0.90019   0.00000  Uiso   1.00
H303   H     0.59143   0.76883   0.75797   0.00000  Uiso   1.00
H304   H     0.51084   0.36263   0.96873   0.00000  Uiso   1.00
H305   H     0.79770   0.98912   0.92244   0.00000  Uiso   1.00
H306   H     0.56212   0.59547   0.62253   0.00000  Uiso   1.00
H307   H     0.65133   0.26346   0.63045   0.00000  Uiso   1.00
H308   H     0.59870   0.45208   0.68635   0.00000  Uiso   1.00
H309   H     0.73475   0.27495   0.66441   0.00000  Uiso   1.00
H310   H     0.62303   0.08827   0.52219   0.00000  Uiso   1.00
H311   H     0.53648   0.62191   0.77736   0.00000  Uiso   1.00
H312   H     0.82335   0.24840   0.73107   0.00000  Uiso   1.00
H313   H     0.58776   0.85475   0.43116   0.00000  Uiso   1.00
O314   O     0.48851   0.61090   0.91387   0.00000  Uiso   1.00
O315   O     0.86486   0.12085   0.85313   0.00000  Uiso   1.00
O316   O     0.55578   0.60439   0.45966   0.00000  Uiso   1.00
N317   N     0.52409   0.39775   0.91601   0.00000  Uiso   1.00
N318   N     0.79229   0.04857   0.87274   0.00000  Uiso   1.00
N319   N     0.57205   0.68052   0.59235   0.00000  Uiso   1.00
N320   N     0.53789   0.53727   0.81303   0.00000  Uiso   1.00
N321   N     0.80609   0.18808   0.76976   0.00000  Uiso   1.00
N322   N     0.58585   0.82003   0.48938   0.00000  Uiso   1.00
C323   C     0.87177   0.96999   0.30275   0.00000  Uiso   1.00
C324   C     0.89710   0.83455   0.30880   0.00000  Uiso   1.00
C325   C     0.92608   0.79839   0.37124   0.00000  Uiso   1.00
C326   C     0.94597   0.66979   0.36558   0.00000  Uiso   1.00
C327   C     0.98663   0.47302   0.38499   0.00000  Uiso   1.00
C328   C     0.82318   0.93077   0.29688   0.00000  Uiso   1.00
C329   C     0.79002   0.97552   0.34930   0.00000  Uiso   1.00
C330   C     0.74768   0.92794   0.33360   0.00000  Uiso   1.00
C331   C     0.67357   0.88063   0.33447   0.00000  Uiso   1.00
C332   C     0.88389   0.03219   0.21961   0.00000  Uiso   1.00
C333   C     0.90175   0.16224   0.20705   0.00000  Uiso   1.00
C334   C     0.91051   0.20006   0.12629   0.00000  Uiso   1.00
C335   C     0.93066   0.31023   0.00719   0.00000  Uiso   1.00
C336   C     0.85553   0.80592   0.18166   0.00000  Uiso   1.00
C337   C     0.88828   0.74544   0.24302   0.00000  Uiso   1.00
C338   C     0.90813   0.61687   0.23726   0.00000  Uiso   1.00
C339   C     0.93714   0.58052   0.29968   0.00000  Uiso   1.00
C340   C     0.81437   0.84166   0.23111   0.00000  Uiso   1.00
C341   C     0.77206   0.79400   0.21532   0.00000  Uiso   1.00
C342   C     0.73884   0.83866   0.26770   0.00000  Uiso   1.00
C343   C     0.87507   0.94308   0.15383   0.00000  Uiso   1.00
C344   C     0.88380   0.98071   0.07307   0.00000  Uiso   1.00
C345   C     0.90168   0.11079   0.06040   0.00000  Uiso   1.00
H346   H     0.87863   0.03937   0.35396   0.00000  Uiso   1.00
H347   H     0.93290   0.86738   0.42214   0.00000  Uiso   1.00
H348   H     0.79685   0.04450   0.40019   0.00000  Uiso   1.00
H349   H     0.90857   0.23117   0.25797   0.00000  Uiso   1.00
H350   H     0.98916   0.63737   0.46873   0.00000  Uiso   1.00
H351   H     0.70230   0.01088   0.42244   0.00000  Uiso   1.00
H352   H     0.93788   0.40453   0.12253   0.00000  Uiso   1.00
H353   H     0.84867   0.73654   0.13045   0.00000  Uiso   1.00
H354   H     0.90130   0.54792   0.18635   0.00000  Uiso   1.00
H355   H     0.76525   0.72505   0.16441   0.00000  Uiso   1.00
H356   H     0.87697   0.91173   0.02219   0.00000  Uiso   1.00
H357   H     0.96352   0.37809   0.27736   0.00000  Uiso   1.00
H358   H     0.67665   0.75160   0.23107   0.00000  Uiso   1.00
H359   H     0.91224   0.14525   0.93116   0.00000  Uiso   1.00
O360   O     0.01149   0.38910   0.41387   0.00000  Uiso   1.00
O361   O     0.63514   0.87915   0.35313   0.00000  Uiso   1.00
O362   O     0.94422   0.39561   0.95966   0.00000  Uiso   1.00
N363   N     0.97591   0.60225   0.41601   0.00000  Uiso   1.00
N364   N     0.70771   0.95143   0.37274   0.00000  Uiso   1.00
N365   N     0.92795   0.31948   0.09235   0.00000  Uiso   1.00
N366   N     0.96211   0.46273   0.31303   0.00000  Uiso   1.00
N367   N     0.69391   0.81192   0.26976   0.00000  Uiso   1.00
N368   N     0.91415   0.17997   0.98938   0.00000  Uiso   1.00
