data_job_03947
_audit_creation_date              2018-12-19
_audit_creation_method            'Materials Studio'
_symmetry_space_group_name_H-M    'P1'
_symmetry_Int_Tables_number       1
_symmetry_cell_setting            triclinic
loop_
_symmetry_equiv_pos_as_xyz
  x,y,z
_cell_length_a                    11.5975
_cell_length_b                    21.7093
_cell_length_c                    20.2006
_cell_angle_alpha                 90.0000
_cell_angle_beta                  137.1419
_cell_angle_gamma                 90.0000
loop_
_atom_site_label
_atom_site_type_symbol
_atom_site_fract_x
_atom_site_fract_y
_atom_site_fract_z
_atom_site_U_iso_or_equiv
_atom_site_adp_type
_atom_site_occupancy
C1     C     0.93226   0.18800   0.62225   0.00000  Uiso   1.00
C2     C     0.00093   0.14327   0.59950   0.00000  Uiso   1.00
C3     C     0.13061   0.10106   0.66395   0.00000  Uiso   1.00
C4     C     0.17496   0.06427   0.62914   0.00000  Uiso   1.00
C5     C     0.29420   0.99402   0.60840   0.00000  Uiso   1.00
C6     C     0.94927   0.25209   0.59923   0.00000  Uiso   1.00
C7     C     0.03551   0.30138   0.66346   0.00000  Uiso   1.00
C8     C     0.03635   0.35620   0.62841   0.00000  Uiso   1.00
C9     C     0.07529   0.45491   0.60724   0.00000  Uiso   1.00
C10    C     0.74252   0.17531   0.54711   0.00000  Uiso   1.00
C11    C     0.65488   0.16006   0.56751   0.00000  Uiso   1.00
C12    C     0.48164   0.15025   0.48857   0.00000  Uiso   1.00
C13    C     0.19955   0.12976   0.38647   0.00000  Uiso   1.00
C14    C     0.78040   0.19771   0.44581   0.00000  Uiso   1.00
C15    C     0.91845   0.14854   0.50366   0.00000  Uiso   1.00
C16    C     0.96261   0.11180   0.46874   0.00000  Uiso   1.00
C17    C     0.09233   0.06955   0.53312   0.00000  Uiso   1.00
C18    C     0.86680   0.25737   0.50340   0.00000  Uiso   1.00
C19    C     0.86750   0.31212   0.46824   0.00000  Uiso   1.00
C20    C     0.95372   0.36148   0.53240   0.00000  Uiso   1.00
C21    C     0.66003   0.18059   0.45127   0.00000  Uiso   1.00
C22    C     0.48689   0.17081   0.37229   0.00000  Uiso   1.00
C23    C     0.39901   0.15554   0.39256   0.00000  Uiso   1.00
H24    H     0.99647   0.18390   0.69687   0.00000  Uiso   1.00
H25    H     0.19442   0.09699   0.73812   0.00000  Uiso   1.00
H26    H     0.09931   0.29728   0.73762   0.00000  Uiso   1.00
H27    H     0.71875   0.15599   0.64168   0.00000  Uiso   1.00
H28    H     0.37755   0.00298   0.74160   0.00000  Uiso   1.00
H29    H     0.17696   0.42531   0.74053   0.00000  Uiso   1.00
H30    H     0.37448   0.12736   0.53823   0.00000  Uiso   1.00
H31    H     0.71619   0.20182   0.37119   0.00000  Uiso   1.00
H32    H     0.89876   0.11590   0.39457   0.00000  Uiso   1.00
H33    H     0.80365   0.31619   0.39407   0.00000  Uiso   1.00
H34    H     0.42310   0.17489   0.29813   0.00000  Uiso   1.00
H35    H     0.13759   0.01833   0.46276   0.00000  Uiso   1.00
H36    H     0.93699   0.44066   0.46170   0.00000  Uiso   1.00
H37    H     0.13452   0.14271   0.25940   0.00000  Uiso   1.00
O38    O     0.38277   0.95382   0.62344   0.00000  Uiso   1.00
O39    O     0.11957   0.50791   0.62204   0.00000  Uiso   1.00
O40    O     0.06675   0.11700   0.35663   0.00000  Uiso   1.00
N41    N     0.29600   0.01838   0.67276   0.00000  Uiso   1.00
N42    N     0.10848   0.41323   0.67177   0.00000  Uiso   1.00
N43    N     0.35822   0.13469   0.48264   0.00000  Uiso   1.00
N44    N     0.16687   0.02663   0.52272   0.00000  Uiso   1.00
N45    N     0.97936   0.42149   0.52173   0.00000  Uiso   1.00
N46    N     0.22910   0.14294   0.33260   0.00000  Uiso   1.00
C47    C     0.06916   0.19249   0.87798   0.00000  Uiso   1.00
C48    C     0.99693   0.14986   0.90054   0.00000  Uiso   1.00
C49    C     0.86400   0.10877   0.83593   0.00000  Uiso   1.00
C50    C     0.81670   0.07386   0.87058   0.00000  Uiso   1.00
C51    C     0.69190   0.00677   0.89101   0.00000  Uiso   1.00
C52    C     0.05713   0.25749   0.90115   0.00000  Uiso   1.00
C53    C     0.97485   0.30691   0.83706   0.00000  Uiso   1.00
C54    C     0.97826   0.36261   0.87223   0.00000  Uiso   1.00
C55    C     0.94704   0.46264   0.89362   0.00000  Uiso   1.00
C56    C     0.25783   0.17772   0.95316   0.00000  Uiso   1.00
C57    C     0.34430   0.16008   0.93281   0.00000  Uiso   1.00
C58    C     0.51670   0.14864   0.01177   0.00000  Uiso   1.00
C59    C     0.79709   0.12481   0.11393   0.00000  Uiso   1.00
C60    C     0.22155   0.20357   0.05440   0.00000  Uiso   1.00
C61    C     0.07971   0.15588   0.99636   0.00000  Uiso   1.00
C62    C     0.03261   0.12103   0.03112   0.00000  Uiso   1.00
C63    C     0.89963   0.07989   0.96658   0.00000  Uiso   1.00
C64    C     0.13991   0.26352   0.99697   0.00000  Uiso   1.00
C65    C     0.14346   0.31917   0.03224   0.00000  Uiso   1.00
C66    C     0.06118   0.36865   0.96822   0.00000  Uiso   1.00
C67    C     0.34061   0.18374   0.04899   0.00000  Uiso   1.00
C68    C     0.51291   0.17233   0.12799   0.00000  Uiso   1.00
C69    C     0.59963   0.15467   0.10777   0.00000  Uiso   1.00
H70    H     0.00471   0.18781   0.80338   0.00000  Uiso   1.00
H71    H     0.79996   0.10413   0.76178   0.00000  Uiso   1.00
H72    H     0.91081   0.30223   0.76291   0.00000  Uiso   1.00
H73    H     0.28020   0.15542   0.85865   0.00000  Uiso   1.00
H74    H     0.60942   0.01402   0.75790   0.00000  Uiso   1.00
H75    H     0.84320   0.43175   0.76030   0.00000  Uiso   1.00
H76    H     0.62215   0.12217   0.96218   0.00000  Uiso   1.00
H77    H     0.28600   0.20826   0.12901   0.00000  Uiso   1.00
H78    H     0.09669   0.12570   0.10527   0.00000  Uiso   1.00
H79    H     0.20753   0.32381   0.10640   0.00000  Uiso   1.00
H80    H     0.57692   0.17700   0.20214   0.00000  Uiso   1.00
H81    H     0.85025   0.03153   0.03669   0.00000  Uiso   1.00
H82    H     0.08404   0.44926   0.03909   0.00000  Uiso   1.00
H83    H     0.86297   0.13968   0.24097   0.00000  Uiso   1.00
O84    O     0.60019   0.96811   0.87580   0.00000  Uiso   1.00
O85    O     0.90693   0.51615   0.87894   0.00000  Uiso   1.00
O86    O     0.92887   0.10999   0.14380   0.00000  Uiso   1.00
N87    N     0.69210   0.02946   0.82678   0.00000  Uiso   1.00
N88    N     0.91065   0.42001   0.82901   0.00000  Uiso   1.00
N89    N     0.63891   0.13060   0.01775   0.00000  Uiso   1.00
N90    N     0.82169   0.03888   0.97680   0.00000  Uiso   1.00
N91    N     0.04024   0.42943   0.97903   0.00000  Uiso   1.00
N92    N     0.76850   0.14002   0.16777   0.00000  Uiso   1.00
C93    C     0.93226   0.81200   0.12225   0.00000  Uiso   1.00
C94    C     0.00093   0.85673   0.09950   0.00000  Uiso   1.00
C95    C     0.13061   0.89894   0.16395   0.00000  Uiso   1.00
C96    C     0.17496   0.93573   0.12914   0.00000  Uiso   1.00
C97    C     0.29420   0.00598   0.10840   0.00000  Uiso   1.00
C98    C     0.94927   0.74791   0.09923   0.00000  Uiso   1.00
C99    C     0.03551   0.69862   0.16346   0.00000  Uiso   1.00
C100   C     0.03635   0.64380   0.12841   0.00000  Uiso   1.00
C101   C     0.07529   0.54509   0.10724   0.00000  Uiso   1.00
C102   C     0.74252   0.82469   0.04711   0.00000  Uiso   1.00
C103   C     0.65488   0.83994   0.06751   0.00000  Uiso   1.00
C104   C     0.48164   0.84975   0.98857   0.00000  Uiso   1.00
C105   C     0.19955   0.87024   0.88647   0.00000  Uiso   1.00
C106   C     0.78040   0.80229   0.94581   0.00000  Uiso   1.00
C107   C     0.91845   0.85146   0.00366   0.00000  Uiso   1.00
C108   C     0.96261   0.88820   0.96874   0.00000  Uiso   1.00
C109   C     0.09233   0.93045   0.03312   0.00000  Uiso   1.00
C110   C     0.86680   0.74263   0.00340   0.00000  Uiso   1.00
C111   C     0.86750   0.68788   0.96824   0.00000  Uiso   1.00
C112   C     0.95372   0.63852   0.03240   0.00000  Uiso   1.00
C113   C     0.66003   0.81941   0.95127   0.00000  Uiso   1.00
C114   C     0.48689   0.82919   0.87229   0.00000  Uiso   1.00
C115   C     0.39901   0.84446   0.89256   0.00000  Uiso   1.00
H116   H     0.99647   0.81610   0.19687   0.00000  Uiso   1.00
H117   H     0.19442   0.90301   0.23812   0.00000  Uiso   1.00
H118   H     0.09931   0.70272   0.23762   0.00000  Uiso   1.00
H119   H     0.71875   0.84401   0.14168   0.00000  Uiso   1.00
H120   H     0.37755   0.99702   0.24160   0.00000  Uiso   1.00
H121   H     0.17696   0.57469   0.24053   0.00000  Uiso   1.00
H122   H     0.37448   0.87264   0.03823   0.00000  Uiso   1.00
H123   H     0.71619   0.79818   0.87119   0.00000  Uiso   1.00
H124   H     0.89876   0.88410   0.89457   0.00000  Uiso   1.00
H125   H     0.80365   0.68381   0.89407   0.00000  Uiso   1.00
H126   H     0.42310   0.82511   0.79813   0.00000  Uiso   1.00
H127   H     0.13759   0.98167   0.96276   0.00000  Uiso   1.00
H128   H     0.93699   0.55934   0.96170   0.00000  Uiso   1.00
H129   H     0.13452   0.85729   0.75940   0.00000  Uiso   1.00
O130   O     0.38277   0.04618   0.12344   0.00000  Uiso   1.00
O131   O     0.11957   0.49209   0.12204   0.00000  Uiso   1.00
O132   O     0.06675   0.88300   0.85663   0.00000  Uiso   1.00
N133   N     0.29600   0.98162   0.17276   0.00000  Uiso   1.00
N134   N     0.10848   0.58677   0.17177   0.00000  Uiso   1.00
N135   N     0.35822   0.86531   0.98264   0.00000  Uiso   1.00
N136   N     0.16687   0.97337   0.02272   0.00000  Uiso   1.00
N137   N     0.97936   0.57851   0.02173   0.00000  Uiso   1.00
N138   N     0.22910   0.85706   0.83260   0.00000  Uiso   1.00
C139   C     0.06916   0.80751   0.37798   0.00000  Uiso   1.00
C140   C     0.99693   0.85014   0.40054   0.00000  Uiso   1.00
C141   C     0.86400   0.89123   0.33593   0.00000  Uiso   1.00
C142   C     0.81670   0.92614   0.37058   0.00000  Uiso   1.00
C143   C     0.69190   0.99323   0.39101   0.00000  Uiso   1.00
C144   C     0.05713   0.74251   0.40115   0.00000  Uiso   1.00
C145   C     0.97485   0.69309   0.33706   0.00000  Uiso   1.00
C146   C     0.97826   0.63739   0.37223   0.00000  Uiso   1.00
C147   C     0.94704   0.53736   0.39362   0.00000  Uiso   1.00
C148   C     0.25783   0.82228   0.45316   0.00000  Uiso   1.00
C149   C     0.34430   0.83992   0.43281   0.00000  Uiso   1.00
C150   C     0.51670   0.85136   0.51177   0.00000  Uiso   1.00
C151   C     0.79709   0.87519   0.61393   0.00000  Uiso   1.00
C152   C     0.22155   0.79643   0.55440   0.00000  Uiso   1.00
C153   C     0.07971   0.84412   0.49636   0.00000  Uiso   1.00
C154   C     0.03261   0.87897   0.53112   0.00000  Uiso   1.00
C155   C     0.89963   0.92011   0.46658   0.00000  Uiso   1.00
C156   C     0.13991   0.73648   0.49697   0.00000  Uiso   1.00
C157   C     0.14346   0.68083   0.53224   0.00000  Uiso   1.00
C158   C     0.06118   0.63135   0.46822   0.00000  Uiso   1.00
C159   C     0.34061   0.81626   0.54899   0.00000  Uiso   1.00
C160   C     0.51291   0.82767   0.62799   0.00000  Uiso   1.00
C161   C     0.59963   0.84533   0.60777   0.00000  Uiso   1.00
H162   H     0.00471   0.81219   0.30338   0.00000  Uiso   1.00
H163   H     0.79996   0.89587   0.26178   0.00000  Uiso   1.00
H164   H     0.91081   0.69777   0.26291   0.00000  Uiso   1.00
H165   H     0.28020   0.84458   0.35865   0.00000  Uiso   1.00
H166   H     0.60942   0.98598   0.25790   0.00000  Uiso   1.00
H167   H     0.84320   0.56825   0.26030   0.00000  Uiso   1.00
H168   H     0.62215   0.87783   0.46218   0.00000  Uiso   1.00
H169   H     0.28600   0.79174   0.62901   0.00000  Uiso   1.00
H170   H     0.09669   0.87430   0.60527   0.00000  Uiso   1.00
H171   H     0.20753   0.67619   0.60640   0.00000  Uiso   1.00
H172   H     0.57692   0.82300   0.70214   0.00000  Uiso   1.00
H173   H     0.85025   0.96847   0.53669   0.00000  Uiso   1.00
H174   H     0.08404   0.55074   0.53909   0.00000  Uiso   1.00
H175   H     0.86297   0.86032   0.74097   0.00000  Uiso   1.00
O176   O     0.60019   0.03189   0.37580   0.00000  Uiso   1.00
O177   O     0.90693   0.48385   0.37894   0.00000  Uiso   1.00
O178   O     0.92887   0.89001   0.64380   0.00000  Uiso   1.00
N179   N     0.69210   0.97054   0.32678   0.00000  Uiso   1.00
N180   N     0.91065   0.57999   0.32901   0.00000  Uiso   1.00
N181   N     0.63891   0.86940   0.51775   0.00000  Uiso   1.00
N182   N     0.82169   0.96112   0.47680   0.00000  Uiso   1.00
N183   N     0.04024   0.57057   0.47903   0.00000  Uiso   1.00
N184   N     0.76850   0.85998   0.66777   0.00000  Uiso   1.00
