data_job_01025
_audit_creation_date              2018-12-19
_audit_creation_method            'Materials Studio'
_symmetry_space_group_name_H-M    'P1'
_symmetry_Int_Tables_number       1
_symmetry_cell_setting            triclinic
loop_
_symmetry_equiv_pos_as_xyz
  x,y,z
_cell_length_a                    13.9705
_cell_length_b                    13.7691
_cell_length_c                    19.5711
_cell_angle_alpha                 90.0000
_cell_angle_beta                  40.9467
_cell_angle_gamma                 90.0000
loop_
_atom_site_label
_atom_site_type_symbol
_atom_site_fract_x
_atom_site_fract_y
_atom_site_fract_z
_atom_site_U_iso_or_equiv
_atom_site_adp_type
_atom_site_occupancy
C1     C     0.36571   0.41815   0.74496   0.00000  Uiso   1.00
C2     C     0.52256   0.38126   0.66401   0.00000  Uiso   1.00
C3     C     0.57705   0.30030   0.60096   0.00000  Uiso   1.00
C4     C     0.72360   0.27860   0.53189   0.00000  Uiso   1.00
C5     C     0.95364   0.21258   0.40710   0.00000  Uiso   1.00
C6     C     0.31122   0.42215   0.84791   0.00000  Uiso   1.00
C7     C     0.18801   0.37557   0.93949   0.00000  Uiso   1.00
C8     C     0.15665   0.38830   0.02523   0.00000  Uiso   1.00
C9     C     0.05852   0.38582   0.18597   0.00000  Uiso   1.00
C10    C     0.37530   0.52329   0.71573   0.00000  Uiso   1.00
C11    C     0.30592   0.56177   0.69619   0.00000  Uiso   1.00
C12    C     0.32849   0.65966   0.67066   0.00000  Uiso   1.00
C13    C     0.32984   0.81421   0.62617   0.00000  Uiso   1.00
C14    C     0.52910   0.52359   0.73440   0.00000  Uiso   1.00
C15    C     0.61130   0.43853   0.65828   0.00000  Uiso   1.00
C16    C     0.75782   0.41695   0.58927   0.00000  Uiso   1.00
C17    C     0.81251   0.33597   0.52613   0.00000  Uiso   1.00
C18    C     0.39997   0.47942   0.84218   0.00000  Uiso   1.00
C19    C     0.36878   0.49222   0.92780   0.00000  Uiso   1.00
C20    C     0.24555   0.44567   0.01948   0.00000  Uiso   1.00
C21    C     0.46405   0.58056   0.70999   0.00000  Uiso   1.00
C22    C     0.48671   0.67842   0.68449   0.00000  Uiso   1.00
C23    C     0.41739   0.71703   0.66491   0.00000  Uiso   1.00
H24    H     0.29661   0.37357   0.74944   0.00000  Uiso   1.00
H25    H     0.50833   0.25599   0.60543   0.00000  Uiso   1.00
H26    H     0.11934   0.33127   0.94391   0.00000  Uiso   1.00
H27    H     0.23726   0.51743   0.70064   0.00000  Uiso   1.00
H28    H     0.78218   0.15088   0.44328   0.00000  Uiso   1.00
H29    H     0.96196   0.30962   0.15698   0.00000  Uiso   1.00
H30    H     0.21059   0.70218   0.64400   0.00000  Uiso   1.00
H31    H     0.59819   0.56818   0.72993   0.00000  Uiso   1.00
H32    H     0.82647   0.46128   0.58485   0.00000  Uiso   1.00
H33    H     0.43748   0.53655   0.92333   0.00000  Uiso   1.00
H34    H     0.55539   0.72271   0.68006   0.00000  Uiso   1.00
H35    H     0.04040   0.31749   0.42657   0.00000  Uiso   1.00
H36    H     0.22016   0.47623   0.14028   0.00000  Uiso   1.00
H37    H     0.46881   0.86879   0.62730   0.00000  Uiso   1.00
O38    O     0.05600   0.16033   0.33986   0.00000  Uiso   1.00
O39    O     0.97989   0.36861   0.27622   0.00000  Uiso   1.00
O40    O     0.30609   0.88364   0.60320   0.00000  Uiso   1.00
N41    N     0.81163   0.20477   0.45924   0.00000  Uiso   1.00
N42    N     0.04478   0.35317   0.12651   0.00000  Uiso   1.00
N43    N     0.27720   0.72019   0.64694   0.00000  Uiso   1.00
N44    N     0.95058   0.29442   0.45025   0.00000  Uiso   1.00
N45    N     0.18373   0.44283   0.11752   0.00000  Uiso   1.00
N46    N     0.41615   0.80984   0.63795   0.00000  Uiso   1.00
C47    C     0.63429   0.91815   0.75504   0.00000  Uiso   1.00
C48    C     0.47744   0.88126   0.83599   0.00000  Uiso   1.00
C49    C     0.42295   0.80030   0.89904   0.00000  Uiso   1.00
C50    C     0.27640   0.77860   0.96811   0.00000  Uiso   1.00
C51    C     0.04636   0.71258   0.09290   0.00000  Uiso   1.00
C52    C     0.68878   0.92215   0.65209   0.00000  Uiso   1.00
C53    C     0.81199   0.87557   0.56051   0.00000  Uiso   1.00
C54    C     0.84335   0.88830   0.47477   0.00000  Uiso   1.00
C55    C     0.94148   0.88582   0.31403   0.00000  Uiso   1.00
C56    C     0.62470   0.02329   0.78427   0.00000  Uiso   1.00
C57    C     0.69408   0.06177   0.80381   0.00000  Uiso   1.00
C58    C     0.67151   0.15966   0.82934   0.00000  Uiso   1.00
C59    C     0.67016   0.31421   0.87383   0.00000  Uiso   1.00
C60    C     0.47090   0.02359   0.76560   0.00000  Uiso   1.00
C61    C     0.38870   0.93853   0.84172   0.00000  Uiso   1.00
C62    C     0.24218   0.91695   0.91073   0.00000  Uiso   1.00
C63    C     0.18749   0.83597   0.97387   0.00000  Uiso   1.00
C64    C     0.60003   0.97942   0.65782   0.00000  Uiso   1.00
C65    C     0.63122   0.99222   0.57220   0.00000  Uiso   1.00
C66    C     0.75445   0.94567   0.48052   0.00000  Uiso   1.00
C67    C     0.53595   0.08056   0.79001   0.00000  Uiso   1.00
C68    C     0.51329   0.17842   0.81551   0.00000  Uiso   1.00
C69    C     0.58261   0.21703   0.83509   0.00000  Uiso   1.00
H70    H     0.70339   0.87357   0.75056   0.00000  Uiso   1.00
H71    H     0.49167   0.75599   0.89457   0.00000  Uiso   1.00
H72    H     0.88066   0.83127   0.55609   0.00000  Uiso   1.00
H73    H     0.76274   0.01743   0.79936   0.00000  Uiso   1.00
H74    H     0.21782   0.65088   0.05672   0.00000  Uiso   1.00
H75    H     0.03804   0.80962   0.34302   0.00000  Uiso   1.00
H76    H     0.78941   0.20218   0.85600   0.00000  Uiso   1.00
H77    H     0.40181   0.06818   0.77007   0.00000  Uiso   1.00
H78    H     0.17353   0.96128   0.91515   0.00000  Uiso   1.00
H79    H     0.56252   0.03655   0.57667   0.00000  Uiso   1.00
H80    H     0.44461   0.22271   0.81994   0.00000  Uiso   1.00
H81    H     0.95960   0.81749   0.07343   0.00000  Uiso   1.00
H82    H     0.77984   0.97623   0.35972   0.00000  Uiso   1.00
H83    H     0.53119   0.36879   0.87270   0.00000  Uiso   1.00
O84    O     0.94400   0.66033   0.16014   0.00000  Uiso   1.00
O85    O     0.02011   0.86861   0.22378   0.00000  Uiso   1.00
O86    O     0.69391   0.38364   0.89680   0.00000  Uiso   1.00
N87    N     0.18837   0.70477   0.04076   0.00000  Uiso   1.00
N88    N     0.95522   0.85317   0.37349   0.00000  Uiso   1.00
N89    N     0.72280   0.22019   0.85306   0.00000  Uiso   1.00
N90    N     0.04942   0.79442   0.04975   0.00000  Uiso   1.00
N91    N     0.81627   0.94283   0.38248   0.00000  Uiso   1.00
N92    N     0.58385   0.30984   0.86205   0.00000  Uiso   1.00
C93    C     0.63429   0.58185   0.25504   0.00000  Uiso   1.00
C94    C     0.47744   0.61874   0.33599   0.00000  Uiso   1.00
C95    C     0.42295   0.69970   0.39904   0.00000  Uiso   1.00
C96    C     0.27640   0.72140   0.46811   0.00000  Uiso   1.00
C97    C     0.04636   0.78742   0.59290   0.00000  Uiso   1.00
C98    C     0.68878   0.57785   0.15209   0.00000  Uiso   1.00
C99    C     0.81199   0.62443   0.06051   0.00000  Uiso   1.00
C100   C     0.84335   0.61170   0.97477   0.00000  Uiso   1.00
C101   C     0.94148   0.61418   0.81403   0.00000  Uiso   1.00
C102   C     0.62470   0.47671   0.28427   0.00000  Uiso   1.00
C103   C     0.69408   0.43823   0.30381   0.00000  Uiso   1.00
C104   C     0.67151   0.34034   0.32934   0.00000  Uiso   1.00
C105   C     0.67016   0.18579   0.37383   0.00000  Uiso   1.00
C106   C     0.47090   0.47641   0.26560   0.00000  Uiso   1.00
C107   C     0.38870   0.56147   0.34172   0.00000  Uiso   1.00
C108   C     0.24218   0.58305   0.41073   0.00000  Uiso   1.00
C109   C     0.18749   0.66403   0.47387   0.00000  Uiso   1.00
C110   C     0.60003   0.52058   0.15782   0.00000  Uiso   1.00
C111   C     0.63122   0.50778   0.07220   0.00000  Uiso   1.00
C112   C     0.75445   0.55433   0.98052   0.00000  Uiso   1.00
C113   C     0.53595   0.41944   0.29001   0.00000  Uiso   1.00
C114   C     0.51329   0.32158   0.31551   0.00000  Uiso   1.00
C115   C     0.58261   0.28297   0.33509   0.00000  Uiso   1.00
H116   H     0.70339   0.62643   0.25056   0.00000  Uiso   1.00
H117   H     0.49167   0.74401   0.39457   0.00000  Uiso   1.00
H118   H     0.88066   0.66873   0.05609   0.00000  Uiso   1.00
H119   H     0.76274   0.48257   0.29936   0.00000  Uiso   1.00
H120   H     0.21782   0.84912   0.55672   0.00000  Uiso   1.00
H121   H     0.03804   0.69038   0.84302   0.00000  Uiso   1.00
H122   H     0.78941   0.29782   0.35600   0.00000  Uiso   1.00
H123   H     0.40181   0.43182   0.27007   0.00000  Uiso   1.00
H124   H     0.17353   0.53872   0.41515   0.00000  Uiso   1.00
H125   H     0.56252   0.46345   0.07667   0.00000  Uiso   1.00
H126   H     0.44461   0.27729   0.31994   0.00000  Uiso   1.00
H127   H     0.95960   0.68251   0.57343   0.00000  Uiso   1.00
H128   H     0.77984   0.52377   0.85972   0.00000  Uiso   1.00
H129   H     0.53119   0.13121   0.37270   0.00000  Uiso   1.00
O130   O     0.94400   0.83967   0.66014   0.00000  Uiso   1.00
O131   O     0.02011   0.63139   0.72378   0.00000  Uiso   1.00
O132   O     0.69391   0.11636   0.39680   0.00000  Uiso   1.00
N133   N     0.18837   0.79523   0.54076   0.00000  Uiso   1.00
N134   N     0.95522   0.64683   0.87349   0.00000  Uiso   1.00
N135   N     0.72280   0.27981   0.35306   0.00000  Uiso   1.00
N136   N     0.04942   0.70558   0.54975   0.00000  Uiso   1.00
N137   N     0.81627   0.55717   0.88248   0.00000  Uiso   1.00
N138   N     0.58385   0.19016   0.36205   0.00000  Uiso   1.00
C139   C     0.36571   0.08185   0.24496   0.00000  Uiso   1.00
C140   C     0.52256   0.11874   0.16401   0.00000  Uiso   1.00
C141   C     0.57705   0.19970   0.10096   0.00000  Uiso   1.00
C142   C     0.72360   0.22140   0.03189   0.00000  Uiso   1.00
C143   C     0.95364   0.28742   0.90710   0.00000  Uiso   1.00
C144   C     0.31122   0.07785   0.34791   0.00000  Uiso   1.00
C145   C     0.18801   0.12443   0.43949   0.00000  Uiso   1.00
C146   C     0.15665   0.11170   0.52523   0.00000  Uiso   1.00
C147   C     0.05852   0.11418   0.68597   0.00000  Uiso   1.00
C148   C     0.37530   0.97671   0.21573   0.00000  Uiso   1.00
C149   C     0.30592   0.93823   0.19619   0.00000  Uiso   1.00
C150   C     0.32849   0.84034   0.17066   0.00000  Uiso   1.00
C151   C     0.32984   0.68579   0.12617   0.00000  Uiso   1.00
C152   C     0.52910   0.97641   0.23440   0.00000  Uiso   1.00
C153   C     0.61130   0.06147   0.15828   0.00000  Uiso   1.00
C154   C     0.75782   0.08305   0.08927   0.00000  Uiso   1.00
C155   C     0.81251   0.16403   0.02613   0.00000  Uiso   1.00
C156   C     0.39997   0.02058   0.34218   0.00000  Uiso   1.00
C157   C     0.36878   0.00778   0.42780   0.00000  Uiso   1.00
C158   C     0.24555   0.05433   0.51948   0.00000  Uiso   1.00
C159   C     0.46405   0.91944   0.20999   0.00000  Uiso   1.00
C160   C     0.48671   0.82158   0.18449   0.00000  Uiso   1.00
C161   C     0.41739   0.78297   0.16491   0.00000  Uiso   1.00
H162   H     0.29661   0.12643   0.24944   0.00000  Uiso   1.00
H163   H     0.50833   0.24401   0.10543   0.00000  Uiso   1.00
H164   H     0.11934   0.16873   0.44391   0.00000  Uiso   1.00
H165   H     0.23726   0.98257   0.20064   0.00000  Uiso   1.00
H166   H     0.78218   0.34912   0.94328   0.00000  Uiso   1.00
H167   H     0.96196   0.19038   0.65698   0.00000  Uiso   1.00
H168   H     0.21059   0.79782   0.14400   0.00000  Uiso   1.00
H169   H     0.59819   0.93182   0.22993   0.00000  Uiso   1.00
H170   H     0.82647   0.03872   0.08485   0.00000  Uiso   1.00
H171   H     0.43748   0.96345   0.42333   0.00000  Uiso   1.00
H172   H     0.55539   0.77729   0.18006   0.00000  Uiso   1.00
H173   H     0.04040   0.18251   0.92657   0.00000  Uiso   1.00
H174   H     0.22016   0.02377   0.64028   0.00000  Uiso   1.00
H175   H     0.46881   0.63121   0.12730   0.00000  Uiso   1.00
O176   O     0.05600   0.33967   0.83986   0.00000  Uiso   1.00
O177   O     0.97989   0.13139   0.77622   0.00000  Uiso   1.00
O178   O     0.30609   0.61636   0.10320   0.00000  Uiso   1.00
N179   N     0.81163   0.29523   0.95924   0.00000  Uiso   1.00
N180   N     0.04478   0.14683   0.62651   0.00000  Uiso   1.00
N181   N     0.27720   0.77981   0.14694   0.00000  Uiso   1.00
N182   N     0.95058   0.20558   0.95025   0.00000  Uiso   1.00
N183   N     0.18373   0.05717   0.61752   0.00000  Uiso   1.00
N184   N     0.41615   0.69016   0.13795   0.00000  Uiso   1.00
