data_job_00029
_audit_creation_date              2018-12-19
_audit_creation_method            'Materials Studio'
_symmetry_space_group_name_H-M    'P1'
_symmetry_Int_Tables_number       1
_symmetry_cell_setting            triclinic
loop_
_symmetry_equiv_pos_as_xyz
  x,y,z
_cell_length_a                    27.0676
_cell_length_b                    16.0479
_cell_length_c                    10.4183
_cell_angle_alpha                 90.0000
_cell_angle_beta                  90.0000
_cell_angle_gamma                 90.0000
loop_
_atom_site_label
_atom_site_type_symbol
_atom_site_fract_x
_atom_site_fract_y
_atom_site_fract_z
_atom_site_U_iso_or_equiv
_atom_site_adp_type
_atom_site_occupancy
C1     C     0.58260   0.50424   0.20776   0.00000  Uiso   1.00
C2     C     0.61913   0.53523   0.10708   0.00000  Uiso   1.00
C3     C     0.61464   0.52479   0.97536   0.00000  Uiso   1.00
C4     C     0.65200   0.55771   0.89942   0.00000  Uiso   1.00
C5     C     0.70259   0.59943   0.73488   0.00000  Uiso   1.00
C6     C     0.61228   0.44953   0.29928   0.00000  Uiso   1.00
C7     C     0.60203   0.36705   0.32918   0.00000  Uiso   1.00
C8     C     0.63362   0.32783   0.41505   0.00000  Uiso   1.00
C9     C     0.67356   0.23652   0.54898   0.00000  Uiso   1.00
C10    C     0.56733   0.58072   0.28502   0.00000  Uiso   1.00
C11    C     0.51927   0.60854   0.30295   0.00000  Uiso   1.00
C12    C     0.51302   0.67976   0.37685   0.00000  Uiso   1.00
C13    C     0.48316   0.79215   0.48863   0.00000  Uiso   1.00
C14    C     0.65693   0.58125   0.30712   0.00000  Uiso   1.00
C15    C     0.65951   0.57705   0.16105   0.00000  Uiso   1.00
C16    C     0.69688   0.61000   0.08529   0.00000  Uiso   1.00
C17    C     0.69245   0.59962   0.95348   0.00000  Uiso   1.00
C18    C     0.65266   0.49136   0.35325   0.00000  Uiso   1.00
C19    C     0.68427   0.45225   0.43911   0.00000  Uiso   1.00
C20    C     0.67407   0.36973   0.46912   0.00000  Uiso   1.00
C21    C     0.60770   0.62255   0.33898   0.00000  Uiso   1.00
C22    C     0.60152   0.69375   0.41288   0.00000  Uiso   1.00
C23    C     0.55347   0.72167   0.43091   0.00000  Uiso   1.00
H24    H     0.55116   0.47166   0.16575   0.00000  Uiso   1.00
H25    H     0.58339   0.49241   0.93363   0.00000  Uiso   1.00
H26    H     0.57078   0.33469   0.28740   0.00000  Uiso   1.00
H27    H     0.48804   0.57615   0.26117   0.00000  Uiso   1.00
H28    H     0.63693   0.53383   0.70009   0.00000  Uiso   1.00
H29    H     0.61032   0.20129   0.44607   0.00000  Uiso   1.00
H30    H     0.43585   0.71044   0.39077   0.00000  Uiso   1.00
H31    H     0.68837   0.61382   0.34914   0.00000  Uiso   1.00
H32    H     0.72813   0.64237   0.12708   0.00000  Uiso   1.00
H33    H     0.71551   0.48465   0.48086   0.00000  Uiso   1.00
H34    H     0.63277   0.72610   0.45463   0.00000  Uiso   1.00
H35    H     0.75441   0.65554   0.85710   0.00000  Uiso   1.00
H36    H     0.72780   0.32299   0.60309   0.00000  Uiso   1.00
H37    H     0.55333   0.83215   0.54778   0.00000  Uiso   1.00
O38    O     0.71935   0.61088   0.62921   0.00000  Uiso   1.00
O39    O     0.68444   0.17460   0.60793   0.00000  Uiso   1.00
O40    O     0.45554   0.84259   0.53536   0.00000  Uiso   1.00
N41    N     0.65912   0.55857   0.76752   0.00000  Uiso   1.00
N42    N     0.63425   0.24766   0.46495   0.00000  Uiso   1.00
N43    N     0.47113   0.72366   0.41327   0.00000  Uiso   1.00
N44    N     0.72233   0.62406   0.85200   0.00000  Uiso   1.00
N45    N     0.69746   0.31315   0.54944   0.00000  Uiso   1.00
N46    N     0.53434   0.78915   0.49776   0.00000  Uiso   1.00
C47    C     0.91740   0.49576   0.20776   0.00000  Uiso   1.00
C48    C     0.88087   0.46477   0.10708   0.00000  Uiso   1.00
C49    C     0.88536   0.47521   0.97536   0.00000  Uiso   1.00
C50    C     0.84800   0.44229   0.89942   0.00000  Uiso   1.00
C51    C     0.79741   0.40057   0.73488   0.00000  Uiso   1.00
C52    C     0.88772   0.55047   0.29928   0.00000  Uiso   1.00
C53    C     0.89797   0.63295   0.32918   0.00000  Uiso   1.00
C54    C     0.86638   0.67217   0.41505   0.00000  Uiso   1.00
C55    C     0.82644   0.76348   0.54898   0.00000  Uiso   1.00
C56    C     0.93267   0.41928   0.28502   0.00000  Uiso   1.00
C57    C     0.98073   0.39146   0.30295   0.00000  Uiso   1.00
C58    C     0.98698   0.32024   0.37685   0.00000  Uiso   1.00
C59    C     0.01684   0.20785   0.48863   0.00000  Uiso   1.00
C60    C     0.84307   0.41875   0.30712   0.00000  Uiso   1.00
C61    C     0.84049   0.42295   0.16105   0.00000  Uiso   1.00
C62    C     0.80312   0.39000   0.08529   0.00000  Uiso   1.00
C63    C     0.80755   0.40038   0.95348   0.00000  Uiso   1.00
C64    C     0.84734   0.50864   0.35325   0.00000  Uiso   1.00
C65    C     0.81573   0.54775   0.43911   0.00000  Uiso   1.00
C66    C     0.82593   0.63027   0.46912   0.00000  Uiso   1.00
C67    C     0.89230   0.37745   0.33898   0.00000  Uiso   1.00
C68    C     0.89848   0.30625   0.41288   0.00000  Uiso   1.00
C69    C     0.94653   0.27833   0.43091   0.00000  Uiso   1.00
H70    H     0.94884   0.52834   0.16575   0.00000  Uiso   1.00
H71    H     0.91661   0.50759   0.93363   0.00000  Uiso   1.00
H72    H     0.92922   0.66531   0.28740   0.00000  Uiso   1.00
H73    H     0.01196   0.42385   0.26117   0.00000  Uiso   1.00
H74    H     0.86307   0.46617   0.70009   0.00000  Uiso   1.00
H75    H     0.88968   0.79871   0.44607   0.00000  Uiso   1.00
H76    H     0.06415   0.28956   0.39077   0.00000  Uiso   1.00
H77    H     0.81163   0.38618   0.34914   0.00000  Uiso   1.00
H78    H     0.77187   0.35763   0.12708   0.00000  Uiso   1.00
H79    H     0.78449   0.51535   0.48086   0.00000  Uiso   1.00
H80    H     0.86723   0.27390   0.45463   0.00000  Uiso   1.00
H81    H     0.74559   0.34446   0.85710   0.00000  Uiso   1.00
H82    H     0.77220   0.67701   0.60309   0.00000  Uiso   1.00
H83    H     0.94667   0.16785   0.54778   0.00000  Uiso   1.00
O84    O     0.78065   0.38912   0.62921   0.00000  Uiso   1.00
O85    O     0.81556   0.82540   0.60793   0.00000  Uiso   1.00
O86    O     0.04446   0.15741   0.53536   0.00000  Uiso   1.00
N87    N     0.84088   0.44143   0.76752   0.00000  Uiso   1.00
N88    N     0.86575   0.75234   0.46495   0.00000  Uiso   1.00
N89    N     0.02887   0.27634   0.41327   0.00000  Uiso   1.00
N90    N     0.77767   0.37594   0.85200   0.00000  Uiso   1.00
N91    N     0.80254   0.68685   0.54944   0.00000  Uiso   1.00
N92    N     0.96566   0.21085   0.49776   0.00000  Uiso   1.00
C93    C     0.91740   0.00424   0.29224   0.00000  Uiso   1.00
C94    C     0.88087   0.03523   0.39292   0.00000  Uiso   1.00
C95    C     0.88536   0.02479   0.52464   0.00000  Uiso   1.00
C96    C     0.84800   0.05771   0.60058   0.00000  Uiso   1.00
C97    C     0.79741   0.09943   0.76512   0.00000  Uiso   1.00
C98    C     0.88772   0.94953   0.20072   0.00000  Uiso   1.00
C99    C     0.89797   0.86705   0.17082   0.00000  Uiso   1.00
C100   C     0.86638   0.82783   0.08495   0.00000  Uiso   1.00
C101   C     0.82644   0.73652   0.95102   0.00000  Uiso   1.00
C102   C     0.93267   0.08072   0.21498   0.00000  Uiso   1.00
C103   C     0.98073   0.10854   0.19705   0.00000  Uiso   1.00
C104   C     0.98698   0.17976   0.12315   0.00000  Uiso   1.00
C105   C     0.01684   0.29215   0.01137   0.00000  Uiso   1.00
C106   C     0.84307   0.08125   0.19288   0.00000  Uiso   1.00
C107   C     0.84049   0.07705   0.33895   0.00000  Uiso   1.00
C108   C     0.80312   0.11000   0.41471   0.00000  Uiso   1.00
C109   C     0.80755   0.09962   0.54652   0.00000  Uiso   1.00
C110   C     0.84734   0.99136   0.14675   0.00000  Uiso   1.00
C111   C     0.81573   0.95225   0.06089   0.00000  Uiso   1.00
C112   C     0.82593   0.86973   0.03088   0.00000  Uiso   1.00
C113   C     0.89230   0.12255   0.16102   0.00000  Uiso   1.00
C114   C     0.89848   0.19375   0.08712   0.00000  Uiso   1.00
C115   C     0.94653   0.22167   0.06909   0.00000  Uiso   1.00
H116   H     0.94884   0.97166   0.33425   0.00000  Uiso   1.00
H117   H     0.91661   0.99241   0.56637   0.00000  Uiso   1.00
H118   H     0.92922   0.83469   0.21260   0.00000  Uiso   1.00
H119   H     0.01196   0.07615   0.23883   0.00000  Uiso   1.00
H120   H     0.86307   0.03383   0.79991   0.00000  Uiso   1.00
H121   H     0.88968   0.70129   0.05393   0.00000  Uiso   1.00
H122   H     0.06415   0.21044   0.10923   0.00000  Uiso   1.00
H123   H     0.81163   0.11382   0.15086   0.00000  Uiso   1.00
H124   H     0.77187   0.14237   0.37292   0.00000  Uiso   1.00
H125   H     0.78449   0.98465   0.01914   0.00000  Uiso   1.00
H126   H     0.86723   0.22610   0.04537   0.00000  Uiso   1.00
H127   H     0.74559   0.15554   0.64290   0.00000  Uiso   1.00
H128   H     0.77220   0.82299   0.89691   0.00000  Uiso   1.00
H129   H     0.94667   0.33215   0.95222   0.00000  Uiso   1.00
O130   O     0.78065   0.11088   0.87079   0.00000  Uiso   1.00
O131   O     0.81556   0.67460   0.89207   0.00000  Uiso   1.00
O132   O     0.04446   0.34259   0.96464   0.00000  Uiso   1.00
N133   N     0.84088   0.05857   0.73248   0.00000  Uiso   1.00
N134   N     0.86575   0.74766   0.03505   0.00000  Uiso   1.00
N135   N     0.02887   0.22366   0.08673   0.00000  Uiso   1.00
N136   N     0.77767   0.12406   0.64800   0.00000  Uiso   1.00
N137   N     0.80254   0.81315   0.95056   0.00000  Uiso   1.00
N138   N     0.96566   0.28915   0.00224   0.00000  Uiso   1.00
C139   C     0.58260   0.99576   0.29224   0.00000  Uiso   1.00
C140   C     0.61913   0.96477   0.39292   0.00000  Uiso   1.00
C141   C     0.61464   0.97521   0.52464   0.00000  Uiso   1.00
C142   C     0.65200   0.94229   0.60058   0.00000  Uiso   1.00
C143   C     0.70259   0.90057   0.76512   0.00000  Uiso   1.00
C144   C     0.61228   0.05047   0.20072   0.00000  Uiso   1.00
C145   C     0.60203   0.13295   0.17082   0.00000  Uiso   1.00
C146   C     0.63362   0.17217   0.08495   0.00000  Uiso   1.00
C147   C     0.67356   0.26348   0.95102   0.00000  Uiso   1.00
C148   C     0.56733   0.91928   0.21498   0.00000  Uiso   1.00
C149   C     0.51927   0.89146   0.19705   0.00000  Uiso   1.00
C150   C     0.51302   0.82024   0.12315   0.00000  Uiso   1.00
C151   C     0.48316   0.70785   0.01137   0.00000  Uiso   1.00
C152   C     0.65693   0.91875   0.19288   0.00000  Uiso   1.00
C153   C     0.65951   0.92295   0.33895   0.00000  Uiso   1.00
C154   C     0.69688   0.89000   0.41471   0.00000  Uiso   1.00
C155   C     0.69245   0.90038   0.54652   0.00000  Uiso   1.00
C156   C     0.65266   0.00864   0.14675   0.00000  Uiso   1.00
C157   C     0.68427   0.04775   0.06089   0.00000  Uiso   1.00
C158   C     0.67407   0.13027   0.03088   0.00000  Uiso   1.00
C159   C     0.60770   0.87745   0.16102   0.00000  Uiso   1.00
C160   C     0.60152   0.80625   0.08712   0.00000  Uiso   1.00
C161   C     0.55347   0.77833   0.06909   0.00000  Uiso   1.00
H162   H     0.55116   0.02834   0.33425   0.00000  Uiso   1.00
H163   H     0.58339   0.00759   0.56637   0.00000  Uiso   1.00
H164   H     0.57078   0.16531   0.21260   0.00000  Uiso   1.00
H165   H     0.48804   0.92385   0.23883   0.00000  Uiso   1.00
H166   H     0.63693   0.96617   0.79991   0.00000  Uiso   1.00
H167   H     0.61032   0.29871   0.05393   0.00000  Uiso   1.00
H168   H     0.43585   0.78956   0.10923   0.00000  Uiso   1.00
H169   H     0.68837   0.88618   0.15086   0.00000  Uiso   1.00
H170   H     0.72813   0.85763   0.37292   0.00000  Uiso   1.00
H171   H     0.71551   0.01535   0.01914   0.00000  Uiso   1.00
H172   H     0.63277   0.77390   0.04537   0.00000  Uiso   1.00
H173   H     0.75441   0.84446   0.64290   0.00000  Uiso   1.00
H174   H     0.72780   0.17701   0.89691   0.00000  Uiso   1.00
H175   H     0.55333   0.66785   0.95222   0.00000  Uiso   1.00
O176   O     0.71935   0.88912   0.87079   0.00000  Uiso   1.00
O177   O     0.68444   0.32540   0.89207   0.00000  Uiso   1.00
O178   O     0.45554   0.65741   0.96464   0.00000  Uiso   1.00
N179   N     0.65912   0.94143   0.73248   0.00000  Uiso   1.00
N180   N     0.63425   0.25234   0.03505   0.00000  Uiso   1.00
N181   N     0.47113   0.77634   0.08673   0.00000  Uiso   1.00
N182   N     0.72233   0.87594   0.64800   0.00000  Uiso   1.00
N183   N     0.69746   0.18685   0.95056   0.00000  Uiso   1.00
N184   N     0.53434   0.71085   0.00224   0.00000  Uiso   1.00
C185   C     0.41740   0.49576   0.79224   0.00000  Uiso   1.00
C186   C     0.38087   0.46477   0.89292   0.00000  Uiso   1.00
C187   C     0.38536   0.47521   0.02464   0.00000  Uiso   1.00
C188   C     0.34800   0.44229   0.10058   0.00000  Uiso   1.00
C189   C     0.29741   0.40057   0.26512   0.00000  Uiso   1.00
C190   C     0.38772   0.55047   0.70072   0.00000  Uiso   1.00
C191   C     0.39797   0.63295   0.67082   0.00000  Uiso   1.00
C192   C     0.36638   0.67217   0.58495   0.00000  Uiso   1.00
C193   C     0.32644   0.76348   0.45102   0.00000  Uiso   1.00
C194   C     0.43267   0.41928   0.71498   0.00000  Uiso   1.00
C195   C     0.48073   0.39146   0.69705   0.00000  Uiso   1.00
C196   C     0.48698   0.32024   0.62315   0.00000  Uiso   1.00
C197   C     0.51684   0.20785   0.51137   0.00000  Uiso   1.00
C198   C     0.34307   0.41875   0.69288   0.00000  Uiso   1.00
C199   C     0.34049   0.42295   0.83895   0.00000  Uiso   1.00
C200   C     0.30312   0.39000   0.91471   0.00000  Uiso   1.00
C201   C     0.30755   0.40038   0.04652   0.00000  Uiso   1.00
C202   C     0.34734   0.50864   0.64675   0.00000  Uiso   1.00
C203   C     0.31573   0.54775   0.56089   0.00000  Uiso   1.00
C204   C     0.32593   0.63027   0.53088   0.00000  Uiso   1.00
C205   C     0.39230   0.37745   0.66102   0.00000  Uiso   1.00
C206   C     0.39848   0.30625   0.58712   0.00000  Uiso   1.00
C207   C     0.44653   0.27833   0.56909   0.00000  Uiso   1.00
H208   H     0.44884   0.52834   0.83425   0.00000  Uiso   1.00
H209   H     0.41661   0.50759   0.06637   0.00000  Uiso   1.00
H210   H     0.42922   0.66531   0.71260   0.00000  Uiso   1.00
H211   H     0.51196   0.42385   0.73883   0.00000  Uiso   1.00
H212   H     0.36307   0.46617   0.29991   0.00000  Uiso   1.00
H213   H     0.38968   0.79871   0.55393   0.00000  Uiso   1.00
H214   H     0.56415   0.28956   0.60923   0.00000  Uiso   1.00
H215   H     0.31163   0.38618   0.65086   0.00000  Uiso   1.00
H216   H     0.27187   0.35763   0.87292   0.00000  Uiso   1.00
H217   H     0.28449   0.51535   0.51914   0.00000  Uiso   1.00
H218   H     0.36723   0.27390   0.54537   0.00000  Uiso   1.00
H219   H     0.24559   0.34446   0.14290   0.00000  Uiso   1.00
H220   H     0.27220   0.67701   0.39691   0.00000  Uiso   1.00
H221   H     0.44667   0.16785   0.45222   0.00000  Uiso   1.00
O222   O     0.28065   0.38912   0.37079   0.00000  Uiso   1.00
O223   O     0.31556   0.82540   0.39207   0.00000  Uiso   1.00
O224   O     0.54446   0.15741   0.46464   0.00000  Uiso   1.00
N225   N     0.34088   0.44143   0.23248   0.00000  Uiso   1.00
N226   N     0.36575   0.75234   0.53505   0.00000  Uiso   1.00
N227   N     0.52887   0.27634   0.58673   0.00000  Uiso   1.00
N228   N     0.27767   0.37594   0.14800   0.00000  Uiso   1.00
N229   N     0.30254   0.68685   0.45056   0.00000  Uiso   1.00
N230   N     0.46566   0.21085   0.50224   0.00000  Uiso   1.00
C231   C     0.08260   0.50424   0.79224   0.00000  Uiso   1.00
C232   C     0.11913   0.53523   0.89292   0.00000  Uiso   1.00
C233   C     0.11464   0.52479   0.02464   0.00000  Uiso   1.00
C234   C     0.15200   0.55771   0.10058   0.00000  Uiso   1.00
C235   C     0.20259   0.59943   0.26512   0.00000  Uiso   1.00
C236   C     0.11228   0.44953   0.70072   0.00000  Uiso   1.00
C237   C     0.10203   0.36705   0.67082   0.00000  Uiso   1.00
C238   C     0.13362   0.32783   0.58495   0.00000  Uiso   1.00
C239   C     0.17356   0.23652   0.45102   0.00000  Uiso   1.00
C240   C     0.06733   0.58072   0.71498   0.00000  Uiso   1.00
C241   C     0.01927   0.60854   0.69705   0.00000  Uiso   1.00
C242   C     0.01302   0.67976   0.62315   0.00000  Uiso   1.00
C243   C     0.98316   0.79215   0.51137   0.00000  Uiso   1.00
C244   C     0.15693   0.58125   0.69288   0.00000  Uiso   1.00
C245   C     0.15951   0.57705   0.83895   0.00000  Uiso   1.00
C246   C     0.19688   0.61000   0.91471   0.00000  Uiso   1.00
C247   C     0.19245   0.59962   0.04652   0.00000  Uiso   1.00
C248   C     0.15266   0.49136   0.64675   0.00000  Uiso   1.00
C249   C     0.18427   0.45225   0.56089   0.00000  Uiso   1.00
C250   C     0.17407   0.36973   0.53088   0.00000  Uiso   1.00
C251   C     0.10770   0.62255   0.66102   0.00000  Uiso   1.00
C252   C     0.10152   0.69375   0.58712   0.00000  Uiso   1.00
C253   C     0.05347   0.72167   0.56909   0.00000  Uiso   1.00
H254   H     0.05116   0.47166   0.83425   0.00000  Uiso   1.00
H255   H     0.08339   0.49241   0.06637   0.00000  Uiso   1.00
H256   H     0.07078   0.33469   0.71260   0.00000  Uiso   1.00
H257   H     0.98804   0.57615   0.73883   0.00000  Uiso   1.00
H258   H     0.13693   0.53383   0.29991   0.00000  Uiso   1.00
H259   H     0.11032   0.20129   0.55393   0.00000  Uiso   1.00
H260   H     0.93585   0.71044   0.60923   0.00000  Uiso   1.00
H261   H     0.18837   0.61382   0.65086   0.00000  Uiso   1.00
H262   H     0.22813   0.64237   0.87292   0.00000  Uiso   1.00
H263   H     0.21551   0.48465   0.51914   0.00000  Uiso   1.00
H264   H     0.13277   0.72610   0.54537   0.00000  Uiso   1.00
H265   H     0.25441   0.65554   0.14290   0.00000  Uiso   1.00
H266   H     0.22780   0.32299   0.39691   0.00000  Uiso   1.00
H267   H     0.05333   0.83215   0.45222   0.00000  Uiso   1.00
O268   O     0.21935   0.61088   0.37079   0.00000  Uiso   1.00
O269   O     0.18444   0.17460   0.39207   0.00000  Uiso   1.00
O270   O     0.95554   0.84259   0.46464   0.00000  Uiso   1.00
N271   N     0.15912   0.55857   0.23248   0.00000  Uiso   1.00
N272   N     0.13425   0.24766   0.53505   0.00000  Uiso   1.00
N273   N     0.97113   0.72366   0.58673   0.00000  Uiso   1.00
N274   N     0.22233   0.62406   0.14800   0.00000  Uiso   1.00
N275   N     0.19746   0.31315   0.45056   0.00000  Uiso   1.00
N276   N     0.03434   0.78915   0.50224   0.00000  Uiso   1.00
C277   C     0.08260   0.99576   0.70776   0.00000  Uiso   1.00
C278   C     0.11913   0.96477   0.60708   0.00000  Uiso   1.00
C279   C     0.11464   0.97521   0.47536   0.00000  Uiso   1.00
C280   C     0.15200   0.94229   0.39942   0.00000  Uiso   1.00
C281   C     0.20259   0.90057   0.23488   0.00000  Uiso   1.00
C282   C     0.11228   0.05047   0.79928   0.00000  Uiso   1.00
C283   C     0.10203   0.13295   0.82918   0.00000  Uiso   1.00
C284   C     0.13362   0.17217   0.91505   0.00000  Uiso   1.00
C285   C     0.17356   0.26348   0.04898   0.00000  Uiso   1.00
C286   C     0.06733   0.91928   0.78502   0.00000  Uiso   1.00
C287   C     0.01927   0.89146   0.80295   0.00000  Uiso   1.00
C288   C     0.01302   0.82024   0.87685   0.00000  Uiso   1.00
C289   C     0.98316   0.70785   0.98863   0.00000  Uiso   1.00
C290   C     0.15693   0.91875   0.80712   0.00000  Uiso   1.00
C291   C     0.15951   0.92295   0.66105   0.00000  Uiso   1.00
C292   C     0.19688   0.89000   0.58529   0.00000  Uiso   1.00
C293   C     0.19245   0.90038   0.45348   0.00000  Uiso   1.00
C294   C     0.15266   0.00864   0.85325   0.00000  Uiso   1.00
C295   C     0.18427   0.04775   0.93911   0.00000  Uiso   1.00
C296   C     0.17407   0.13027   0.96912   0.00000  Uiso   1.00
C297   C     0.10770   0.87745   0.83898   0.00000  Uiso   1.00
C298   C     0.10152   0.80625   0.91288   0.00000  Uiso   1.00
C299   C     0.05347   0.77833   0.93091   0.00000  Uiso   1.00
H300   H     0.05116   0.02834   0.66575   0.00000  Uiso   1.00
H301   H     0.08339   0.00759   0.43363   0.00000  Uiso   1.00
H302   H     0.07078   0.16531   0.78740   0.00000  Uiso   1.00
H303   H     0.98804   0.92385   0.76117   0.00000  Uiso   1.00
H304   H     0.13693   0.96617   0.20009   0.00000  Uiso   1.00
H305   H     0.11032   0.29871   0.94607   0.00000  Uiso   1.00
H306   H     0.93585   0.78956   0.89077   0.00000  Uiso   1.00
H307   H     0.18837   0.88618   0.84914   0.00000  Uiso   1.00
H308   H     0.22813   0.85763   0.62708   0.00000  Uiso   1.00
H309   H     0.21551   0.01535   0.98086   0.00000  Uiso   1.00
H310   H     0.13277   0.77390   0.95463   0.00000  Uiso   1.00
H311   H     0.25441   0.84446   0.35710   0.00000  Uiso   1.00
H312   H     0.22780   0.17701   0.10309   0.00000  Uiso   1.00
H313   H     0.05333   0.66785   0.04778   0.00000  Uiso   1.00
O314   O     0.21935   0.88912   0.12921   0.00000  Uiso   1.00
O315   O     0.18444   0.32540   0.10793   0.00000  Uiso   1.00
O316   O     0.95554   0.65741   0.03536   0.00000  Uiso   1.00
N317   N     0.15912   0.94143   0.26752   0.00000  Uiso   1.00
N318   N     0.13425   0.25234   0.96495   0.00000  Uiso   1.00
N319   N     0.97113   0.77634   0.91327   0.00000  Uiso   1.00
N320   N     0.22233   0.87594   0.35200   0.00000  Uiso   1.00
N321   N     0.19746   0.18685   0.04944   0.00000  Uiso   1.00
N322   N     0.03434   0.71085   0.99776   0.00000  Uiso   1.00
C323   C     0.41740   0.00424   0.70776   0.00000  Uiso   1.00
C324   C     0.38087   0.03523   0.60708   0.00000  Uiso   1.00
C325   C     0.38536   0.02479   0.47536   0.00000  Uiso   1.00
C326   C     0.34800   0.05771   0.39942   0.00000  Uiso   1.00
C327   C     0.29741   0.09943   0.23488   0.00000  Uiso   1.00
C328   C     0.38772   0.94953   0.79928   0.00000  Uiso   1.00
C329   C     0.39797   0.86705   0.82918   0.00000  Uiso   1.00
C330   C     0.36638   0.82783   0.91505   0.00000  Uiso   1.00
C331   C     0.32644   0.73652   0.04898   0.00000  Uiso   1.00
C332   C     0.43267   0.08072   0.78502   0.00000  Uiso   1.00
C333   C     0.48073   0.10854   0.80295   0.00000  Uiso   1.00
C334   C     0.48698   0.17976   0.87685   0.00000  Uiso   1.00
C335   C     0.51684   0.29215   0.98863   0.00000  Uiso   1.00
C336   C     0.34307   0.08125   0.80712   0.00000  Uiso   1.00
C337   C     0.34049   0.07705   0.66105   0.00000  Uiso   1.00
C338   C     0.30312   0.11000   0.58529   0.00000  Uiso   1.00
C339   C     0.30755   0.09962   0.45348   0.00000  Uiso   1.00
C340   C     0.34734   0.99136   0.85325   0.00000  Uiso   1.00
C341   C     0.31573   0.95225   0.93911   0.00000  Uiso   1.00
C342   C     0.32593   0.86973   0.96912   0.00000  Uiso   1.00
C343   C     0.39230   0.12255   0.83898   0.00000  Uiso   1.00
C344   C     0.39848   0.19375   0.91288   0.00000  Uiso   1.00
C345   C     0.44653   0.22167   0.93091   0.00000  Uiso   1.00
H346   H     0.44884   0.97166   0.66575   0.00000  Uiso   1.00
H347   H     0.41661   0.99241   0.43363   0.00000  Uiso   1.00
H348   H     0.42922   0.83469   0.78740   0.00000  Uiso   1.00
H349   H     0.51196   0.07615   0.76117   0.00000  Uiso   1.00
H350   H     0.36307   0.03383   0.20009   0.00000  Uiso   1.00
H351   H     0.38968   0.70129   0.94607   0.00000  Uiso   1.00
H352   H     0.56415   0.21044   0.89077   0.00000  Uiso   1.00
H353   H     0.31163   0.11382   0.84914   0.00000  Uiso   1.00
H354   H     0.27187   0.14237   0.62708   0.00000  Uiso   1.00
H355   H     0.28449   0.98465   0.98086   0.00000  Uiso   1.00
H356   H     0.36723   0.22610   0.95463   0.00000  Uiso   1.00
H357   H     0.24559   0.15554   0.35710   0.00000  Uiso   1.00
H358   H     0.27220   0.82299   0.10309   0.00000  Uiso   1.00
H359   H     0.44667   0.33215   0.04778   0.00000  Uiso   1.00
O360   O     0.28065   0.11088   0.12921   0.00000  Uiso   1.00
O361   O     0.31556   0.67460   0.10793   0.00000  Uiso   1.00
O362   O     0.54446   0.34259   0.03536   0.00000  Uiso   1.00
N363   N     0.34088   0.05857   0.26752   0.00000  Uiso   1.00
N364   N     0.36575   0.74766   0.96495   0.00000  Uiso   1.00
N365   N     0.52887   0.22366   0.91327   0.00000  Uiso   1.00
N366   N     0.27767   0.12406   0.35200   0.00000  Uiso   1.00
N367   N     0.30254   0.81315   0.04944   0.00000  Uiso   1.00
N368   N     0.46566   0.28915   0.99776   0.00000  Uiso   1.00
