data_job_04865
_audit_creation_date              2018-12-19
_audit_creation_method            'Materials Studio'
_symmetry_space_group_name_H-M    'P1'
_symmetry_Int_Tables_number       1
_symmetry_cell_setting            triclinic
loop_
_symmetry_equiv_pos_as_xyz
  x,y,z
_cell_length_a                    13.4492
_cell_length_b                    11.8657
_cell_length_c                    41.5819
_cell_angle_alpha                 90.0000
_cell_angle_beta                  90.0000
_cell_angle_gamma                 90.0000
loop_
_atom_site_label
_atom_site_type_symbol
_atom_site_fract_x
_atom_site_fract_y
_atom_site_fract_z
_atom_site_U_iso_or_equiv
_atom_site_adp_type
_atom_site_occupancy
C1     C     0.99412   0.61329   0.83795   0.00000  Uiso   1.00
C2     C     0.91966   0.70213   0.82689   0.00000  Uiso   1.00
C3     C     0.94312   0.80889   0.81557   0.00000  Uiso   1.00
C4     C     0.86430   0.87767   0.80664   0.00000  Uiso   1.00
C5     C     0.76370   0.02123   0.78913   0.00000  Uiso   1.00
C6     C     0.96454   0.58253   0.87225   0.00000  Uiso   1.00
C7     C     0.02573   0.58872   0.89906   0.00000  Uiso   1.00
C8     C     0.98469   0.55681   0.92832   0.00000  Uiso   1.00
C9     C     0.95378   0.51461   0.98122   0.00000  Uiso   1.00
C10    C     0.97364   0.50882   0.81764   0.00000  Uiso   1.00
C11    C     0.04250   0.45302   0.79855   0.00000  Uiso   1.00
C12    C     0.00913   0.35905   0.78184   0.00000  Uiso   1.00
C13    C     0.99237   0.20241   0.74996   0.00000  Uiso   1.00
C14    C     0.81243   0.54559   0.84222   0.00000  Uiso   1.00
C15    C     0.82098   0.66535   0.82921   0.00000  Uiso   1.00
C16    C     0.74210   0.73399   0.82030   0.00000  Uiso   1.00
C17    C     0.76544   0.84084   0.80896   0.00000  Uiso   1.00
C18    C     0.86586   0.54576   0.87457   0.00000  Uiso   1.00
C19    C     0.82472   0.51383   0.90379   0.00000  Uiso   1.00
C20    C     0.88583   0.51998   0.93064   0.00000  Uiso   1.00
C21    C     0.87496   0.47205   0.81996   0.00000  Uiso   1.00
C22    C     0.84148   0.37814   0.80328   0.00000  Uiso   1.00
C23    C     0.91027   0.32221   0.78417   0.00000  Uiso   1.00
H24    H     0.07095   0.64191   0.83614   0.00000  Uiso   1.00
H25    H     0.01950   0.83732   0.81378   0.00000  Uiso   1.00
H26    H     0.10210   0.61717   0.89726   0.00000  Uiso   1.00
H27    H     0.11886   0.48150   0.79676   0.00000  Uiso   1.00
H28    H     0.91894   0.03776   0.79002   0.00000  Uiso   1.00
H29    H     0.09312   0.57353   0.96604   0.00000  Uiso   1.00
H30    H     0.12846   0.28745   0.75412   0.00000  Uiso   1.00
H31    H     0.73560   0.51696   0.84403   0.00000  Uiso   1.00
H32    H     0.66574   0.70552   0.82209   0.00000  Uiso   1.00
H33    H     0.74835   0.48537   0.90557   0.00000  Uiso   1.00
H34    H     0.76511   0.34971   0.80508   0.00000  Uiso   1.00
H35    H     0.63182   0.93079   0.79677   0.00000  Uiso   1.00
H36    H     0.80600   0.46656   0.97279   0.00000  Uiso   1.00
H37    H     0.84134   0.18048   0.76087   0.00000  Uiso   1.00
O38    O     0.73547   0.11057   0.77883   0.00000  Uiso   1.00
O39    O     0.96400   0.50151   0.00976   0.00000  Uiso   1.00
O40    O     0.01037   0.12618   0.73174   0.00000  Uiso   1.00
N41    N     0.86095   0.98670   0.79461   0.00000  Uiso   1.00
N42    N     0.02379   0.55269   0.95918   0.00000  Uiso   1.00
N43    N     0.05685   0.28521   0.76107   0.00000  Uiso   1.00
N44    N     0.70645   0.92914   0.79824   0.00000  Uiso   1.00
N45    N     0.86930   0.49513   0.96281   0.00000  Uiso   1.00
N46    N     0.90235   0.22765   0.76470   0.00000  Uiso   1.00
C47    C     0.05673   0.74112   0.15143   0.00000  Uiso   1.00
C48    C     0.12174   0.83060   0.16726   0.00000  Uiso   1.00
C49    C     0.09181   0.93875   0.17549   0.00000  Uiso   1.00
C50    C     0.16241   0.00792   0.18977   0.00000  Uiso   1.00
C51    C     0.24861   0.15261   0.21346   0.00000  Uiso   1.00
C52    C     0.11080   0.70632   0.12076   0.00000  Uiso   1.00
C53    C     0.07167   0.70996   0.08989   0.00000  Uiso   1.00
C54    C     0.13306   0.67448   0.06503   0.00000  Uiso   1.00
C55    C     0.20226   0.62615   0.01653   0.00000  Uiso   1.00
C56    C     0.06003   0.63884   0.17360   0.00000  Uiso   1.00
C57    C     0.97820   0.58572   0.18716   0.00000  Uiso   1.00
C58    C     0.99684   0.49341   0.20678   0.00000  Uiso   1.00
C59    C     0.98721   0.34031   0.24032   0.00000  Uiso   1.00
C60    C     0.23531   0.67164   0.16215   0.00000  Uiso   1.00
C61    C     0.21874   0.79286   0.17309   0.00000  Uiso   1.00
C62    C     0.28940   0.86188   0.18736   0.00000  Uiso   1.00
C63    C     0.25958   0.97011   0.19561   0.00000  Uiso   1.00
C64    C     0.20780   0.66858   0.12659   0.00000  Uiso   1.00
C65    C     0.26926   0.63308   0.10176   0.00000  Uiso   1.00
C66    C     0.23024   0.63668   0.07087   0.00000  Uiso   1.00
C67    C     0.15703   0.60110   0.17943   0.00000  Uiso   1.00
C68    C     0.17580   0.50885   0.19903   0.00000  Uiso   1.00
C69    C     0.09402   0.45561   0.21261   0.00000  Uiso   1.00
H70    H     0.98121   0.77050   0.14689   0.00000  Uiso   1.00
H71    H     0.01674   0.96793   0.17098   0.00000  Uiso   1.00
H72    H     0.99660   0.73915   0.08539   0.00000  Uiso   1.00
H73    H     0.90315   0.61495   0.18264   0.00000  Uiso   1.00
H74    H     0.09892   0.17018   0.20024   0.00000  Uiso   1.00
H75    H     0.05644   0.68777   0.01979   0.00000  Uiso   1.00
H76    H     0.85939   0.42584   0.22486   0.00000  Uiso   1.00
H77    H     0.31084   0.64226   0.16669   0.00000  Uiso   1.00
H78    H     0.36446   0.83265   0.19187   0.00000  Uiso   1.00
H79    H     0.34432   0.60388   0.10628   0.00000  Uiso   1.00
H80    H     0.25087   0.47967   0.20353   0.00000  Uiso   1.00
H81    H     0.38114   0.06039   0.21720   0.00000  Uiso   1.00
H82    H     0.33867   0.57797   0.03674   0.00000  Uiso   1.00
H83    H     0.14161   0.31605   0.24181   0.00000  Uiso   1.00
O84    O     0.26937   0.24286   0.22492   0.00000  Uiso   1.00
O85    O     0.21363   0.60993   0.98816   0.00000  Uiso   1.00
O86    O     0.95510   0.26630   0.25721   0.00000  Uiso   1.00
N87    N     0.15798   0.11820   0.20078   0.00000  Uiso   1.00
N88    N     0.11827   0.66719   0.03207   0.00000  Uiso   1.00
N89    N     0.93404   0.42230   0.22378   0.00000  Uiso   1.00
N90    N     0.30984   0.05912   0.20991   0.00000  Uiso   1.00
N91    N     0.27013   0.60811   0.04119   0.00000  Uiso   1.00
N92    N     0.08590   0.36322   0.23290   0.00000  Uiso   1.00
C93    C     0.00588   0.38671   0.33795   0.00000  Uiso   1.00
C94    C     0.08034   0.29787   0.32689   0.00000  Uiso   1.00
C95    C     0.05688   0.19111   0.31557   0.00000  Uiso   1.00
C96    C     0.13570   0.12233   0.30664   0.00000  Uiso   1.00
C97    C     0.23630   0.97877   0.28913   0.00000  Uiso   1.00
C98    C     0.03546   0.41747   0.37225   0.00000  Uiso   1.00
C99    C     0.97427   0.41128   0.39906   0.00000  Uiso   1.00
C100   C     0.01531   0.44319   0.42832   0.00000  Uiso   1.00
C101   C     0.04622   0.48539   0.48122   0.00000  Uiso   1.00
C102   C     0.02636   0.49118   0.31764   0.00000  Uiso   1.00
C103   C     0.95750   0.54698   0.29855   0.00000  Uiso   1.00
C104   C     0.99087   0.64095   0.28184   0.00000  Uiso   1.00
C105   C     0.00763   0.79759   0.24996   0.00000  Uiso   1.00
C106   C     0.18757   0.45441   0.34222   0.00000  Uiso   1.00
C107   C     0.17902   0.33465   0.32921   0.00000  Uiso   1.00
C108   C     0.25790   0.26601   0.32030   0.00000  Uiso   1.00
C109   C     0.23456   0.15916   0.30896   0.00000  Uiso   1.00
C110   C     0.13414   0.45424   0.37457   0.00000  Uiso   1.00
C111   C     0.17528   0.48617   0.40379   0.00000  Uiso   1.00
C112   C     0.11417   0.48002   0.43064   0.00000  Uiso   1.00
C113   C     0.12504   0.52795   0.31996   0.00000  Uiso   1.00
C114   C     0.15852   0.62186   0.30328   0.00000  Uiso   1.00
C115   C     0.08973   0.67779   0.28417   0.00000  Uiso   1.00
H116   H     0.92905   0.35809   0.33614   0.00000  Uiso   1.00
H117   H     0.98050   0.16268   0.31378   0.00000  Uiso   1.00
H118   H     0.89790   0.38283   0.39726   0.00000  Uiso   1.00
H119   H     0.88114   0.51850   0.29676   0.00000  Uiso   1.00
H120   H     0.08106   0.96224   0.29002   0.00000  Uiso   1.00
H121   H     0.90688   0.42647   0.46604   0.00000  Uiso   1.00
H122   H     0.87154   0.71255   0.25412   0.00000  Uiso   1.00
H123   H     0.26440   0.48304   0.34403   0.00000  Uiso   1.00
H124   H     0.33426   0.29448   0.32209   0.00000  Uiso   1.00
H125   H     0.25165   0.51463   0.40557   0.00000  Uiso   1.00
H126   H     0.23489   0.65029   0.30508   0.00000  Uiso   1.00
H127   H     0.36818   0.06921   0.29677   0.00000  Uiso   1.00
H128   H     0.19400   0.53344   0.47279   0.00000  Uiso   1.00
H129   H     0.15866   0.81952   0.26087   0.00000  Uiso   1.00
O130   O     0.26453   0.88943   0.27883   0.00000  Uiso   1.00
O131   O     0.03600   0.49849   0.50976   0.00000  Uiso   1.00
O132   O     0.98963   0.87382   0.23174   0.00000  Uiso   1.00
N133   N     0.13905   0.01330   0.29461   0.00000  Uiso   1.00
N134   N     0.97621   0.44731   0.45918   0.00000  Uiso   1.00
N135   N     0.94315   0.71479   0.26107   0.00000  Uiso   1.00
N136   N     0.29355   0.07086   0.29824   0.00000  Uiso   1.00
N137   N     0.13070   0.50487   0.46281   0.00000  Uiso   1.00
N138   N     0.09765   0.77235   0.26470   0.00000  Uiso   1.00
C139   C     0.94327   0.25888   0.65143   0.00000  Uiso   1.00
C140   C     0.87826   0.16940   0.66726   0.00000  Uiso   1.00
C141   C     0.90819   0.06125   0.67549   0.00000  Uiso   1.00
C142   C     0.83759   0.99208   0.68977   0.00000  Uiso   1.00
C143   C     0.75139   0.84739   0.71346   0.00000  Uiso   1.00
C144   C     0.88920   0.29368   0.62076   0.00000  Uiso   1.00
C145   C     0.92833   0.29004   0.58989   0.00000  Uiso   1.00
C146   C     0.86694   0.32552   0.56503   0.00000  Uiso   1.00
C147   C     0.79774   0.37385   0.51653   0.00000  Uiso   1.00
C148   C     0.93997   0.36116   0.67360   0.00000  Uiso   1.00
C149   C     0.02180   0.41428   0.68716   0.00000  Uiso   1.00
C150   C     0.00316   0.50659   0.70678   0.00000  Uiso   1.00
C151   C     0.01279   0.65969   0.74032   0.00000  Uiso   1.00
C152   C     0.76469   0.32836   0.66215   0.00000  Uiso   1.00
C153   C     0.78126   0.20714   0.67309   0.00000  Uiso   1.00
C154   C     0.71060   0.13812   0.68736   0.00000  Uiso   1.00
C155   C     0.74042   0.02989   0.69561   0.00000  Uiso   1.00
C156   C     0.79220   0.33142   0.62659   0.00000  Uiso   1.00
C157   C     0.73074   0.36692   0.60176   0.00000  Uiso   1.00
C158   C     0.76976   0.36332   0.57087   0.00000  Uiso   1.00
C159   C     0.84297   0.39890   0.67943   0.00000  Uiso   1.00
C160   C     0.82420   0.49115   0.69903   0.00000  Uiso   1.00
C161   C     0.90598   0.54439   0.71261   0.00000  Uiso   1.00
H162   H     0.01879   0.22950   0.64689   0.00000  Uiso   1.00
H163   H     0.98326   0.03207   0.67098   0.00000  Uiso   1.00
H164   H     0.00340   0.26085   0.58539   0.00000  Uiso   1.00
H165   H     0.09685   0.38505   0.68264   0.00000  Uiso   1.00
H166   H     0.90108   0.82982   0.70024   0.00000  Uiso   1.00
H167   H     0.94356   0.31223   0.51979   0.00000  Uiso   1.00
H168   H     0.14061   0.57416   0.72486   0.00000  Uiso   1.00
H169   H     0.68916   0.35774   0.66669   0.00000  Uiso   1.00
H170   H     0.63554   0.16735   0.69187   0.00000  Uiso   1.00
H171   H     0.65568   0.39612   0.60628   0.00000  Uiso   1.00
H172   H     0.74913   0.52033   0.70353   0.00000  Uiso   1.00
H173   H     0.61886   0.93961   0.71720   0.00000  Uiso   1.00
H174   H     0.66133   0.42203   0.53674   0.00000  Uiso   1.00
H175   H     0.85839   0.68395   0.74181   0.00000  Uiso   1.00
O176   O     0.73063   0.75714   0.72492   0.00000  Uiso   1.00
O177   O     0.78637   0.39007   0.48816   0.00000  Uiso   1.00
O178   O     0.04490   0.73370   0.75721   0.00000  Uiso   1.00
N179   N     0.84202   0.88180   0.70078   0.00000  Uiso   1.00
N180   N     0.88173   0.33281   0.53207   0.00000  Uiso   1.00
N181   N     0.06596   0.57770   0.72378   0.00000  Uiso   1.00
N182   N     0.69016   0.94088   0.70991   0.00000  Uiso   1.00
N183   N     0.72987   0.39189   0.54119   0.00000  Uiso   1.00
N184   N     0.91410   0.63678   0.73290   0.00000  Uiso   1.00
C185   C     0.49412   0.38671   0.83795   0.00000  Uiso   1.00
C186   C     0.41966   0.29787   0.82689   0.00000  Uiso   1.00
C187   C     0.44312   0.19111   0.81557   0.00000  Uiso   1.00
C188   C     0.36430   0.12233   0.80664   0.00000  Uiso   1.00
C189   C     0.26370   0.97877   0.78913   0.00000  Uiso   1.00
C190   C     0.46454   0.41747   0.87225   0.00000  Uiso   1.00
C191   C     0.52573   0.41128   0.89906   0.00000  Uiso   1.00
C192   C     0.48469   0.44319   0.92832   0.00000  Uiso   1.00
C193   C     0.45378   0.48539   0.98122   0.00000  Uiso   1.00
C194   C     0.47364   0.49118   0.81764   0.00000  Uiso   1.00
C195   C     0.54250   0.54698   0.79855   0.00000  Uiso   1.00
C196   C     0.50913   0.64095   0.78184   0.00000  Uiso   1.00
C197   C     0.49237   0.79759   0.74996   0.00000  Uiso   1.00
C198   C     0.31243   0.45441   0.84222   0.00000  Uiso   1.00
C199   C     0.32098   0.33465   0.82921   0.00000  Uiso   1.00
C200   C     0.24210   0.26601   0.82030   0.00000  Uiso   1.00
C201   C     0.26544   0.15916   0.80896   0.00000  Uiso   1.00
C202   C     0.36586   0.45424   0.87457   0.00000  Uiso   1.00
C203   C     0.32472   0.48617   0.90379   0.00000  Uiso   1.00
C204   C     0.38583   0.48002   0.93064   0.00000  Uiso   1.00
C205   C     0.37496   0.52795   0.81996   0.00000  Uiso   1.00
C206   C     0.34148   0.62186   0.80328   0.00000  Uiso   1.00
C207   C     0.41027   0.67779   0.78417   0.00000  Uiso   1.00
H208   H     0.57095   0.35809   0.83614   0.00000  Uiso   1.00
H209   H     0.51950   0.16268   0.81378   0.00000  Uiso   1.00
H210   H     0.60210   0.38283   0.89726   0.00000  Uiso   1.00
H211   H     0.61886   0.51850   0.79676   0.00000  Uiso   1.00
H212   H     0.41894   0.96224   0.79002   0.00000  Uiso   1.00
H213   H     0.59312   0.42647   0.96604   0.00000  Uiso   1.00
H214   H     0.62846   0.71255   0.75412   0.00000  Uiso   1.00
H215   H     0.23560   0.48304   0.84403   0.00000  Uiso   1.00
H216   H     0.16574   0.29448   0.82209   0.00000  Uiso   1.00
H217   H     0.24835   0.51463   0.90557   0.00000  Uiso   1.00
H218   H     0.26511   0.65029   0.80508   0.00000  Uiso   1.00
H219   H     0.13182   0.06921   0.79677   0.00000  Uiso   1.00
H220   H     0.30600   0.53344   0.97279   0.00000  Uiso   1.00
H221   H     0.34134   0.81952   0.76087   0.00000  Uiso   1.00
O222   O     0.23547   0.88943   0.77883   0.00000  Uiso   1.00
O223   O     0.46400   0.49849   0.00976   0.00000  Uiso   1.00
O224   O     0.51037   0.87382   0.73174   0.00000  Uiso   1.00
N225   N     0.36095   0.01330   0.79461   0.00000  Uiso   1.00
N226   N     0.52379   0.44731   0.95918   0.00000  Uiso   1.00
N227   N     0.55685   0.71479   0.76107   0.00000  Uiso   1.00
N228   N     0.20645   0.07086   0.79824   0.00000  Uiso   1.00
N229   N     0.36930   0.50487   0.96281   0.00000  Uiso   1.00
N230   N     0.40235   0.77235   0.76470   0.00000  Uiso   1.00
C231   C     0.55673   0.25888   0.15143   0.00000  Uiso   1.00
C232   C     0.62174   0.16940   0.16726   0.00000  Uiso   1.00
C233   C     0.59181   0.06125   0.17549   0.00000  Uiso   1.00
C234   C     0.66241   0.99208   0.18977   0.00000  Uiso   1.00
C235   C     0.74861   0.84739   0.21346   0.00000  Uiso   1.00
C236   C     0.61080   0.29368   0.12076   0.00000  Uiso   1.00
C237   C     0.57167   0.29004   0.08989   0.00000  Uiso   1.00
C238   C     0.63306   0.32552   0.06503   0.00000  Uiso   1.00
C239   C     0.70226   0.37385   0.01653   0.00000  Uiso   1.00
C240   C     0.56003   0.36116   0.17360   0.00000  Uiso   1.00
C241   C     0.47820   0.41428   0.18716   0.00000  Uiso   1.00
C242   C     0.49684   0.50659   0.20678   0.00000  Uiso   1.00
C243   C     0.48721   0.65969   0.24032   0.00000  Uiso   1.00
C244   C     0.73531   0.32836   0.16215   0.00000  Uiso   1.00
C245   C     0.71874   0.20714   0.17309   0.00000  Uiso   1.00
C246   C     0.78940   0.13812   0.18736   0.00000  Uiso   1.00
C247   C     0.75958   0.02989   0.19561   0.00000  Uiso   1.00
C248   C     0.70780   0.33142   0.12659   0.00000  Uiso   1.00
C249   C     0.76926   0.36692   0.10176   0.00000  Uiso   1.00
C250   C     0.73024   0.36332   0.07087   0.00000  Uiso   1.00
C251   C     0.65703   0.39890   0.17943   0.00000  Uiso   1.00
C252   C     0.67580   0.49115   0.19903   0.00000  Uiso   1.00
C253   C     0.59402   0.54439   0.21261   0.00000  Uiso   1.00
H254   H     0.48121   0.22950   0.14689   0.00000  Uiso   1.00
H255   H     0.51674   0.03207   0.17098   0.00000  Uiso   1.00
H256   H     0.49660   0.26085   0.08539   0.00000  Uiso   1.00
H257   H     0.40315   0.38505   0.18264   0.00000  Uiso   1.00
H258   H     0.59892   0.82982   0.20024   0.00000  Uiso   1.00
H259   H     0.55644   0.31223   0.01979   0.00000  Uiso   1.00
H260   H     0.35939   0.57416   0.22486   0.00000  Uiso   1.00
H261   H     0.81084   0.35774   0.16669   0.00000  Uiso   1.00
H262   H     0.86446   0.16735   0.19187   0.00000  Uiso   1.00
H263   H     0.84432   0.39612   0.10628   0.00000  Uiso   1.00
H264   H     0.75087   0.52033   0.20353   0.00000  Uiso   1.00
H265   H     0.88114   0.93961   0.21720   0.00000  Uiso   1.00
H266   H     0.83867   0.42203   0.03674   0.00000  Uiso   1.00
H267   H     0.64161   0.68395   0.24181   0.00000  Uiso   1.00
O268   O     0.76937   0.75714   0.22492   0.00000  Uiso   1.00
O269   O     0.71363   0.39007   0.98816   0.00000  Uiso   1.00
O270   O     0.45510   0.73370   0.25721   0.00000  Uiso   1.00
N271   N     0.65798   0.88180   0.20078   0.00000  Uiso   1.00
N272   N     0.61827   0.33281   0.03207   0.00000  Uiso   1.00
N273   N     0.43404   0.57770   0.22378   0.00000  Uiso   1.00
N274   N     0.80984   0.94088   0.20991   0.00000  Uiso   1.00
N275   N     0.77013   0.39189   0.04119   0.00000  Uiso   1.00
N276   N     0.58590   0.63678   0.23290   0.00000  Uiso   1.00
C277   C     0.50588   0.61329   0.33795   0.00000  Uiso   1.00
C278   C     0.58034   0.70213   0.32689   0.00000  Uiso   1.00
C279   C     0.55688   0.80889   0.31557   0.00000  Uiso   1.00
C280   C     0.63570   0.87767   0.30664   0.00000  Uiso   1.00
C281   C     0.73630   0.02123   0.28913   0.00000  Uiso   1.00
C282   C     0.53546   0.58253   0.37225   0.00000  Uiso   1.00
C283   C     0.47427   0.58872   0.39906   0.00000  Uiso   1.00
C284   C     0.51531   0.55681   0.42832   0.00000  Uiso   1.00
C285   C     0.54622   0.51461   0.48122   0.00000  Uiso   1.00
C286   C     0.52636   0.50882   0.31764   0.00000  Uiso   1.00
C287   C     0.45750   0.45302   0.29855   0.00000  Uiso   1.00
C288   C     0.49087   0.35905   0.28184   0.00000  Uiso   1.00
C289   C     0.50763   0.20241   0.24996   0.00000  Uiso   1.00
C290   C     0.68757   0.54559   0.34222   0.00000  Uiso   1.00
C291   C     0.67902   0.66535   0.32921   0.00000  Uiso   1.00
C292   C     0.75790   0.73399   0.32030   0.00000  Uiso   1.00
C293   C     0.73456   0.84084   0.30896   0.00000  Uiso   1.00
C294   C     0.63414   0.54576   0.37457   0.00000  Uiso   1.00
C295   C     0.67528   0.51383   0.40379   0.00000  Uiso   1.00
C296   C     0.61417   0.51998   0.43064   0.00000  Uiso   1.00
C297   C     0.62504   0.47205   0.31996   0.00000  Uiso   1.00
C298   C     0.65852   0.37814   0.30328   0.00000  Uiso   1.00
C299   C     0.58973   0.32221   0.28417   0.00000  Uiso   1.00
H300   H     0.42905   0.64191   0.33614   0.00000  Uiso   1.00
H301   H     0.48050   0.83732   0.31378   0.00000  Uiso   1.00
H302   H     0.39790   0.61717   0.39726   0.00000  Uiso   1.00
H303   H     0.38114   0.48150   0.29676   0.00000  Uiso   1.00
H304   H     0.58106   0.03776   0.29002   0.00000  Uiso   1.00
H305   H     0.40688   0.57353   0.46604   0.00000  Uiso   1.00
H306   H     0.37154   0.28745   0.25412   0.00000  Uiso   1.00
H307   H     0.76440   0.51696   0.34403   0.00000  Uiso   1.00
H308   H     0.83426   0.70552   0.32209   0.00000  Uiso   1.00
H309   H     0.75165   0.48537   0.40557   0.00000  Uiso   1.00
H310   H     0.73489   0.34971   0.30508   0.00000  Uiso   1.00
H311   H     0.86818   0.93079   0.29677   0.00000  Uiso   1.00
H312   H     0.69400   0.46656   0.47279   0.00000  Uiso   1.00
H313   H     0.65866   0.18048   0.26087   0.00000  Uiso   1.00
O314   O     0.76453   0.11057   0.27883   0.00000  Uiso   1.00
O315   O     0.53600   0.50151   0.50976   0.00000  Uiso   1.00
O316   O     0.48963   0.12618   0.23174   0.00000  Uiso   1.00
N317   N     0.63905   0.98670   0.29461   0.00000  Uiso   1.00
N318   N     0.47621   0.55269   0.45918   0.00000  Uiso   1.00
N319   N     0.44315   0.28521   0.26107   0.00000  Uiso   1.00
N320   N     0.79355   0.92914   0.29824   0.00000  Uiso   1.00
N321   N     0.63070   0.49513   0.46281   0.00000  Uiso   1.00
N322   N     0.59765   0.22765   0.26470   0.00000  Uiso   1.00
C323   C     0.44327   0.74112   0.65143   0.00000  Uiso   1.00
C324   C     0.37826   0.83060   0.66726   0.00000  Uiso   1.00
C325   C     0.40819   0.93875   0.67549   0.00000  Uiso   1.00
C326   C     0.33759   0.00792   0.68977   0.00000  Uiso   1.00
C327   C     0.25139   0.15261   0.71346   0.00000  Uiso   1.00
C328   C     0.38920   0.70632   0.62076   0.00000  Uiso   1.00
C329   C     0.42833   0.70996   0.58989   0.00000  Uiso   1.00
C330   C     0.36694   0.67448   0.56503   0.00000  Uiso   1.00
C331   C     0.29774   0.62615   0.51653   0.00000  Uiso   1.00
C332   C     0.43997   0.63884   0.67360   0.00000  Uiso   1.00
C333   C     0.52180   0.58572   0.68716   0.00000  Uiso   1.00
C334   C     0.50316   0.49341   0.70678   0.00000  Uiso   1.00
C335   C     0.51279   0.34031   0.74032   0.00000  Uiso   1.00
C336   C     0.26469   0.67164   0.66215   0.00000  Uiso   1.00
C337   C     0.28126   0.79286   0.67309   0.00000  Uiso   1.00
C338   C     0.21060   0.86188   0.68736   0.00000  Uiso   1.00
C339   C     0.24042   0.97011   0.69561   0.00000  Uiso   1.00
C340   C     0.29220   0.66858   0.62659   0.00000  Uiso   1.00
C341   C     0.23074   0.63308   0.60176   0.00000  Uiso   1.00
C342   C     0.26976   0.63668   0.57087   0.00000  Uiso   1.00
C343   C     0.34297   0.60110   0.67943   0.00000  Uiso   1.00
C344   C     0.32420   0.50885   0.69903   0.00000  Uiso   1.00
C345   C     0.40598   0.45561   0.71261   0.00000  Uiso   1.00
H346   H     0.51879   0.77050   0.64689   0.00000  Uiso   1.00
H347   H     0.48326   0.96793   0.67098   0.00000  Uiso   1.00
H348   H     0.50340   0.73915   0.58539   0.00000  Uiso   1.00
H349   H     0.59685   0.61495   0.68264   0.00000  Uiso   1.00
H350   H     0.40108   0.17018   0.70024   0.00000  Uiso   1.00
H351   H     0.44356   0.68777   0.51979   0.00000  Uiso   1.00
H352   H     0.64061   0.42584   0.72486   0.00000  Uiso   1.00
H353   H     0.18916   0.64226   0.66669   0.00000  Uiso   1.00
H354   H     0.13554   0.83265   0.69187   0.00000  Uiso   1.00
H355   H     0.15568   0.60388   0.60628   0.00000  Uiso   1.00
H356   H     0.24913   0.47967   0.70353   0.00000  Uiso   1.00
H357   H     0.11886   0.06039   0.71720   0.00000  Uiso   1.00
H358   H     0.16133   0.57797   0.53674   0.00000  Uiso   1.00
H359   H     0.35839   0.31605   0.74181   0.00000  Uiso   1.00
O360   O     0.23063   0.24286   0.72492   0.00000  Uiso   1.00
O361   O     0.28637   0.60993   0.48816   0.00000  Uiso   1.00
O362   O     0.54490   0.26630   0.75721   0.00000  Uiso   1.00
N363   N     0.34202   0.11820   0.70078   0.00000  Uiso   1.00
N364   N     0.38173   0.66719   0.53207   0.00000  Uiso   1.00
N365   N     0.56596   0.42230   0.72378   0.00000  Uiso   1.00
N366   N     0.19016   0.05912   0.70991   0.00000  Uiso   1.00
N367   N     0.22987   0.60811   0.54119   0.00000  Uiso   1.00
N368   N     0.41410   0.36322   0.73290   0.00000  Uiso   1.00
