data_job_05680
_audit_creation_date              2018-12-19
_audit_creation_method            'Materials Studio'
_symmetry_space_group_name_H-M    'P1'
_symmetry_Int_Tables_number       1
_symmetry_cell_setting            triclinic
loop_
_symmetry_equiv_pos_as_xyz
  x,y,z
_cell_length_a                    21.4410
_cell_length_b                    16.5550
_cell_length_c                    16.9758
_cell_angle_alpha                 90.0000
_cell_angle_beta                  90.0000
_cell_angle_gamma                 90.0000
loop_
_atom_site_label
_atom_site_type_symbol
_atom_site_fract_x
_atom_site_fract_y
_atom_site_fract_z
_atom_site_U_iso_or_equiv
_atom_site_adp_type
_atom_site_occupancy
C1     C     0.28195   0.44688   0.60681   0.00000  Uiso   1.00
C2     C     0.31464   0.49667   0.54351   0.00000  Uiso   1.00
C3     C     0.34245   0.57150   0.55465   0.00000  Uiso   1.00
C4     C     0.36990   0.60724   0.48929   0.00000  Uiso   1.00
C5     C     0.42069   0.69033   0.40222   0.00000  Uiso   1.00
C6     C     0.21619   0.43127   0.57617   0.00000  Uiso   1.00
C7     C     0.16122   0.45110   0.61477   0.00000  Uiso   1.00
C8     C     0.10579   0.43179   0.57690   0.00000  Uiso   1.00
C9     C     0.00374   0.41328   0.54056   0.00000  Uiso   1.00
C10    C     0.31453   0.36501   0.60764   0.00000  Uiso   1.00
C11    C     0.34225   0.32911   0.67270   0.00000  Uiso   1.00
C12    C     0.36961   0.25400   0.66133   0.00000  Uiso   1.00
C13    C     0.42025   0.13261   0.67385   0.00000  Uiso   1.00
C14    C     0.28125   0.37729   0.47094   0.00000  Uiso   1.00
C15    C     0.31426   0.45887   0.46971   0.00000  Uiso   1.00
C16    C     0.34167   0.49451   0.40432   0.00000  Uiso   1.00
C17    C     0.36952   0.56938   0.41536   0.00000  Uiso   1.00
C18    C     0.21581   0.39348   0.50237   0.00000  Uiso   1.00
C19    C     0.16045   0.37412   0.46444   0.00000  Uiso   1.00
C20    C     0.10541   0.39392   0.50297   0.00000  Uiso   1.00
C21    C     0.31416   0.32721   0.53384   0.00000  Uiso   1.00
C22    C     0.34147   0.25213   0.52237   0.00000  Uiso   1.00
C23    C     0.36923   0.21613   0.58740   0.00000  Uiso   1.00
H24    H     0.28224   0.47630   0.66427   0.00000  Uiso   1.00
H25    H     0.34273   0.60073   0.61177   0.00000  Uiso   1.00
H26    H     0.16153   0.48034   0.67189   0.00000  Uiso   1.00
H27    H     0.34253   0.35838   0.72980   0.00000  Uiso   1.00
H28    H     0.40960   0.72203   0.52101   0.00000  Uiso   1.00
H29    H     0.02754   0.46817   0.64778   0.00000  Uiso   1.00
H30    H     0.40921   0.21098   0.76991   0.00000  Uiso   1.00
H31    H     0.28095   0.34786   0.41348   0.00000  Uiso   1.00
H32    H     0.34137   0.46525   0.34721   0.00000  Uiso   1.00
H33    H     0.16017   0.34486   0.40733   0.00000  Uiso   1.00
H34    H     0.34117   0.22290   0.46525   0.00000  Uiso   1.00
H35    H     0.40850   0.61207   0.30629   0.00000  Uiso   1.00
H36    H     0.02643   0.35820   0.43306   0.00000  Uiso   1.00
H37    H     0.40811   0.10102   0.55519   0.00000  Uiso   1.00
O38    O     0.44880   0.74660   0.37458   0.00000  Uiso   1.00
O39    O     0.94755   0.41353   0.54090   0.00000  Uiso   1.00
O40    O     0.44829   0.07611   0.70114   0.00000  Uiso   1.00
N41    N     0.40106   0.68003   0.47958   0.00000  Uiso   1.00
N42    N     0.04385   0.44270   0.59809   0.00000  Uiso   1.00
N43    N     0.40067   0.20224   0.71228   0.00000  Uiso   1.00
N44    N     0.40047   0.62087   0.36403   0.00000  Uiso   1.00
N45    N     0.04326   0.38353   0.48255   0.00000  Uiso   1.00
N46    N     0.40008   0.14307   0.59674   0.00000  Uiso   1.00
C47    C     0.21805   0.05312   0.10681   0.00000  Uiso   1.00
C48    C     0.18536   0.00333   0.04351   0.00000  Uiso   1.00
C49    C     0.15755   0.92850   0.05465   0.00000  Uiso   1.00
C50    C     0.13010   0.89276   0.98929   0.00000  Uiso   1.00
C51    C     0.07931   0.80967   0.90222   0.00000  Uiso   1.00
C52    C     0.28381   0.06873   0.07617   0.00000  Uiso   1.00
C53    C     0.33878   0.04890   0.11477   0.00000  Uiso   1.00
C54    C     0.39421   0.06821   0.07690   0.00000  Uiso   1.00
C55    C     0.49626   0.08672   0.04056   0.00000  Uiso   1.00
C56    C     0.18547   0.13499   0.10764   0.00000  Uiso   1.00
C57    C     0.15775   0.17089   0.17270   0.00000  Uiso   1.00
C58    C     0.13039   0.24600   0.16133   0.00000  Uiso   1.00
C59    C     0.07975   0.36739   0.17385   0.00000  Uiso   1.00
C60    C     0.21875   0.12271   0.97094   0.00000  Uiso   1.00
C61    C     0.18574   0.04113   0.96971   0.00000  Uiso   1.00
C62    C     0.15833   0.00549   0.90432   0.00000  Uiso   1.00
C63    C     0.13048   0.93062   0.91536   0.00000  Uiso   1.00
C64    C     0.28419   0.10652   0.00237   0.00000  Uiso   1.00
C65    C     0.33955   0.12588   0.96444   0.00000  Uiso   1.00
C66    C     0.39459   0.10608   0.00297   0.00000  Uiso   1.00
C67    C     0.18584   0.17279   0.03384   0.00000  Uiso   1.00
C68    C     0.15853   0.24787   0.02237   0.00000  Uiso   1.00
C69    C     0.13077   0.28387   0.08740   0.00000  Uiso   1.00
H70    H     0.21776   0.02370   0.16427   0.00000  Uiso   1.00
H71    H     0.15727   0.89927   0.11177   0.00000  Uiso   1.00
H72    H     0.33847   0.01966   0.17189   0.00000  Uiso   1.00
H73    H     0.15747   0.14162   0.22980   0.00000  Uiso   1.00
H74    H     0.09040   0.77797   0.02101   0.00000  Uiso   1.00
H75    H     0.47246   0.03183   0.14778   0.00000  Uiso   1.00
H76    H     0.09079   0.28902   0.26991   0.00000  Uiso   1.00
H77    H     0.21905   0.15214   0.91348   0.00000  Uiso   1.00
H78    H     0.15863   0.03475   0.84721   0.00000  Uiso   1.00
H79    H     0.33983   0.15514   0.90733   0.00000  Uiso   1.00
H80    H     0.15883   0.27710   0.96525   0.00000  Uiso   1.00
H81    H     0.09150   0.88793   0.80629   0.00000  Uiso   1.00
H82    H     0.47357   0.14180   0.93306   0.00000  Uiso   1.00
H83    H     0.09189   0.39898   0.05519   0.00000  Uiso   1.00
O84    O     0.05120   0.75340   0.87458   0.00000  Uiso   1.00
O85    O     0.55245   0.08647   0.04090   0.00000  Uiso   1.00
O86    O     0.05171   0.42389   0.20114   0.00000  Uiso   1.00
N87    N     0.09894   0.81997   0.97958   0.00000  Uiso   1.00
N88    N     0.45615   0.05730   0.09809   0.00000  Uiso   1.00
N89    N     0.09933   0.29776   0.21228   0.00000  Uiso   1.00
N90    N     0.09953   0.87913   0.86403   0.00000  Uiso   1.00
N91    N     0.45674   0.11647   0.98255   0.00000  Uiso   1.00
N92    N     0.09992   0.35693   0.09674   0.00000  Uiso   1.00
C93    C     0.71805   0.44688   0.89319   0.00000  Uiso   1.00
C94    C     0.68536   0.49667   0.95649   0.00000  Uiso   1.00
C95    C     0.65755   0.57150   0.94535   0.00000  Uiso   1.00
C96    C     0.63010   0.60724   0.01071   0.00000  Uiso   1.00
C97    C     0.57931   0.69033   0.09778   0.00000  Uiso   1.00
C98    C     0.78381   0.43127   0.92383   0.00000  Uiso   1.00
C99    C     0.83878   0.45110   0.88523   0.00000  Uiso   1.00
C100   C     0.89421   0.43179   0.92310   0.00000  Uiso   1.00
C101   C     0.99626   0.41328   0.95944   0.00000  Uiso   1.00
C102   C     0.68547   0.36501   0.89236   0.00000  Uiso   1.00
C103   C     0.65775   0.32911   0.82730   0.00000  Uiso   1.00
C104   C     0.63039   0.25400   0.83867   0.00000  Uiso   1.00
C105   C     0.57975   0.13261   0.82615   0.00000  Uiso   1.00
C106   C     0.71875   0.37729   0.02906   0.00000  Uiso   1.00
C107   C     0.68574   0.45887   0.03029   0.00000  Uiso   1.00
C108   C     0.65833   0.49451   0.09568   0.00000  Uiso   1.00
C109   C     0.63048   0.56938   0.08464   0.00000  Uiso   1.00
C110   C     0.78419   0.39348   0.99763   0.00000  Uiso   1.00
C111   C     0.83955   0.37412   0.03556   0.00000  Uiso   1.00
C112   C     0.89459   0.39392   0.99703   0.00000  Uiso   1.00
C113   C     0.68584   0.32721   0.96616   0.00000  Uiso   1.00
C114   C     0.65853   0.25213   0.97763   0.00000  Uiso   1.00
C115   C     0.63077   0.21613   0.91260   0.00000  Uiso   1.00
H116   H     0.71776   0.47630   0.83573   0.00000  Uiso   1.00
H117   H     0.65727   0.60073   0.88823   0.00000  Uiso   1.00
H118   H     0.83847   0.48034   0.82811   0.00000  Uiso   1.00
H119   H     0.65747   0.35838   0.77020   0.00000  Uiso   1.00
H120   H     0.59040   0.72203   0.97899   0.00000  Uiso   1.00
H121   H     0.97246   0.46817   0.85222   0.00000  Uiso   1.00
H122   H     0.59079   0.21098   0.73009   0.00000  Uiso   1.00
H123   H     0.71905   0.34786   0.08652   0.00000  Uiso   1.00
H124   H     0.65863   0.46525   0.15279   0.00000  Uiso   1.00
H125   H     0.83983   0.34486   0.09267   0.00000  Uiso   1.00
H126   H     0.65883   0.22290   0.03475   0.00000  Uiso   1.00
H127   H     0.59150   0.61207   0.19371   0.00000  Uiso   1.00
H128   H     0.97357   0.35820   0.06694   0.00000  Uiso   1.00
H129   H     0.59189   0.10102   0.94481   0.00000  Uiso   1.00
O130   O     0.55120   0.74660   0.12542   0.00000  Uiso   1.00
O131   O     0.05245   0.41353   0.95910   0.00000  Uiso   1.00
O132   O     0.55171   0.07611   0.79886   0.00000  Uiso   1.00
N133   N     0.59894   0.68003   0.02042   0.00000  Uiso   1.00
N134   N     0.95615   0.44270   0.90191   0.00000  Uiso   1.00
N135   N     0.59933   0.20224   0.78772   0.00000  Uiso   1.00
N136   N     0.59953   0.62087   0.13597   0.00000  Uiso   1.00
N137   N     0.95674   0.38353   0.01745   0.00000  Uiso   1.00
N138   N     0.59992   0.14307   0.90326   0.00000  Uiso   1.00
C139   C     0.78195   0.05312   0.39319   0.00000  Uiso   1.00
C140   C     0.81464   0.00333   0.45649   0.00000  Uiso   1.00
C141   C     0.84245   0.92850   0.44535   0.00000  Uiso   1.00
C142   C     0.86990   0.89276   0.51071   0.00000  Uiso   1.00
C143   C     0.92069   0.80967   0.59778   0.00000  Uiso   1.00
C144   C     0.71619   0.06873   0.42383   0.00000  Uiso   1.00
C145   C     0.66122   0.04890   0.38523   0.00000  Uiso   1.00
C146   C     0.60579   0.06821   0.42310   0.00000  Uiso   1.00
C147   C     0.50374   0.08672   0.45944   0.00000  Uiso   1.00
C148   C     0.81453   0.13499   0.39236   0.00000  Uiso   1.00
C149   C     0.84225   0.17089   0.32730   0.00000  Uiso   1.00
C150   C     0.86961   0.24600   0.33867   0.00000  Uiso   1.00
C151   C     0.92025   0.36739   0.32615   0.00000  Uiso   1.00
C152   C     0.78125   0.12271   0.52906   0.00000  Uiso   1.00
C153   C     0.81426   0.04113   0.53029   0.00000  Uiso   1.00
C154   C     0.84167   0.00549   0.59568   0.00000  Uiso   1.00
C155   C     0.86952   0.93062   0.58464   0.00000  Uiso   1.00
C156   C     0.71581   0.10652   0.49763   0.00000  Uiso   1.00
C157   C     0.66045   0.12588   0.53556   0.00000  Uiso   1.00
C158   C     0.60541   0.10608   0.49703   0.00000  Uiso   1.00
C159   C     0.81416   0.17279   0.46616   0.00000  Uiso   1.00
C160   C     0.84147   0.24787   0.47763   0.00000  Uiso   1.00
C161   C     0.86923   0.28387   0.41260   0.00000  Uiso   1.00
H162   H     0.78224   0.02370   0.33573   0.00000  Uiso   1.00
H163   H     0.84273   0.89927   0.38823   0.00000  Uiso   1.00
H164   H     0.66153   0.01966   0.32811   0.00000  Uiso   1.00
H165   H     0.84253   0.14162   0.27020   0.00000  Uiso   1.00
H166   H     0.90960   0.77797   0.47899   0.00000  Uiso   1.00
H167   H     0.52754   0.03183   0.35222   0.00000  Uiso   1.00
H168   H     0.90921   0.28902   0.23009   0.00000  Uiso   1.00
H169   H     0.78095   0.15214   0.58652   0.00000  Uiso   1.00
H170   H     0.84137   0.03475   0.65279   0.00000  Uiso   1.00
H171   H     0.66017   0.15514   0.59267   0.00000  Uiso   1.00
H172   H     0.84117   0.27710   0.53475   0.00000  Uiso   1.00
H173   H     0.90850   0.88793   0.69371   0.00000  Uiso   1.00
H174   H     0.52643   0.14180   0.56694   0.00000  Uiso   1.00
H175   H     0.90811   0.39898   0.44481   0.00000  Uiso   1.00
O176   O     0.94880   0.75340   0.62542   0.00000  Uiso   1.00
O177   O     0.44755   0.08647   0.45910   0.00000  Uiso   1.00
O178   O     0.94829   0.42389   0.29886   0.00000  Uiso   1.00
N179   N     0.90106   0.81997   0.52042   0.00000  Uiso   1.00
N180   N     0.54385   0.05730   0.40191   0.00000  Uiso   1.00
N181   N     0.90067   0.29776   0.28772   0.00000  Uiso   1.00
N182   N     0.90047   0.87913   0.63597   0.00000  Uiso   1.00
N183   N     0.54326   0.11647   0.51745   0.00000  Uiso   1.00
N184   N     0.90008   0.35693   0.40326   0.00000  Uiso   1.00
C185   C     0.71805   0.55312   0.39319   0.00000  Uiso   1.00
C186   C     0.68536   0.50333   0.45649   0.00000  Uiso   1.00
C187   C     0.65755   0.42850   0.44535   0.00000  Uiso   1.00
C188   C     0.63010   0.39276   0.51071   0.00000  Uiso   1.00
C189   C     0.57931   0.30967   0.59778   0.00000  Uiso   1.00
C190   C     0.78381   0.56873   0.42383   0.00000  Uiso   1.00
C191   C     0.83878   0.54890   0.38523   0.00000  Uiso   1.00
C192   C     0.89421   0.56821   0.42310   0.00000  Uiso   1.00
C193   C     0.99626   0.58672   0.45944   0.00000  Uiso   1.00
C194   C     0.68547   0.63499   0.39236   0.00000  Uiso   1.00
C195   C     0.65775   0.67089   0.32730   0.00000  Uiso   1.00
C196   C     0.63039   0.74600   0.33867   0.00000  Uiso   1.00
C197   C     0.57975   0.86739   0.32615   0.00000  Uiso   1.00
C198   C     0.71875   0.62271   0.52906   0.00000  Uiso   1.00
C199   C     0.68574   0.54113   0.53029   0.00000  Uiso   1.00
C200   C     0.65833   0.50549   0.59568   0.00000  Uiso   1.00
C201   C     0.63048   0.43062   0.58464   0.00000  Uiso   1.00
C202   C     0.78419   0.60652   0.49763   0.00000  Uiso   1.00
C203   C     0.83955   0.62588   0.53556   0.00000  Uiso   1.00
C204   C     0.89459   0.60608   0.49703   0.00000  Uiso   1.00
C205   C     0.68584   0.67279   0.46616   0.00000  Uiso   1.00
C206   C     0.65853   0.74787   0.47763   0.00000  Uiso   1.00
C207   C     0.63077   0.78387   0.41260   0.00000  Uiso   1.00
H208   H     0.71776   0.52370   0.33573   0.00000  Uiso   1.00
H209   H     0.65727   0.39927   0.38823   0.00000  Uiso   1.00
H210   H     0.83847   0.51966   0.32811   0.00000  Uiso   1.00
H211   H     0.65747   0.64162   0.27020   0.00000  Uiso   1.00
H212   H     0.59040   0.27797   0.47899   0.00000  Uiso   1.00
H213   H     0.97246   0.53183   0.35222   0.00000  Uiso   1.00
H214   H     0.59079   0.78902   0.23009   0.00000  Uiso   1.00
H215   H     0.71905   0.65214   0.58652   0.00000  Uiso   1.00
H216   H     0.65863   0.53475   0.65279   0.00000  Uiso   1.00
H217   H     0.83983   0.65514   0.59267   0.00000  Uiso   1.00
H218   H     0.65883   0.77710   0.53475   0.00000  Uiso   1.00
H219   H     0.59150   0.38793   0.69371   0.00000  Uiso   1.00
H220   H     0.97357   0.64180   0.56694   0.00000  Uiso   1.00
H221   H     0.59189   0.89898   0.44481   0.00000  Uiso   1.00
O222   O     0.55120   0.25340   0.62542   0.00000  Uiso   1.00
O223   O     0.05245   0.58647   0.45910   0.00000  Uiso   1.00
O224   O     0.55171   0.92389   0.29886   0.00000  Uiso   1.00
N225   N     0.59894   0.31997   0.52042   0.00000  Uiso   1.00
N226   N     0.95615   0.55730   0.40191   0.00000  Uiso   1.00
N227   N     0.59933   0.79776   0.28772   0.00000  Uiso   1.00
N228   N     0.59953   0.37913   0.63597   0.00000  Uiso   1.00
N229   N     0.95674   0.61647   0.51745   0.00000  Uiso   1.00
N230   N     0.59992   0.85693   0.40326   0.00000  Uiso   1.00
C231   C     0.78195   0.94688   0.89319   0.00000  Uiso   1.00
C232   C     0.81464   0.99667   0.95649   0.00000  Uiso   1.00
C233   C     0.84245   0.07150   0.94535   0.00000  Uiso   1.00
C234   C     0.86990   0.10724   0.01071   0.00000  Uiso   1.00
C235   C     0.92069   0.19033   0.09778   0.00000  Uiso   1.00
C236   C     0.71619   0.93127   0.92383   0.00000  Uiso   1.00
C237   C     0.66122   0.95110   0.88523   0.00000  Uiso   1.00
C238   C     0.60579   0.93179   0.92310   0.00000  Uiso   1.00
C239   C     0.50374   0.91328   0.95944   0.00000  Uiso   1.00
C240   C     0.81453   0.86501   0.89236   0.00000  Uiso   1.00
C241   C     0.84225   0.82911   0.82730   0.00000  Uiso   1.00
C242   C     0.86961   0.75400   0.83867   0.00000  Uiso   1.00
C243   C     0.92025   0.63261   0.82615   0.00000  Uiso   1.00
C244   C     0.78125   0.87729   0.02906   0.00000  Uiso   1.00
C245   C     0.81426   0.95887   0.03029   0.00000  Uiso   1.00
C246   C     0.84167   0.99451   0.09568   0.00000  Uiso   1.00
C247   C     0.86952   0.06938   0.08464   0.00000  Uiso   1.00
C248   C     0.71581   0.89348   0.99763   0.00000  Uiso   1.00
C249   C     0.66045   0.87412   0.03556   0.00000  Uiso   1.00
C250   C     0.60541   0.89392   0.99703   0.00000  Uiso   1.00
C251   C     0.81416   0.82721   0.96616   0.00000  Uiso   1.00
C252   C     0.84147   0.75213   0.97763   0.00000  Uiso   1.00
C253   C     0.86923   0.71613   0.91260   0.00000  Uiso   1.00
H254   H     0.78224   0.97630   0.83573   0.00000  Uiso   1.00
H255   H     0.84273   0.10073   0.88823   0.00000  Uiso   1.00
H256   H     0.66153   0.98034   0.82811   0.00000  Uiso   1.00
H257   H     0.84253   0.85838   0.77020   0.00000  Uiso   1.00
H258   H     0.90960   0.22203   0.97899   0.00000  Uiso   1.00
H259   H     0.52754   0.96817   0.85222   0.00000  Uiso   1.00
H260   H     0.90921   0.71098   0.73009   0.00000  Uiso   1.00
H261   H     0.78095   0.84786   0.08652   0.00000  Uiso   1.00
H262   H     0.84137   0.96525   0.15279   0.00000  Uiso   1.00
H263   H     0.66017   0.84486   0.09267   0.00000  Uiso   1.00
H264   H     0.84117   0.72290   0.03475   0.00000  Uiso   1.00
H265   H     0.90850   0.11207   0.19371   0.00000  Uiso   1.00
H266   H     0.52643   0.85820   0.06694   0.00000  Uiso   1.00
H267   H     0.90811   0.60102   0.94481   0.00000  Uiso   1.00
O268   O     0.94880   0.24660   0.12542   0.00000  Uiso   1.00
O269   O     0.44755   0.91353   0.95910   0.00000  Uiso   1.00
O270   O     0.94829   0.57611   0.79886   0.00000  Uiso   1.00
N271   N     0.90106   0.18003   0.02042   0.00000  Uiso   1.00
N272   N     0.54385   0.94270   0.90191   0.00000  Uiso   1.00
N273   N     0.90067   0.70224   0.78772   0.00000  Uiso   1.00
N274   N     0.90047   0.12087   0.13597   0.00000  Uiso   1.00
N275   N     0.54326   0.88353   0.01745   0.00000  Uiso   1.00
N276   N     0.90008   0.64307   0.90326   0.00000  Uiso   1.00
C277   C     0.28195   0.55312   0.10681   0.00000  Uiso   1.00
C278   C     0.31464   0.50333   0.04351   0.00000  Uiso   1.00
C279   C     0.34245   0.42850   0.05465   0.00000  Uiso   1.00
C280   C     0.36990   0.39276   0.98929   0.00000  Uiso   1.00
C281   C     0.42069   0.30967   0.90222   0.00000  Uiso   1.00
C282   C     0.21619   0.56873   0.07617   0.00000  Uiso   1.00
C283   C     0.16122   0.54890   0.11477   0.00000  Uiso   1.00
C284   C     0.10579   0.56821   0.07690   0.00000  Uiso   1.00
C285   C     0.00374   0.58672   0.04056   0.00000  Uiso   1.00
C286   C     0.31453   0.63499   0.10764   0.00000  Uiso   1.00
C287   C     0.34225   0.67089   0.17270   0.00000  Uiso   1.00
C288   C     0.36961   0.74600   0.16133   0.00000  Uiso   1.00
C289   C     0.42025   0.86739   0.17385   0.00000  Uiso   1.00
C290   C     0.28125   0.62271   0.97094   0.00000  Uiso   1.00
C291   C     0.31426   0.54113   0.96971   0.00000  Uiso   1.00
C292   C     0.34167   0.50549   0.90432   0.00000  Uiso   1.00
C293   C     0.36952   0.43062   0.91536   0.00000  Uiso   1.00
C294   C     0.21581   0.60652   0.00237   0.00000  Uiso   1.00
C295   C     0.16045   0.62588   0.96444   0.00000  Uiso   1.00
C296   C     0.10541   0.60608   0.00297   0.00000  Uiso   1.00
C297   C     0.31416   0.67279   0.03384   0.00000  Uiso   1.00
C298   C     0.34147   0.74787   0.02237   0.00000  Uiso   1.00
C299   C     0.36923   0.78387   0.08740   0.00000  Uiso   1.00
H300   H     0.28224   0.52370   0.16427   0.00000  Uiso   1.00
H301   H     0.34273   0.39927   0.11177   0.00000  Uiso   1.00
H302   H     0.16153   0.51966   0.17189   0.00000  Uiso   1.00
H303   H     0.34253   0.64162   0.22980   0.00000  Uiso   1.00
H304   H     0.40960   0.27797   0.02101   0.00000  Uiso   1.00
H305   H     0.02754   0.53183   0.14778   0.00000  Uiso   1.00
H306   H     0.40921   0.78902   0.26991   0.00000  Uiso   1.00
H307   H     0.28095   0.65214   0.91348   0.00000  Uiso   1.00
H308   H     0.34137   0.53475   0.84721   0.00000  Uiso   1.00
H309   H     0.16017   0.65514   0.90733   0.00000  Uiso   1.00
H310   H     0.34117   0.77710   0.96525   0.00000  Uiso   1.00
H311   H     0.40850   0.38793   0.80629   0.00000  Uiso   1.00
H312   H     0.02643   0.64180   0.93306   0.00000  Uiso   1.00
H313   H     0.40811   0.89898   0.05519   0.00000  Uiso   1.00
O314   O     0.44880   0.25340   0.87458   0.00000  Uiso   1.00
O315   O     0.94755   0.58647   0.04090   0.00000  Uiso   1.00
O316   O     0.44829   0.92389   0.20114   0.00000  Uiso   1.00
N317   N     0.40106   0.31997   0.97958   0.00000  Uiso   1.00
N318   N     0.04385   0.55730   0.09809   0.00000  Uiso   1.00
N319   N     0.40067   0.79776   0.21228   0.00000  Uiso   1.00
N320   N     0.40047   0.37913   0.86403   0.00000  Uiso   1.00
N321   N     0.04326   0.61647   0.98255   0.00000  Uiso   1.00
N322   N     0.40008   0.85693   0.09674   0.00000  Uiso   1.00
C323   C     0.21805   0.94688   0.60681   0.00000  Uiso   1.00
C324   C     0.18536   0.99667   0.54351   0.00000  Uiso   1.00
C325   C     0.15755   0.07150   0.55465   0.00000  Uiso   1.00
C326   C     0.13010   0.10724   0.48929   0.00000  Uiso   1.00
C327   C     0.07931   0.19033   0.40222   0.00000  Uiso   1.00
C328   C     0.28381   0.93127   0.57617   0.00000  Uiso   1.00
C329   C     0.33878   0.95110   0.61477   0.00000  Uiso   1.00
C330   C     0.39421   0.93179   0.57690   0.00000  Uiso   1.00
C331   C     0.49626   0.91328   0.54056   0.00000  Uiso   1.00
C332   C     0.18547   0.86501   0.60764   0.00000  Uiso   1.00
C333   C     0.15775   0.82911   0.67270   0.00000  Uiso   1.00
C334   C     0.13039   0.75400   0.66133   0.00000  Uiso   1.00
C335   C     0.07975   0.63261   0.67385   0.00000  Uiso   1.00
C336   C     0.21875   0.87729   0.47094   0.00000  Uiso   1.00
C337   C     0.18574   0.95887   0.46971   0.00000  Uiso   1.00
C338   C     0.15833   0.99451   0.40432   0.00000  Uiso   1.00
C339   C     0.13048   0.06938   0.41536   0.00000  Uiso   1.00
C340   C     0.28419   0.89348   0.50237   0.00000  Uiso   1.00
C341   C     0.33955   0.87412   0.46444   0.00000  Uiso   1.00
C342   C     0.39459   0.89392   0.50297   0.00000  Uiso   1.00
C343   C     0.18584   0.82721   0.53384   0.00000  Uiso   1.00
C344   C     0.15853   0.75213   0.52237   0.00000  Uiso   1.00
C345   C     0.13077   0.71613   0.58740   0.00000  Uiso   1.00
H346   H     0.21776   0.97630   0.66427   0.00000  Uiso   1.00
H347   H     0.15727   0.10073   0.61177   0.00000  Uiso   1.00
H348   H     0.33847   0.98034   0.67189   0.00000  Uiso   1.00
H349   H     0.15747   0.85838   0.72980   0.00000  Uiso   1.00
H350   H     0.09040   0.22203   0.52101   0.00000  Uiso   1.00
H351   H     0.47246   0.96817   0.64778   0.00000  Uiso   1.00
H352   H     0.09079   0.71098   0.76991   0.00000  Uiso   1.00
H353   H     0.21905   0.84786   0.41348   0.00000  Uiso   1.00
H354   H     0.15863   0.96525   0.34721   0.00000  Uiso   1.00
H355   H     0.33983   0.84486   0.40733   0.00000  Uiso   1.00
H356   H     0.15883   0.72290   0.46525   0.00000  Uiso   1.00
H357   H     0.09150   0.11207   0.30629   0.00000  Uiso   1.00
H358   H     0.47357   0.85820   0.43306   0.00000  Uiso   1.00
H359   H     0.09189   0.60102   0.55519   0.00000  Uiso   1.00
O360   O     0.05120   0.24660   0.37458   0.00000  Uiso   1.00
O361   O     0.55245   0.91353   0.54090   0.00000  Uiso   1.00
O362   O     0.05171   0.57611   0.70114   0.00000  Uiso   1.00
N363   N     0.09894   0.18003   0.47958   0.00000  Uiso   1.00
N364   N     0.45615   0.94270   0.59809   0.00000  Uiso   1.00
N365   N     0.09933   0.70224   0.71228   0.00000  Uiso   1.00
N366   N     0.09953   0.12087   0.36403   0.00000  Uiso   1.00
N367   N     0.45674   0.88353   0.48255   0.00000  Uiso   1.00
N368   N     0.09992   0.64307   0.59674   0.00000  Uiso   1.00
