data_job_02358
_audit_creation_date              2018-12-19
_audit_creation_method            'Materials Studio'
_symmetry_space_group_name_H-M    'P1'
_symmetry_Int_Tables_number       1
_symmetry_cell_setting            triclinic
loop_
_symmetry_equiv_pos_as_xyz
  x,y,z
_cell_length_a                    22.8442
_cell_length_b                    29.7223
_cell_length_c                    12.0183
_cell_angle_alpha                 90.0000
_cell_angle_beta                  90.0000
_cell_angle_gamma                 90.0000
loop_
_atom_site_label
_atom_site_type_symbol
_atom_site_fract_x
_atom_site_fract_y
_atom_site_fract_z
_atom_site_U_iso_or_equiv
_atom_site_adp_type
_atom_site_occupancy
C1     C     0.89907   0.10136   0.52130   0.00000  Uiso   1.00
C2     C     0.86201   0.14138   0.48469   0.00000  Uiso   1.00
C3     C     0.80443   0.14947   0.51562   0.00000  Uiso   1.00
C4     C     0.77818   0.18795   0.47321   0.00000  Uiso   1.00
C5     C     0.71601   0.24562   0.42708   0.00000  Uiso   1.00
C6     C     0.91969   0.07852   0.41466   0.00000  Uiso   1.00
C7     C     0.91062   0.03376   0.38672   0.00000  Uiso   1.00
C8     C     0.93293   0.01932   0.28536   0.00000  Uiso   1.00
C9     C     0.96035   0.97939   0.13055   0.00000  Uiso   1.00
C10    C     0.95373   0.12116   0.57524   0.00000  Uiso   1.00
C11    C     0.97329   0.11223   0.68231   0.00000  Uiso   1.00
C12    C     0.02427   0.13368   0.71614   0.00000  Uiso   1.00
C13    C     0.10454   0.15995   0.81066   0.00000  Uiso   1.00
C14    C     0.95483   0.15532   0.39098   0.00000  Uiso   1.00
C15    C     0.89229   0.17069   0.41390   0.00000  Uiso   1.00
C16    C     0.86612   0.20917   0.37143   0.00000  Uiso   1.00
C17    C     0.80852   0.21731   0.40230   0.00000  Uiso   1.00
C18    C     0.94997   0.10783   0.34387   0.00000  Uiso   1.00
C19    C     0.97230   0.09345   0.24253   0.00000  Uiso   1.00
C20    C     0.96327   0.04868   0.21445   0.00000  Uiso   1.00
C21    C     0.98401   0.15047   0.50445   0.00000  Uiso   1.00
C22    C     0.03497   0.17193   0.53812   0.00000  Uiso   1.00
C23    C     0.05460   0.16304   0.64523   0.00000  Uiso   1.00
H24    H     0.87550   0.07854   0.57641   0.00000  Uiso   1.00
H25    H     0.78101   0.12678   0.57040   0.00000  Uiso   1.00
H26    H     0.88719   0.01108   0.44153   0.00000  Uiso   1.00
H27    H     0.94984   0.08955   0.73707   0.00000  Uiso   1.00
H28    H     0.68960   0.19317   0.53249   0.00000  Uiso   1.00
H29    H     0.91350   0.94922   0.26076   0.00000  Uiso   1.00
H30    H     0.04562   0.11468   0.88398   0.00000  Uiso   1.00
H31    H     0.97841   0.17814   0.33586   0.00000  Uiso   1.00
H32    H     0.88957   0.23184   0.31665   0.00000  Uiso   1.00
H33    H     0.99574   0.11614   0.18778   0.00000  Uiso   1.00
H34    H     0.05840   0.19461   0.48332   0.00000  Uiso   1.00
H35    H     0.77771   0.27844   0.32653   0.00000  Uiso   1.00
H36    H     0.00160   0.03449   0.05481   0.00000  Uiso   1.00
H37    H     0.13373   0.19995   0.67802   0.00000  Uiso   1.00
O38    O     0.67335   0.26933   0.42118   0.00000  Uiso   1.00
O39    O     0.96710   0.94927   0.06471   0.00000  Uiso   1.00
O40    O     0.14044   0.16635   0.88235   0.00000  Uiso   1.00
N41    N     0.72253   0.20588   0.48667   0.00000  Uiso   1.00
N42    N     0.93185   0.97779   0.23262   0.00000  Uiso   1.00
N43    N     0.05539   0.13248   0.81526   0.00000  Uiso   1.00
N44    N     0.76994   0.25176   0.37585   0.00000  Uiso   1.00
N45    N     0.97926   0.02368   0.12179   0.00000  Uiso   1.00
N46    N     0.10280   0.17836   0.70444   0.00000  Uiso   1.00
C47    C     0.60093   0.89864   0.02130   0.00000  Uiso   1.00
C48    C     0.63799   0.85862   0.98469   0.00000  Uiso   1.00
C49    C     0.69557   0.85053   0.01562   0.00000  Uiso   1.00
C50    C     0.72182   0.81205   0.97321   0.00000  Uiso   1.00
C51    C     0.78399   0.75438   0.92708   0.00000  Uiso   1.00
C52    C     0.58031   0.92148   0.91466   0.00000  Uiso   1.00
C53    C     0.58938   0.96624   0.88672   0.00000  Uiso   1.00
C54    C     0.56707   0.98068   0.78536   0.00000  Uiso   1.00
C55    C     0.53965   0.02061   0.63055   0.00000  Uiso   1.00
C56    C     0.54627   0.87884   0.07524   0.00000  Uiso   1.00
C57    C     0.52671   0.88777   0.18231   0.00000  Uiso   1.00
C58    C     0.47573   0.86632   0.21614   0.00000  Uiso   1.00
C59    C     0.39546   0.84005   0.31066   0.00000  Uiso   1.00
C60    C     0.54517   0.84468   0.89098   0.00000  Uiso   1.00
C61    C     0.60771   0.82931   0.91390   0.00000  Uiso   1.00
C62    C     0.63388   0.79083   0.87143   0.00000  Uiso   1.00
C63    C     0.69148   0.78269   0.90230   0.00000  Uiso   1.00
C64    C     0.55003   0.89217   0.84387   0.00000  Uiso   1.00
C65    C     0.52770   0.90655   0.74253   0.00000  Uiso   1.00
C66    C     0.53673   0.95132   0.71445   0.00000  Uiso   1.00
C67    C     0.51599   0.84953   0.00445   0.00000  Uiso   1.00
C68    C     0.46503   0.82807   0.03812   0.00000  Uiso   1.00
C69    C     0.44540   0.83696   0.14523   0.00000  Uiso   1.00
H70    H     0.62450   0.92146   0.07641   0.00000  Uiso   1.00
H71    H     0.71899   0.87322   0.07040   0.00000  Uiso   1.00
H72    H     0.61281   0.98892   0.94153   0.00000  Uiso   1.00
H73    H     0.55016   0.91045   0.23707   0.00000  Uiso   1.00
H74    H     0.81040   0.80683   0.03249   0.00000  Uiso   1.00
H75    H     0.58650   0.05078   0.76076   0.00000  Uiso   1.00
H76    H     0.45438   0.88532   0.38398   0.00000  Uiso   1.00
H77    H     0.52159   0.82186   0.83586   0.00000  Uiso   1.00
H78    H     0.61043   0.76816   0.81665   0.00000  Uiso   1.00
H79    H     0.50426   0.88386   0.68778   0.00000  Uiso   1.00
H80    H     0.44160   0.80539   0.98332   0.00000  Uiso   1.00
H81    H     0.72229   0.72156   0.82653   0.00000  Uiso   1.00
H82    H     0.49840   0.96551   0.55481   0.00000  Uiso   1.00
H83    H     0.36627   0.80005   0.17802   0.00000  Uiso   1.00
O84    O     0.82665   0.73067   0.92118   0.00000  Uiso   1.00
O85    O     0.53290   0.05073   0.56471   0.00000  Uiso   1.00
O86    O     0.35956   0.83365   0.38235   0.00000  Uiso   1.00
N87    N     0.77747   0.79412   0.98667   0.00000  Uiso   1.00
N88    N     0.56815   0.02221   0.73262   0.00000  Uiso   1.00
N89    N     0.44461   0.86752   0.31526   0.00000  Uiso   1.00
N90    N     0.73006   0.74824   0.87585   0.00000  Uiso   1.00
N91    N     0.52074   0.97632   0.62179   0.00000  Uiso   1.00
N92    N     0.39720   0.82164   0.20444   0.00000  Uiso   1.00
C93    C     0.10093   0.60136   0.97870   0.00000  Uiso   1.00
C94    C     0.13799   0.64138   0.01531   0.00000  Uiso   1.00
C95    C     0.19557   0.64947   0.98438   0.00000  Uiso   1.00
C96    C     0.22182   0.68795   0.02679   0.00000  Uiso   1.00
C97    C     0.28399   0.74562   0.07292   0.00000  Uiso   1.00
C98    C     0.08031   0.57852   0.08534   0.00000  Uiso   1.00
C99    C     0.08938   0.53376   0.11328   0.00000  Uiso   1.00
C100   C     0.06707   0.51932   0.21464   0.00000  Uiso   1.00
C101   C     0.03965   0.47939   0.36945   0.00000  Uiso   1.00
C102   C     0.04627   0.62116   0.92476   0.00000  Uiso   1.00
C103   C     0.02671   0.61223   0.81769   0.00000  Uiso   1.00
C104   C     0.97573   0.63368   0.78386   0.00000  Uiso   1.00
C105   C     0.89546   0.65995   0.68934   0.00000  Uiso   1.00
C106   C     0.04517   0.65532   0.10902   0.00000  Uiso   1.00
C107   C     0.10771   0.67069   0.08610   0.00000  Uiso   1.00
C108   C     0.13388   0.70917   0.12857   0.00000  Uiso   1.00
C109   C     0.19148   0.71731   0.09770   0.00000  Uiso   1.00
C110   C     0.05003   0.60783   0.15613   0.00000  Uiso   1.00
C111   C     0.02770   0.59345   0.25747   0.00000  Uiso   1.00
C112   C     0.03673   0.54868   0.28555   0.00000  Uiso   1.00
C113   C     0.01599   0.65047   0.99555   0.00000  Uiso   1.00
C114   C     0.96503   0.67193   0.96188   0.00000  Uiso   1.00
C115   C     0.94540   0.66304   0.85477   0.00000  Uiso   1.00
H116   H     0.12450   0.57854   0.92359   0.00000  Uiso   1.00
H117   H     0.21899   0.62678   0.92960   0.00000  Uiso   1.00
H118   H     0.11281   0.51108   0.05847   0.00000  Uiso   1.00
H119   H     0.05016   0.58955   0.76293   0.00000  Uiso   1.00
H120   H     0.31040   0.69317   0.96751   0.00000  Uiso   1.00
H121   H     0.08650   0.44922   0.23924   0.00000  Uiso   1.00
H122   H     0.95438   0.61468   0.61602   0.00000  Uiso   1.00
H123   H     0.02159   0.67814   0.16414   0.00000  Uiso   1.00
H124   H     0.11043   0.73184   0.18335   0.00000  Uiso   1.00
H125   H     0.00426   0.61614   0.31222   0.00000  Uiso   1.00
H126   H     0.94160   0.69461   0.01668   0.00000  Uiso   1.00
H127   H     0.22229   0.77844   0.17347   0.00000  Uiso   1.00
H128   H     0.99840   0.53449   0.44519   0.00000  Uiso   1.00
H129   H     0.86627   0.69995   0.82198   0.00000  Uiso   1.00
O130   O     0.32665   0.76933   0.07882   0.00000  Uiso   1.00
O131   O     0.03290   0.44927   0.43529   0.00000  Uiso   1.00
O132   O     0.85956   0.66635   0.61765   0.00000  Uiso   1.00
N133   N     0.27747   0.70588   0.01333   0.00000  Uiso   1.00
N134   N     0.06815   0.47779   0.26738   0.00000  Uiso   1.00
N135   N     0.94461   0.63248   0.68474   0.00000  Uiso   1.00
N136   N     0.23006   0.75176   0.12415   0.00000  Uiso   1.00
N137   N     0.02074   0.52368   0.37821   0.00000  Uiso   1.00
N138   N     0.89720   0.67836   0.79556   0.00000  Uiso   1.00
C139   C     0.39907   0.39864   0.47870   0.00000  Uiso   1.00
C140   C     0.36201   0.35862   0.51531   0.00000  Uiso   1.00
C141   C     0.30443   0.35053   0.48438   0.00000  Uiso   1.00
C142   C     0.27818   0.31205   0.52679   0.00000  Uiso   1.00
C143   C     0.21601   0.25438   0.57292   0.00000  Uiso   1.00
C144   C     0.41969   0.42148   0.58534   0.00000  Uiso   1.00
C145   C     0.41062   0.46624   0.61328   0.00000  Uiso   1.00
C146   C     0.43293   0.48068   0.71464   0.00000  Uiso   1.00
C147   C     0.46035   0.52061   0.86945   0.00000  Uiso   1.00
C148   C     0.45373   0.37884   0.42476   0.00000  Uiso   1.00
C149   C     0.47329   0.38777   0.31769   0.00000  Uiso   1.00
C150   C     0.52427   0.36632   0.28386   0.00000  Uiso   1.00
C151   C     0.60454   0.34005   0.18934   0.00000  Uiso   1.00
C152   C     0.45483   0.34468   0.60902   0.00000  Uiso   1.00
C153   C     0.39229   0.32931   0.58610   0.00000  Uiso   1.00
C154   C     0.36612   0.29083   0.62857   0.00000  Uiso   1.00
C155   C     0.30852   0.28269   0.59770   0.00000  Uiso   1.00
C156   C     0.44997   0.39217   0.65613   0.00000  Uiso   1.00
C157   C     0.47230   0.40655   0.75747   0.00000  Uiso   1.00
C158   C     0.46327   0.45132   0.78555   0.00000  Uiso   1.00
C159   C     0.48401   0.34953   0.49555   0.00000  Uiso   1.00
C160   C     0.53497   0.32807   0.46188   0.00000  Uiso   1.00
C161   C     0.55460   0.33696   0.35477   0.00000  Uiso   1.00
H162   H     0.37550   0.42146   0.42359   0.00000  Uiso   1.00
H163   H     0.28101   0.37322   0.42960   0.00000  Uiso   1.00
H164   H     0.38719   0.48892   0.55847   0.00000  Uiso   1.00
H165   H     0.44984   0.41045   0.26293   0.00000  Uiso   1.00
H166   H     0.18960   0.30683   0.46751   0.00000  Uiso   1.00
H167   H     0.41350   0.55078   0.73924   0.00000  Uiso   1.00
H168   H     0.54562   0.38532   0.11602   0.00000  Uiso   1.00
H169   H     0.47841   0.32186   0.66414   0.00000  Uiso   1.00
H170   H     0.38957   0.26816   0.68335   0.00000  Uiso   1.00
H171   H     0.49574   0.38386   0.81222   0.00000  Uiso   1.00
H172   H     0.55840   0.30539   0.51668   0.00000  Uiso   1.00
H173   H     0.27771   0.22156   0.67347   0.00000  Uiso   1.00
H174   H     0.50160   0.46551   0.94519   0.00000  Uiso   1.00
H175   H     0.63373   0.30005   0.32198   0.00000  Uiso   1.00
O176   O     0.17335   0.23067   0.57882   0.00000  Uiso   1.00
O177   O     0.46710   0.55073   0.93529   0.00000  Uiso   1.00
O178   O     0.64044   0.33365   0.11765   0.00000  Uiso   1.00
N179   N     0.22253   0.29412   0.51333   0.00000  Uiso   1.00
N180   N     0.43185   0.52221   0.76738   0.00000  Uiso   1.00
N181   N     0.55539   0.36752   0.18474   0.00000  Uiso   1.00
N182   N     0.26994   0.24824   0.62415   0.00000  Uiso   1.00
N183   N     0.47926   0.47632   0.87821   0.00000  Uiso   1.00
N184   N     0.60280   0.32164   0.29556   0.00000  Uiso   1.00
C185   C     0.10093   0.89864   0.47870   0.00000  Uiso   1.00
C186   C     0.13799   0.85862   0.51531   0.00000  Uiso   1.00
C187   C     0.19557   0.85053   0.48438   0.00000  Uiso   1.00
C188   C     0.22182   0.81205   0.52679   0.00000  Uiso   1.00
C189   C     0.28399   0.75438   0.57292   0.00000  Uiso   1.00
C190   C     0.08031   0.92148   0.58534   0.00000  Uiso   1.00
C191   C     0.08938   0.96624   0.61328   0.00000  Uiso   1.00
C192   C     0.06707   0.98068   0.71464   0.00000  Uiso   1.00
C193   C     0.03965   0.02061   0.86945   0.00000  Uiso   1.00
C194   C     0.04627   0.87884   0.42476   0.00000  Uiso   1.00
C195   C     0.02671   0.88777   0.31769   0.00000  Uiso   1.00
C196   C     0.97573   0.86632   0.28386   0.00000  Uiso   1.00
C197   C     0.89546   0.84005   0.18934   0.00000  Uiso   1.00
C198   C     0.04517   0.84468   0.60902   0.00000  Uiso   1.00
C199   C     0.10771   0.82931   0.58610   0.00000  Uiso   1.00
C200   C     0.13388   0.79083   0.62857   0.00000  Uiso   1.00
C201   C     0.19148   0.78269   0.59770   0.00000  Uiso   1.00
C202   C     0.05003   0.89217   0.65613   0.00000  Uiso   1.00
C203   C     0.02770   0.90655   0.75747   0.00000  Uiso   1.00
C204   C     0.03673   0.95132   0.78555   0.00000  Uiso   1.00
C205   C     0.01599   0.84953   0.49555   0.00000  Uiso   1.00
C206   C     0.96503   0.82807   0.46188   0.00000  Uiso   1.00
C207   C     0.94540   0.83696   0.35477   0.00000  Uiso   1.00
H208   H     0.12450   0.92146   0.42359   0.00000  Uiso   1.00
H209   H     0.21899   0.87322   0.42960   0.00000  Uiso   1.00
H210   H     0.11281   0.98892   0.55847   0.00000  Uiso   1.00
H211   H     0.05016   0.91045   0.26293   0.00000  Uiso   1.00
H212   H     0.31040   0.80683   0.46751   0.00000  Uiso   1.00
H213   H     0.08650   0.05078   0.73924   0.00000  Uiso   1.00
H214   H     0.95438   0.88532   0.11602   0.00000  Uiso   1.00
H215   H     0.02159   0.82186   0.66414   0.00000  Uiso   1.00
H216   H     0.11043   0.76816   0.68335   0.00000  Uiso   1.00
H217   H     0.00426   0.88386   0.81222   0.00000  Uiso   1.00
H218   H     0.94160   0.80539   0.51668   0.00000  Uiso   1.00
H219   H     0.22229   0.72156   0.67347   0.00000  Uiso   1.00
H220   H     0.99840   0.96551   0.94519   0.00000  Uiso   1.00
H221   H     0.86627   0.80005   0.32198   0.00000  Uiso   1.00
O222   O     0.32665   0.73067   0.57882   0.00000  Uiso   1.00
O223   O     0.03290   0.05073   0.93529   0.00000  Uiso   1.00
O224   O     0.85956   0.83365   0.11765   0.00000  Uiso   1.00
N225   N     0.27747   0.79412   0.51333   0.00000  Uiso   1.00
N226   N     0.06815   0.02221   0.76738   0.00000  Uiso   1.00
N227   N     0.94461   0.86752   0.18474   0.00000  Uiso   1.00
N228   N     0.23006   0.74824   0.62415   0.00000  Uiso   1.00
N229   N     0.02074   0.97632   0.87821   0.00000  Uiso   1.00
N230   N     0.89720   0.82164   0.29556   0.00000  Uiso   1.00
C231   C     0.39907   0.10136   0.97870   0.00000  Uiso   1.00
C232   C     0.36201   0.14138   0.01531   0.00000  Uiso   1.00
C233   C     0.30443   0.14947   0.98438   0.00000  Uiso   1.00
C234   C     0.27818   0.18795   0.02679   0.00000  Uiso   1.00
C235   C     0.21601   0.24562   0.07292   0.00000  Uiso   1.00
C236   C     0.41969   0.07852   0.08534   0.00000  Uiso   1.00
C237   C     0.41062   0.03376   0.11328   0.00000  Uiso   1.00
C238   C     0.43293   0.01932   0.21464   0.00000  Uiso   1.00
C239   C     0.46035   0.97939   0.36945   0.00000  Uiso   1.00
C240   C     0.45373   0.12116   0.92476   0.00000  Uiso   1.00
C241   C     0.47329   0.11223   0.81769   0.00000  Uiso   1.00
C242   C     0.52427   0.13368   0.78386   0.00000  Uiso   1.00
C243   C     0.60454   0.15995   0.68934   0.00000  Uiso   1.00
C244   C     0.45483   0.15532   0.10902   0.00000  Uiso   1.00
C245   C     0.39229   0.17069   0.08610   0.00000  Uiso   1.00
C246   C     0.36612   0.20917   0.12857   0.00000  Uiso   1.00
C247   C     0.30852   0.21731   0.09770   0.00000  Uiso   1.00
C248   C     0.44997   0.10783   0.15613   0.00000  Uiso   1.00
C249   C     0.47230   0.09345   0.25747   0.00000  Uiso   1.00
C250   C     0.46327   0.04868   0.28555   0.00000  Uiso   1.00
C251   C     0.48401   0.15047   0.99555   0.00000  Uiso   1.00
C252   C     0.53497   0.17193   0.96188   0.00000  Uiso   1.00
C253   C     0.55460   0.16304   0.85477   0.00000  Uiso   1.00
H254   H     0.37550   0.07854   0.92359   0.00000  Uiso   1.00
H255   H     0.28101   0.12678   0.92960   0.00000  Uiso   1.00
H256   H     0.38719   0.01108   0.05847   0.00000  Uiso   1.00
H257   H     0.44984   0.08955   0.76293   0.00000  Uiso   1.00
H258   H     0.18960   0.19317   0.96751   0.00000  Uiso   1.00
H259   H     0.41350   0.94922   0.23924   0.00000  Uiso   1.00
H260   H     0.54562   0.11468   0.61602   0.00000  Uiso   1.00
H261   H     0.47841   0.17814   0.16414   0.00000  Uiso   1.00
H262   H     0.38957   0.23184   0.18335   0.00000  Uiso   1.00
H263   H     0.49574   0.11614   0.31222   0.00000  Uiso   1.00
H264   H     0.55840   0.19461   0.01668   0.00000  Uiso   1.00
H265   H     0.27771   0.27844   0.17347   0.00000  Uiso   1.00
H266   H     0.50160   0.03449   0.44519   0.00000  Uiso   1.00
H267   H     0.63373   0.19995   0.82198   0.00000  Uiso   1.00
O268   O     0.17335   0.26933   0.07882   0.00000  Uiso   1.00
O269   O     0.46710   0.94927   0.43529   0.00000  Uiso   1.00
O270   O     0.64044   0.16635   0.61765   0.00000  Uiso   1.00
N271   N     0.22253   0.20588   0.01333   0.00000  Uiso   1.00
N272   N     0.43185   0.97779   0.26738   0.00000  Uiso   1.00
N273   N     0.55539   0.13248   0.68474   0.00000  Uiso   1.00
N274   N     0.26994   0.25176   0.12415   0.00000  Uiso   1.00
N275   N     0.47926   0.02368   0.37821   0.00000  Uiso   1.00
N276   N     0.60280   0.17836   0.79556   0.00000  Uiso   1.00
C277   C     0.89907   0.39864   0.02130   0.00000  Uiso   1.00
C278   C     0.86201   0.35862   0.98469   0.00000  Uiso   1.00
C279   C     0.80443   0.35053   0.01562   0.00000  Uiso   1.00
C280   C     0.77818   0.31205   0.97321   0.00000  Uiso   1.00
C281   C     0.71601   0.25438   0.92708   0.00000  Uiso   1.00
C282   C     0.91969   0.42148   0.91466   0.00000  Uiso   1.00
C283   C     0.91062   0.46624   0.88672   0.00000  Uiso   1.00
C284   C     0.93293   0.48068   0.78536   0.00000  Uiso   1.00
C285   C     0.96035   0.52061   0.63055   0.00000  Uiso   1.00
C286   C     0.95373   0.37884   0.07524   0.00000  Uiso   1.00
C287   C     0.97329   0.38777   0.18231   0.00000  Uiso   1.00
C288   C     0.02427   0.36632   0.21614   0.00000  Uiso   1.00
C289   C     0.10454   0.34005   0.31066   0.00000  Uiso   1.00
C290   C     0.95483   0.34468   0.89098   0.00000  Uiso   1.00
C291   C     0.89229   0.32931   0.91390   0.00000  Uiso   1.00
C292   C     0.86612   0.29083   0.87143   0.00000  Uiso   1.00
C293   C     0.80852   0.28269   0.90230   0.00000  Uiso   1.00
C294   C     0.94997   0.39217   0.84387   0.00000  Uiso   1.00
C295   C     0.97230   0.40655   0.74253   0.00000  Uiso   1.00
C296   C     0.96327   0.45132   0.71445   0.00000  Uiso   1.00
C297   C     0.98401   0.34953   0.00445   0.00000  Uiso   1.00
C298   C     0.03497   0.32807   0.03812   0.00000  Uiso   1.00
C299   C     0.05460   0.33696   0.14523   0.00000  Uiso   1.00
H300   H     0.87550   0.42146   0.07641   0.00000  Uiso   1.00
H301   H     0.78101   0.37322   0.07040   0.00000  Uiso   1.00
H302   H     0.88719   0.48892   0.94153   0.00000  Uiso   1.00
H303   H     0.94984   0.41045   0.23707   0.00000  Uiso   1.00
H304   H     0.68960   0.30683   0.03249   0.00000  Uiso   1.00
H305   H     0.91350   0.55078   0.76076   0.00000  Uiso   1.00
H306   H     0.04562   0.38532   0.38398   0.00000  Uiso   1.00
H307   H     0.97841   0.32186   0.83586   0.00000  Uiso   1.00
H308   H     0.88957   0.26816   0.81665   0.00000  Uiso   1.00
H309   H     0.99574   0.38386   0.68778   0.00000  Uiso   1.00
H310   H     0.05840   0.30539   0.98332   0.00000  Uiso   1.00
H311   H     0.77771   0.22156   0.82653   0.00000  Uiso   1.00
H312   H     0.00160   0.46551   0.55481   0.00000  Uiso   1.00
H313   H     0.13373   0.30005   0.17802   0.00000  Uiso   1.00
O314   O     0.67335   0.23067   0.92118   0.00000  Uiso   1.00
O315   O     0.96710   0.55073   0.56471   0.00000  Uiso   1.00
O316   O     0.14044   0.33365   0.38235   0.00000  Uiso   1.00
N317   N     0.72253   0.29412   0.98667   0.00000  Uiso   1.00
N318   N     0.93185   0.52221   0.73262   0.00000  Uiso   1.00
N319   N     0.05539   0.36752   0.31526   0.00000  Uiso   1.00
N320   N     0.76994   0.24824   0.87585   0.00000  Uiso   1.00
N321   N     0.97926   0.47632   0.62179   0.00000  Uiso   1.00
N322   N     0.10280   0.32164   0.20444   0.00000  Uiso   1.00
C323   C     0.60093   0.60136   0.52130   0.00000  Uiso   1.00
C324   C     0.63799   0.64138   0.48469   0.00000  Uiso   1.00
C325   C     0.69557   0.64947   0.51562   0.00000  Uiso   1.00
C326   C     0.72182   0.68795   0.47321   0.00000  Uiso   1.00
C327   C     0.78399   0.74562   0.42708   0.00000  Uiso   1.00
C328   C     0.58031   0.57852   0.41466   0.00000  Uiso   1.00
C329   C     0.58938   0.53376   0.38672   0.00000  Uiso   1.00
C330   C     0.56707   0.51932   0.28536   0.00000  Uiso   1.00
C331   C     0.53965   0.47939   0.13055   0.00000  Uiso   1.00
C332   C     0.54627   0.62116   0.57524   0.00000  Uiso   1.00
C333   C     0.52671   0.61223   0.68231   0.00000  Uiso   1.00
C334   C     0.47573   0.63368   0.71614   0.00000  Uiso   1.00
C335   C     0.39546   0.65995   0.81066   0.00000  Uiso   1.00
C336   C     0.54517   0.65532   0.39098   0.00000  Uiso   1.00
C337   C     0.60771   0.67069   0.41390   0.00000  Uiso   1.00
C338   C     0.63388   0.70917   0.37143   0.00000  Uiso   1.00
C339   C     0.69148   0.71731   0.40230   0.00000  Uiso   1.00
C340   C     0.55003   0.60783   0.34387   0.00000  Uiso   1.00
C341   C     0.52770   0.59345   0.24253   0.00000  Uiso   1.00
C342   C     0.53673   0.54868   0.21445   0.00000  Uiso   1.00
C343   C     0.51599   0.65047   0.50445   0.00000  Uiso   1.00
C344   C     0.46503   0.67193   0.53812   0.00000  Uiso   1.00
C345   C     0.44540   0.66304   0.64523   0.00000  Uiso   1.00
H346   H     0.62450   0.57854   0.57641   0.00000  Uiso   1.00
H347   H     0.71899   0.62678   0.57040   0.00000  Uiso   1.00
H348   H     0.61281   0.51108   0.44153   0.00000  Uiso   1.00
H349   H     0.55016   0.58955   0.73707   0.00000  Uiso   1.00
H350   H     0.81040   0.69317   0.53249   0.00000  Uiso   1.00
H351   H     0.58650   0.44922   0.26076   0.00000  Uiso   1.00
H352   H     0.45438   0.61468   0.88398   0.00000  Uiso   1.00
H353   H     0.52159   0.67814   0.33586   0.00000  Uiso   1.00
H354   H     0.61043   0.73184   0.31665   0.00000  Uiso   1.00
H355   H     0.50426   0.61614   0.18778   0.00000  Uiso   1.00
H356   H     0.44160   0.69461   0.48332   0.00000  Uiso   1.00
H357   H     0.72229   0.77844   0.32653   0.00000  Uiso   1.00
H358   H     0.49840   0.53449   0.05481   0.00000  Uiso   1.00
H359   H     0.36627   0.69995   0.67802   0.00000  Uiso   1.00
O360   O     0.82665   0.76933   0.42118   0.00000  Uiso   1.00
O361   O     0.53290   0.44927   0.06471   0.00000  Uiso   1.00
O362   O     0.35956   0.66635   0.88235   0.00000  Uiso   1.00
N363   N     0.77747   0.70588   0.48667   0.00000  Uiso   1.00
N364   N     0.56815   0.47779   0.23262   0.00000  Uiso   1.00
N365   N     0.44461   0.63248   0.81526   0.00000  Uiso   1.00
N366   N     0.73006   0.75176   0.37585   0.00000  Uiso   1.00
N367   N     0.52074   0.52368   0.12179   0.00000  Uiso   1.00
N368   N     0.39720   0.67836   0.70444   0.00000  Uiso   1.00
