data_job_06338
_audit_creation_date              2018-12-19
_audit_creation_method            'Materials Studio'
_symmetry_space_group_name_H-M    'P1'
_symmetry_Int_Tables_number       1
_symmetry_cell_setting            triclinic
loop_
_symmetry_equiv_pos_as_xyz
  x,y,z
_cell_length_a                    9.2169
_cell_length_b                    22.5281
_cell_length_c                    22.5554
_cell_angle_alpha                 118.1860
_cell_angle_beta                  82.0447
_cell_angle_gamma                 82.4232
loop_
_atom_site_label
_atom_site_type_symbol
_atom_site_fract_x
_atom_site_fract_y
_atom_site_fract_z
_atom_site_U_iso_or_equiv
_atom_site_adp_type
_atom_site_occupancy
C1     C     0.23246   0.63588   0.89065   0.00000  Uiso   1.00
C2     C     0.10849   0.69623   0.90525   0.00000  Uiso   1.00
C3     C     0.09833   0.72632   0.86420   0.00000  Uiso   1.00
C4     C     0.97633   0.78101   0.88650   0.00000  Uiso   1.00
C5     C     0.80028   0.87113   0.89990   0.00000  Uiso   1.00
C6     C     0.29940   0.66112   0.95419   0.00000  Uiso   1.00
C7     C     0.44976   0.66169   0.95428   0.00000  Uiso   1.00
C8     C     0.48848   0.68680   0.01777   0.00000  Uiso   1.00
C9     C     0.60884   0.72237   0.10713   0.00000  Uiso   1.00
C10    C     0.15342   0.58018   0.88967   0.00000  Uiso   1.00
C11    C     0.18107   0.51269   0.83552   0.00000  Uiso   1.00
C12    C     0.09691   0.46965   0.84469   0.00000  Uiso   1.00
C13    C     0.99061   0.37955   0.83387   0.00000  Uiso   1.00
C14    C     0.03388   0.67948   0.00324   0.00000  Uiso   1.00
C15    C     0.00063   0.71991   0.96641   0.00000  Uiso   1.00
C16    C     0.87861   0.77456   0.98878   0.00000  Uiso   1.00
C17    C     0.86827   0.80473   0.94777   0.00000  Uiso   1.00
C18    C     0.19154   0.68480   0.01534   0.00000  Uiso   1.00
C19    C     0.23005   0.70992   0.07885   0.00000  Uiso   1.00
C20    C     0.38042   0.71053   0.07904   0.00000  Uiso   1.00
C21    C     0.04555   0.60386   0.95082   0.00000  Uiso   1.00
C22    C     0.96135   0.56092   0.96009   0.00000  Uiso   1.00
C23    C     0.98885   0.49338   0.90596   0.00000  Uiso   1.00
H24    H     0.31645   0.61745   0.84303   0.00000  Uiso   1.00
H25    H     0.18183   0.70799   0.81688   0.00000  Uiso   1.00
H26    H     0.53321   0.64335   0.90694   0.00000  Uiso   1.00
H27    H     0.26455   0.49438   0.78820   0.00000  Uiso   1.00
H28    H     0.98505   0.81883   0.81487   0.00000  Uiso   1.00
H29    H     0.72595   0.68252   0.00476   0.00000  Uiso   1.00
H30    H     0.15944   0.36838   0.75437   0.00000  Uiso   1.00
H31    H     0.94990   0.69791   0.05086   0.00000  Uiso   1.00
H32    H     0.79516   0.79287   0.03611   0.00000  Uiso   1.00
H33    H     0.14654   0.72823   0.12617   0.00000  Uiso   1.00
H34    H     0.87788   0.57926   0.00742   0.00000  Uiso   1.00
H35    H     0.67121   0.88772   0.99280   0.00000  Uiso   1.00
H36    H     0.41213   0.75141   0.18270   0.00000  Uiso   1.00
H37    H     0.84560   0.43727   0.93230   0.00000  Uiso   1.00
O38    O     0.73298   0.91430   0.89039   0.00000  Uiso   1.00
O39    O     0.70503   0.73545   0.13953   0.00000  Uiso   1.00
O40    O     0.96177   0.32331   0.81101   0.00000  Uiso   1.00
N41    N     0.93240   0.82200   0.85876   0.00000  Uiso   1.00
N42    N     0.62511   0.69457   0.03631   0.00000  Uiso   1.00
N43    N     0.09549   0.40087   0.80221   0.00000  Uiso   1.00
N44    N     0.76353   0.85907   0.95451   0.00000  Uiso   1.00
N45    N     0.45623   0.73164   0.13205   0.00000  Uiso   1.00
N46    N     0.92662   0.43794   0.89795   0.00000  Uiso   1.00
C47    C     0.11927   0.10902   0.74506   0.00000  Uiso   1.00
C48    C     0.00943   0.09429   0.79086   0.00000  Uiso   1.00
C49    C     0.95799   0.13532   0.86199   0.00000  Uiso   1.00
C50    C     0.85787   0.11290   0.89444   0.00000  Uiso   1.00
C51    C     0.69451   0.09933   0.97126   0.00000  Uiso   1.00
C52    C     0.24954   0.04555   0.70667   0.00000  Uiso   1.00
C53    C     0.39998   0.04561   0.70701   0.00000  Uiso   1.00
C54    C     0.50198   0.98216   0.66858   0.00000  Uiso   1.00
C55    C     0.71140   0.89294   0.61465   0.00000  Uiso   1.00
C56    C     0.03969   0.10992   0.69045   0.00000  Uiso   1.00
C57    C     0.01372   0.16409   0.67713   0.00000  Uiso   1.00
C58    C     0.93907   0.15484   0.62504   0.00000  Uiso   1.00
C59    C     0.82266   0.16555   0.54592   0.00000  Uiso   1.00
C60    C     0.03292   0.99625   0.67621   0.00000  Uiso   1.00
C61    C     0.96253   0.03304   0.75347   0.00000  Uiso   1.00
C62    C     0.86245   0.01055   0.78582   0.00000  Uiso   1.00
C63    C     0.81087   0.05154   0.85698   0.00000  Uiso   1.00
C64    C     0.20264   0.98430   0.66928   0.00000  Uiso   1.00
C65    C     0.30444   0.92084   0.63084   0.00000  Uiso   1.00
C66    C     0.45500   0.92080   0.63112   0.00000  Uiso   1.00
C67    C     0.99278   0.04867   0.65306   0.00000  Uiso   1.00
C68    C     0.91817   0.03933   0.60097   0.00000  Uiso   1.00
C69    C     0.89208   0.09347   0.58757   0.00000  Uiso   1.00
H70    H     0.15580   0.15670   0.77417   0.00000  Uiso   1.00
H71    H     0.99433   0.18271   0.89091   0.00000  Uiso   1.00
H72    H     0.43625   0.09302   0.73595   0.00000  Uiso   1.00
H73    H     0.05003   0.21148   0.70608   0.00000  Uiso   1.00
H74    H     0.79467   0.18453   0.00386   0.00000  Uiso   1.00
H75    H     0.72648   0.99540   0.67708   0.00000  Uiso   1.00
H76    H     0.91208   0.24521   0.61410   0.00000  Uiso   1.00
H77    H     0.99640   0.94856   0.64710   0.00000  Uiso   1.00
H78    H     0.82617   0.96315   0.75687   0.00000  Uiso   1.00
H79    H     0.26810   0.87345   0.60190   0.00000  Uiso   1.00
H80    H     0.88189   0.99192   0.57204   0.00000  Uiso   1.00
H81    H     0.65820   0.00632   0.89506   0.00000  Uiso   1.00
H82    H     0.59002   0.81719   0.56829   0.00000  Uiso   1.00
H83    H     0.77560   0.06700   0.50531   0.00000  Uiso   1.00
O84    O     0.61737   0.10876   0.02397   0.00000  Uiso   1.00
O85    O     0.83988   0.86065   0.59525   0.00000  Uiso   1.00
O86    O     0.77139   0.18839   0.51262   0.00000  Uiso   1.00
N87    N     0.78589   0.14059   0.96319   0.00000  Uiso   1.00
N88    N     0.65708   0.96377   0.65768   0.00000  Uiso   1.00
N89    N     0.89571   0.19731   0.59879   0.00000  Uiso   1.00
N90    N     0.71245   0.04470   0.90464   0.00000  Uiso   1.00
N91    N     0.58364   0.86788   0.59914   0.00000  Uiso   1.00
N92    N     0.82228   0.10142   0.54025   0.00000  Uiso   1.00
C93    C     0.86692   0.25517   0.36430   0.00000  Uiso   1.00
C94    C     0.80299   0.20927   0.30388   0.00000  Uiso   1.00
C95    C     0.82235   0.13811   0.27380   0.00000  Uiso   1.00
C96    C     0.75485   0.10556   0.21904   0.00000  Uiso   1.00
C97    C     0.66839   0.02860   0.12882   0.00000  Uiso   1.00
C98    C     0.95931   0.29368   0.33915   0.00000  Uiso   1.00
C99    C     0.11009   0.29350   0.33873   0.00000  Uiso   1.00
C100   C     0.17416   0.33202   0.31366   0.00000  Uiso   1.00
C101   C     0.33036   0.38615   0.27824   0.00000  Uiso   1.00
C102   C     0.73274   0.30969   0.41988   0.00000  Uiso   1.00
C103   C     0.69303   0.32298   0.48735   0.00000  Uiso   1.00
C104   C     0.56637   0.37499   0.53026   0.00000  Uiso   1.00
C105   C     0.37079   0.45397   0.62019   0.00000  Uiso   1.00
C106   C     0.71262   0.32393   0.32054   0.00000  Uiso   1.00
C107   C     0.71918   0.24662   0.28011   0.00000  Uiso   1.00
C108   C     0.65162   0.21417   0.22539   0.00000  Uiso   1.00
C109   C     0.67087   0.14297   0.19524   0.00000  Uiso   1.00
C110   C     0.87550   0.33102   0.31538   0.00000  Uiso   1.00
C111   C     0.93936   0.36956   0.29031   0.00000  Uiso   1.00
C112   C     0.09020   0.36943   0.28985   0.00000  Uiso   1.00
C113   C     0.64892   0.34703   0.39611   0.00000  Uiso   1.00
C114   C     0.52231   0.39904   0.43893   0.00000  Uiso   1.00
C115   C     0.48241   0.41240   0.50645   0.00000  Uiso   1.00
H116   H     0.93218   0.22610   0.38280   0.00000  Uiso   1.00
H117   H     0.88723   0.10922   0.29221   0.00000  Uiso   1.00
H118   H     0.17491   0.26460   0.35713   0.00000  Uiso   1.00
H119   H     0.75792   0.29407   0.50572   0.00000  Uiso   1.00
H120   H     0.80048   0.99611   0.18127   0.00000  Uiso   1.00
H121   H     0.40706   0.32374   0.31818   0.00000  Uiso   1.00
H122   H     0.52775   0.38589   0.63152   0.00000  Uiso   1.00
H123   H     0.64736   0.35301   0.30204   0.00000  Uiso   1.00
H124   H     0.58677   0.24309   0.20701   0.00000  Uiso   1.00
H125   H     0.87446   0.39846   0.27193   0.00000  Uiso   1.00
H126   H     0.45747   0.42793   0.42052   0.00000  Uiso   1.00
H127   H     0.55662   0.10475   0.11211   0.00000  Uiso   1.00
H128   H     0.16321   0.43239   0.24903   0.00000  Uiso   1.00
H129   H     0.28390   0.49454   0.56237   0.00000  Uiso   1.00
O130   O     0.64387   0.97583   0.08562   0.00000  Uiso   1.00
O131   O     0.43968   0.40568   0.26526   0.00000  Uiso   1.00
O132   O     0.28605   0.48721   0.67635   0.00000  Uiso   1.00
N133   N     0.75137   0.03676   0.17804   0.00000  Uiso   1.00
N134   N     0.31850   0.34307   0.30604   0.00000  Uiso   1.00
N135   N     0.49645   0.40119   0.59899   0.00000  Uiso   1.00
N136   N     0.62016   0.09523   0.14083   0.00000  Uiso   1.00
N137   N     0.18728   0.40153   0.26883   0.00000  Uiso   1.00
N138   N     0.36523   0.45965   0.56178   0.00000  Uiso   1.00
C139   C     0.76754   0.36412   0.10935   0.00000  Uiso   1.00
C140   C     0.89151   0.30377   0.09475   0.00000  Uiso   1.00
C141   C     0.90167   0.27368   0.13580   0.00000  Uiso   1.00
C142   C     0.02367   0.21899   0.11350   0.00000  Uiso   1.00
C143   C     0.19972   0.12887   0.10010   0.00000  Uiso   1.00
C144   C     0.70060   0.33888   0.04581   0.00000  Uiso   1.00
C145   C     0.55024   0.33831   0.04572   0.00000  Uiso   1.00
C146   C     0.51152   0.31320   0.98223   0.00000  Uiso   1.00
C147   C     0.39116   0.27763   0.89287   0.00000  Uiso   1.00
C148   C     0.84658   0.41982   0.11033   0.00000  Uiso   1.00
C149   C     0.81893   0.48731   0.16448   0.00000  Uiso   1.00
C150   C     0.90309   0.53035   0.15531   0.00000  Uiso   1.00
C151   C     0.00939   0.62045   0.16613   0.00000  Uiso   1.00
C152   C     0.96612   0.32052   0.99676   0.00000  Uiso   1.00
C153   C     0.99937   0.28009   0.03359   0.00000  Uiso   1.00
C154   C     0.12139   0.22544   0.01122   0.00000  Uiso   1.00
C155   C     0.13173   0.19527   0.05223   0.00000  Uiso   1.00
C156   C     0.80846   0.31520   0.98466   0.00000  Uiso   1.00
C157   C     0.76995   0.29008   0.92115   0.00000  Uiso   1.00
C158   C     0.61958   0.28947   0.92096   0.00000  Uiso   1.00
C159   C     0.95444   0.39614   0.04918   0.00000  Uiso   1.00
C160   C     0.03865   0.43908   0.03991   0.00000  Uiso   1.00
C161   C     0.01115   0.50662   0.09404   0.00000  Uiso   1.00
H162   H     0.68355   0.38255   0.15696   0.00000  Uiso   1.00
H163   H     0.81817   0.29201   0.18312   0.00000  Uiso   1.00
H164   H     0.46679   0.35665   0.09306   0.00000  Uiso   1.00
H165   H     0.73545   0.50562   0.21180   0.00000  Uiso   1.00
H166   H     0.01495   0.18117   0.18513   0.00000  Uiso   1.00
H167   H     0.27405   0.31748   0.99524   0.00000  Uiso   1.00
H168   H     0.84056   0.63162   0.24563   0.00000  Uiso   1.00
H169   H     0.05010   0.30209   0.94914   0.00000  Uiso   1.00
H170   H     0.20484   0.20713   0.96389   0.00000  Uiso   1.00
H171   H     0.85345   0.27177   0.87383   0.00000  Uiso   1.00
H172   H     0.12212   0.42074   0.99258   0.00000  Uiso   1.00
H173   H     0.32879   0.11228   0.00720   0.00000  Uiso   1.00
H174   H     0.58787   0.24859   0.81730   0.00000  Uiso   1.00
H175   H     0.15440   0.56273   0.06770   0.00000  Uiso   1.00
O176   O     0.26702   0.08570   0.10961   0.00000  Uiso   1.00
O177   O     0.29497   0.26455   0.86047   0.00000  Uiso   1.00
O178   O     0.03823   0.67669   0.18899   0.00000  Uiso   1.00
N179   N     0.06760   0.17800   0.14124   0.00000  Uiso   1.00
N180   N     0.37489   0.30543   0.96369   0.00000  Uiso   1.00
N181   N     0.90451   0.59913   0.19779   0.00000  Uiso   1.00
N182   N     0.23647   0.14093   0.04549   0.00000  Uiso   1.00
N183   N     0.54377   0.26836   0.86795   0.00000  Uiso   1.00
N184   N     0.07338   0.56206   0.10205   0.00000  Uiso   1.00
C185   C     0.88073   0.89098   0.25494   0.00000  Uiso   1.00
C186   C     0.99057   0.90571   0.20914   0.00000  Uiso   1.00
C187   C     0.04201   0.86468   0.13801   0.00000  Uiso   1.00
C188   C     0.14213   0.88710   0.10556   0.00000  Uiso   1.00
C189   C     0.30549   0.90067   0.02874   0.00000  Uiso   1.00
C190   C     0.75046   0.95445   0.29333   0.00000  Uiso   1.00
C191   C     0.60002   0.95439   0.29299   0.00000  Uiso   1.00
C192   C     0.49802   0.01784   0.33142   0.00000  Uiso   1.00
C193   C     0.28860   0.10706   0.38535   0.00000  Uiso   1.00
C194   C     0.96031   0.89008   0.30955   0.00000  Uiso   1.00
C195   C     0.98628   0.83591   0.32287   0.00000  Uiso   1.00
C196   C     0.06093   0.84516   0.37496   0.00000  Uiso   1.00
C197   C     0.17734   0.83444   0.45408   0.00000  Uiso   1.00
C198   C     0.96708   0.00375   0.32379   0.00000  Uiso   1.00
C199   C     0.03747   0.96696   0.24653   0.00000  Uiso   1.00
C200   C     0.13755   0.98945   0.21418   0.00000  Uiso   1.00
C201   C     0.18913   0.94846   0.14302   0.00000  Uiso   1.00
C202   C     0.79736   0.01570   0.33072   0.00000  Uiso   1.00
C203   C     0.69556   0.07916   0.36916   0.00000  Uiso   1.00
C204   C     0.54500   0.07920   0.36888   0.00000  Uiso   1.00
C205   C     0.00722   0.95133   0.34694   0.00000  Uiso   1.00
C206   C     0.08183   0.96067   0.39903   0.00000  Uiso   1.00
C207   C     0.10792   0.90653   0.41243   0.00000  Uiso   1.00
H208   H     0.84420   0.84330   0.22583   0.00000  Uiso   1.00
H209   H     0.00567   0.81729   0.10909   0.00000  Uiso   1.00
H210   H     0.56375   0.90698   0.26405   0.00000  Uiso   1.00
H211   H     0.94997   0.78852   0.29392   0.00000  Uiso   1.00
H212   H     0.20533   0.81547   0.99614   0.00000  Uiso   1.00
H213   H     0.27352   0.00460   0.32291   0.00000  Uiso   1.00
H214   H     0.08792   0.75479   0.38590   0.00000  Uiso   1.00
H215   H     0.00360   0.05144   0.35290   0.00000  Uiso   1.00
H216   H     0.17383   0.03685   0.24313   0.00000  Uiso   1.00
H217   H     0.73190   0.12655   0.39810   0.00000  Uiso   1.00
H218   H     0.11811   0.00808   0.42796   0.00000  Uiso   1.00
H219   H     0.34180   0.99368   0.10494   0.00000  Uiso   1.00
H220   H     0.40998   0.18281   0.43171   0.00000  Uiso   1.00
H221   H     0.22440   0.93300   0.49469   0.00000  Uiso   1.00
O222   O     0.38263   0.89124   0.97603   0.00000  Uiso   1.00
O223   O     0.16012   0.13935   0.40475   0.00000  Uiso   1.00
O224   O     0.22861   0.81161   0.48738   0.00000  Uiso   1.00
N225   N     0.21411   0.85941   0.03681   0.00000  Uiso   1.00
N226   N     0.34292   0.03623   0.34232   0.00000  Uiso   1.00
N227   N     0.10429   0.80269   0.40121   0.00000  Uiso   1.00
N228   N     0.28755   0.95530   0.09535   0.00000  Uiso   1.00
N229   N     0.41636   0.13212   0.40086   0.00000  Uiso   1.00
N230   N     0.17772   0.89858   0.45975   0.00000  Uiso   1.00
C231   C     0.13308   0.74483   0.63570   0.00000  Uiso   1.00
C232   C     0.19701   0.79073   0.69612   0.00000  Uiso   1.00
C233   C     0.17765   0.86189   0.72620   0.00000  Uiso   1.00
C234   C     0.24515   0.89444   0.78096   0.00000  Uiso   1.00
C235   C     0.33161   0.97140   0.87118   0.00000  Uiso   1.00
C236   C     0.04069   0.70632   0.66085   0.00000  Uiso   1.00
C237   C     0.88991   0.70650   0.66127   0.00000  Uiso   1.00
C238   C     0.82584   0.66798   0.68634   0.00000  Uiso   1.00
C239   C     0.66964   0.61385   0.72176   0.00000  Uiso   1.00
C240   C     0.26726   0.69031   0.58012   0.00000  Uiso   1.00
C241   C     0.30697   0.67702   0.51265   0.00000  Uiso   1.00
C242   C     0.43363   0.62501   0.46974   0.00000  Uiso   1.00
C243   C     0.62921   0.54603   0.37981   0.00000  Uiso   1.00
C244   C     0.28738   0.67607   0.67946   0.00000  Uiso   1.00
C245   C     0.28082   0.75338   0.71989   0.00000  Uiso   1.00
C246   C     0.34838   0.78583   0.77461   0.00000  Uiso   1.00
C247   C     0.32913   0.85703   0.80476   0.00000  Uiso   1.00
C248   C     0.12450   0.66898   0.68462   0.00000  Uiso   1.00
C249   C     0.06064   0.63044   0.70969   0.00000  Uiso   1.00
C250   C     0.90980   0.63057   0.71015   0.00000  Uiso   1.00
C251   C     0.35108   0.65297   0.60389   0.00000  Uiso   1.00
C252   C     0.47769   0.60096   0.56107   0.00000  Uiso   1.00
C253   C     0.51759   0.58759   0.49355   0.00000  Uiso   1.00
H254   H     0.06782   0.77390   0.61720   0.00000  Uiso   1.00
H255   H     0.11277   0.89078   0.70779   0.00000  Uiso   1.00
H256   H     0.82509   0.73540   0.64287   0.00000  Uiso   1.00
H257   H     0.24208   0.70593   0.49428   0.00000  Uiso   1.00
H258   H     0.19952   0.00389   0.81873   0.00000  Uiso   1.00
H259   H     0.59294   0.67626   0.68182   0.00000  Uiso   1.00
H260   H     0.47225   0.61411   0.36848   0.00000  Uiso   1.00
H261   H     0.35264   0.64699   0.69796   0.00000  Uiso   1.00
H262   H     0.41323   0.75691   0.79299   0.00000  Uiso   1.00
H263   H     0.12554   0.60154   0.72807   0.00000  Uiso   1.00
H264   H     0.54253   0.57207   0.57948   0.00000  Uiso   1.00
H265   H     0.44338   0.89525   0.88789   0.00000  Uiso   1.00
H266   H     0.83679   0.56761   0.75097   0.00000  Uiso   1.00
H267   H     0.71610   0.50546   0.43763   0.00000  Uiso   1.00
O268   O     0.35613   0.02417   0.91438   0.00000  Uiso   1.00
O269   O     0.56032   0.59432   0.73474   0.00000  Uiso   1.00
O270   O     0.71395   0.51279   0.32365   0.00000  Uiso   1.00
N271   N     0.24863   0.96324   0.82196   0.00000  Uiso   1.00
N272   N     0.68150   0.65693   0.69396   0.00000  Uiso   1.00
N273   N     0.50355   0.59881   0.40101   0.00000  Uiso   1.00
N274   N     0.37984   0.90477   0.85917   0.00000  Uiso   1.00
N275   N     0.81272   0.59847   0.73117   0.00000  Uiso   1.00
N276   N     0.63477   0.54035   0.43822   0.00000  Uiso   1.00
