data_job_04304
_audit_creation_date              2018-12-19
_audit_creation_method            'Materials Studio'
_symmetry_space_group_name_H-M    'P1'
_symmetry_Int_Tables_number       1
_symmetry_cell_setting            triclinic
loop_
_symmetry_equiv_pos_as_xyz
  x,y,z
_cell_length_a                    7.1139
_cell_length_b                    26.9221
_cell_length_c                    12.2368
_cell_angle_alpha                 90.0000
_cell_angle_beta                  75.1053
_cell_angle_gamma                 90.0000
loop_
_atom_site_label
_atom_site_type_symbol
_atom_site_fract_x
_atom_site_fract_y
_atom_site_fract_z
_atom_site_U_iso_or_equiv
_atom_site_adp_type
_atom_site_occupancy
C1     C     0.59047   0.39270   0.30679   0.00000  Uiso   1.00
C2     C     0.47800   0.43988   0.29592   0.00000  Uiso   1.00
C3     C     0.54987   0.48796   0.29148   0.00000  Uiso   1.00
C4     C     0.42397   0.52610   0.28147   0.00000  Uiso   1.00
C5     C     0.27834   0.60081   0.26547   0.00000  Uiso   1.00
C6     C     0.47101   0.36587   0.41147   0.00000  Uiso   1.00
C7     C     0.53702   0.35172   0.50417   0.00000  Uiso   1.00
C8     C     0.40524   0.32755   0.59143   0.00000  Uiso   1.00
C9     C     0.24880   0.28734   0.75479   0.00000  Uiso   1.00
C10    C     0.58159   0.36018   0.20621   0.00000  Uiso   1.00
C11    C     0.74057   0.34124   0.12635   0.00000  Uiso   1.00
C12    C     0.70188   0.31226   0.04080   0.00000  Uiso   1.00
C13    C     0.71713   0.26322   0.88547   0.00000  Uiso   1.00
C14    C     0.23908   0.37492   0.29691   0.00000  Uiso   1.00
C15    C     0.28714   0.43022   0.29056   0.00000  Uiso   1.00
C16    C     0.16110   0.46829   0.28055   0.00000  Uiso   1.00
C17    C     0.23277   0.51642   0.27609   0.00000  Uiso   1.00
C18    C     0.28016   0.35621   0.40611   0.00000  Uiso   1.00
C19    C     0.14825   0.33205   0.49325   0.00000  Uiso   1.00
C20    C     0.21404   0.31788   0.58606   0.00000  Uiso   1.00
C21    C     0.39073   0.35052   0.20085   0.00000  Uiso   1.00
C22    C     0.35179   0.32157   0.11542   0.00000  Uiso   1.00
C23    C     0.51068   0.30259   0.03543   0.00000  Uiso   1.00
H24    H     0.73906   0.40022   0.31097   0.00000  Uiso   1.00
H25    H     0.69758   0.49542   0.29564   0.00000  Uiso   1.00
H26    H     0.68474   0.35920   0.50830   0.00000  Uiso   1.00
H27    H     0.88824   0.34872   0.13052   0.00000  Uiso   1.00
H28    H     0.56739   0.59671   0.27632   0.00000  Uiso   1.00
H29    H     0.54034   0.30947   0.72470   0.00000  Uiso   1.00
H30    H     0.96948   0.28736   0.92810   0.00000  Uiso   1.00
H31    H     0.09048   0.36740   0.29274   0.00000  Uiso   1.00
H32    H     0.01341   0.46080   0.27641   0.00000  Uiso   1.00
H33    H     0.00057   0.32458   0.48907   0.00000  Uiso   1.00
H34    H     0.20408   0.31410   0.11130   0.00000  Uiso   1.00
H35    H     0.01209   0.56861   0.26072   0.00000  Uiso   1.00
H36    H     0.98504   0.28137   0.70910   0.00000  Uiso   1.00
H37    H     0.41418   0.25927   0.91249   0.00000  Uiso   1.00
O38    O     0.25072   0.64470   0.25814   0.00000  Uiso   1.00
O39    O     0.21524   0.26784   0.84639   0.00000  Uiso   1.00
O40    O     0.77826   0.23884   0.80126   0.00000  Uiso   1.00
N41    N     0.44729   0.57728   0.27487   0.00000  Uiso   1.00
N42    N     0.42199   0.30873   0.69409   0.00000  Uiso   1.00
N43    N     0.82320   0.28805   0.94934   0.00000  Uiso   1.00
N44    N     0.14849   0.56216   0.26647   0.00000  Uiso   1.00
N45    N     0.12319   0.29361   0.68569   0.00000  Uiso   1.00
N46    N     0.52440   0.27293   0.94095   0.00000  Uiso   1.00
C47    C     0.40953   0.89270   0.19321   0.00000  Uiso   1.00
C48    C     0.52200   0.93988   0.20408   0.00000  Uiso   1.00
C49    C     0.45013   0.98796   0.20852   0.00000  Uiso   1.00
C50    C     0.57603   0.02610   0.21853   0.00000  Uiso   1.00
C51    C     0.72166   0.10081   0.23453   0.00000  Uiso   1.00
C52    C     0.52899   0.86587   0.08853   0.00000  Uiso   1.00
C53    C     0.46298   0.85172   0.99583   0.00000  Uiso   1.00
C54    C     0.59476   0.82755   0.90857   0.00000  Uiso   1.00
C55    C     0.75120   0.78734   0.74521   0.00000  Uiso   1.00
C56    C     0.41841   0.86018   0.29379   0.00000  Uiso   1.00
C57    C     0.25943   0.84124   0.37365   0.00000  Uiso   1.00
C58    C     0.29812   0.81226   0.45920   0.00000  Uiso   1.00
C59    C     0.28287   0.76322   0.61453   0.00000  Uiso   1.00
C60    C     0.76092   0.87492   0.20309   0.00000  Uiso   1.00
C61    C     0.71286   0.93022   0.20944   0.00000  Uiso   1.00
C62    C     0.83890   0.96829   0.21945   0.00000  Uiso   1.00
C63    C     0.76723   0.01642   0.22391   0.00000  Uiso   1.00
C64    C     0.71984   0.85621   0.09389   0.00000  Uiso   1.00
C65    C     0.85175   0.83205   0.00675   0.00000  Uiso   1.00
C66    C     0.78596   0.81788   0.91394   0.00000  Uiso   1.00
C67    C     0.60927   0.85052   0.29915   0.00000  Uiso   1.00
C68    C     0.64821   0.82157   0.38458   0.00000  Uiso   1.00
C69    C     0.48932   0.80259   0.46457   0.00000  Uiso   1.00
H70    H     0.26094   0.90022   0.18903   0.00000  Uiso   1.00
H71    H     0.30242   0.99542   0.20436   0.00000  Uiso   1.00
H72    H     0.31526   0.85920   0.99170   0.00000  Uiso   1.00
H73    H     0.11176   0.84872   0.36948   0.00000  Uiso   1.00
H74    H     0.43261   0.09671   0.22368   0.00000  Uiso   1.00
H75    H     0.45966   0.80947   0.77530   0.00000  Uiso   1.00
H76    H     0.03052   0.78736   0.57190   0.00000  Uiso   1.00
H77    H     0.90952   0.86740   0.20726   0.00000  Uiso   1.00
H78    H     0.98659   0.96080   0.22359   0.00000  Uiso   1.00
H79    H     0.99943   0.82458   0.01093   0.00000  Uiso   1.00
H80    H     0.79592   0.81410   0.38870   0.00000  Uiso   1.00
H81    H     0.98791   0.06861   0.23928   0.00000  Uiso   1.00
H82    H     0.01496   0.78137   0.79090   0.00000  Uiso   1.00
H83    H     0.58582   0.75927   0.58751   0.00000  Uiso   1.00
O84    O     0.74928   0.14470   0.24186   0.00000  Uiso   1.00
O85    O     0.78476   0.76784   0.65361   0.00000  Uiso   1.00
O86    O     0.22174   0.73884   0.69874   0.00000  Uiso   1.00
N87    N     0.55271   0.07728   0.22513   0.00000  Uiso   1.00
N88    N     0.57801   0.80873   0.80591   0.00000  Uiso   1.00
N89    N     0.17680   0.78805   0.55066   0.00000  Uiso   1.00
N90    N     0.85151   0.06216   0.23353   0.00000  Uiso   1.00
N91    N     0.87681   0.79361   0.81431   0.00000  Uiso   1.00
N92    N     0.47560   0.77293   0.55905   0.00000  Uiso   1.00
C93    C     0.40953   0.60730   0.69321   0.00000  Uiso   1.00
C94    C     0.52200   0.56012   0.70408   0.00000  Uiso   1.00
C95    C     0.45013   0.51204   0.70852   0.00000  Uiso   1.00
C96    C     0.57603   0.47390   0.71853   0.00000  Uiso   1.00
C97    C     0.72166   0.39919   0.73453   0.00000  Uiso   1.00
C98    C     0.52899   0.63413   0.58853   0.00000  Uiso   1.00
C99    C     0.46298   0.64828   0.49583   0.00000  Uiso   1.00
C100   C     0.59476   0.67245   0.40857   0.00000  Uiso   1.00
C101   C     0.75120   0.71266   0.24521   0.00000  Uiso   1.00
C102   C     0.41841   0.63982   0.79379   0.00000  Uiso   1.00
C103   C     0.25943   0.65876   0.87365   0.00000  Uiso   1.00
C104   C     0.29812   0.68774   0.95920   0.00000  Uiso   1.00
C105   C     0.28287   0.73678   0.11453   0.00000  Uiso   1.00
C106   C     0.76092   0.62508   0.70309   0.00000  Uiso   1.00
C107   C     0.71286   0.56978   0.70944   0.00000  Uiso   1.00
C108   C     0.83890   0.53171   0.71945   0.00000  Uiso   1.00
C109   C     0.76723   0.48358   0.72391   0.00000  Uiso   1.00
C110   C     0.71984   0.64379   0.59389   0.00000  Uiso   1.00
C111   C     0.85175   0.66795   0.50675   0.00000  Uiso   1.00
C112   C     0.78596   0.68212   0.41394   0.00000  Uiso   1.00
C113   C     0.60927   0.64948   0.79915   0.00000  Uiso   1.00
C114   C     0.64821   0.67843   0.88458   0.00000  Uiso   1.00
C115   C     0.48932   0.69741   0.96457   0.00000  Uiso   1.00
H116   H     0.26094   0.59978   0.68903   0.00000  Uiso   1.00
H117   H     0.30242   0.50458   0.70436   0.00000  Uiso   1.00
H118   H     0.31526   0.64080   0.49170   0.00000  Uiso   1.00
H119   H     0.11176   0.65128   0.86948   0.00000  Uiso   1.00
H120   H     0.43261   0.40329   0.72368   0.00000  Uiso   1.00
H121   H     0.45966   0.69053   0.27530   0.00000  Uiso   1.00
H122   H     0.03052   0.71264   0.07190   0.00000  Uiso   1.00
H123   H     0.90952   0.63260   0.70726   0.00000  Uiso   1.00
H124   H     0.98659   0.53920   0.72359   0.00000  Uiso   1.00
H125   H     0.99943   0.67542   0.51093   0.00000  Uiso   1.00
H126   H     0.79592   0.68590   0.88870   0.00000  Uiso   1.00
H127   H     0.98791   0.43139   0.73928   0.00000  Uiso   1.00
H128   H     0.01496   0.71863   0.29090   0.00000  Uiso   1.00
H129   H     0.58582   0.74073   0.08751   0.00000  Uiso   1.00
O130   O     0.74928   0.35530   0.74186   0.00000  Uiso   1.00
O131   O     0.78476   0.73216   0.15361   0.00000  Uiso   1.00
O132   O     0.22174   0.76116   0.19874   0.00000  Uiso   1.00
N133   N     0.55271   0.42272   0.72513   0.00000  Uiso   1.00
N134   N     0.57801   0.69127   0.30591   0.00000  Uiso   1.00
N135   N     0.17680   0.71195   0.05066   0.00000  Uiso   1.00
N136   N     0.85151   0.43784   0.73353   0.00000  Uiso   1.00
N137   N     0.87681   0.70639   0.31431   0.00000  Uiso   1.00
N138   N     0.47560   0.72707   0.05905   0.00000  Uiso   1.00
C139   C     0.59047   0.10730   0.80679   0.00000  Uiso   1.00
C140   C     0.47800   0.06012   0.79592   0.00000  Uiso   1.00
C141   C     0.54987   0.01204   0.79148   0.00000  Uiso   1.00
C142   C     0.42397   0.97390   0.78147   0.00000  Uiso   1.00
C143   C     0.27834   0.89919   0.76547   0.00000  Uiso   1.00
C144   C     0.47101   0.13413   0.91147   0.00000  Uiso   1.00
C145   C     0.53702   0.14828   0.00417   0.00000  Uiso   1.00
C146   C     0.40524   0.17245   0.09143   0.00000  Uiso   1.00
C147   C     0.24880   0.21266   0.25479   0.00000  Uiso   1.00
C148   C     0.58159   0.13982   0.70621   0.00000  Uiso   1.00
C149   C     0.74057   0.15876   0.62635   0.00000  Uiso   1.00
C150   C     0.70188   0.18774   0.54080   0.00000  Uiso   1.00
C151   C     0.71713   0.23678   0.38547   0.00000  Uiso   1.00
C152   C     0.23908   0.12508   0.79691   0.00000  Uiso   1.00
C153   C     0.28714   0.06978   0.79056   0.00000  Uiso   1.00
C154   C     0.16110   0.03171   0.78055   0.00000  Uiso   1.00
C155   C     0.23277   0.98358   0.77609   0.00000  Uiso   1.00
C156   C     0.28016   0.14379   0.90611   0.00000  Uiso   1.00
C157   C     0.14825   0.16795   0.99325   0.00000  Uiso   1.00
C158   C     0.21404   0.18212   0.08606   0.00000  Uiso   1.00
C159   C     0.39073   0.14948   0.70085   0.00000  Uiso   1.00
C160   C     0.35179   0.17843   0.61542   0.00000  Uiso   1.00
C161   C     0.51068   0.19741   0.53543   0.00000  Uiso   1.00
H162   H     0.73906   0.09978   0.81097   0.00000  Uiso   1.00
H163   H     0.69758   0.00458   0.79564   0.00000  Uiso   1.00
H164   H     0.68474   0.14080   0.00830   0.00000  Uiso   1.00
H165   H     0.88824   0.15128   0.63052   0.00000  Uiso   1.00
H166   H     0.56739   0.90329   0.77632   0.00000  Uiso   1.00
H167   H     0.54034   0.19053   0.22470   0.00000  Uiso   1.00
H168   H     0.96948   0.21264   0.42810   0.00000  Uiso   1.00
H169   H     0.09048   0.13260   0.79274   0.00000  Uiso   1.00
H170   H     0.01341   0.03920   0.77641   0.00000  Uiso   1.00
H171   H     0.00057   0.17542   0.98907   0.00000  Uiso   1.00
H172   H     0.20408   0.18590   0.61130   0.00000  Uiso   1.00
H173   H     0.01209   0.93139   0.76072   0.00000  Uiso   1.00
H174   H     0.98504   0.21863   0.20910   0.00000  Uiso   1.00
H175   H     0.41418   0.24073   0.41249   0.00000  Uiso   1.00
O176   O     0.25072   0.85530   0.75814   0.00000  Uiso   1.00
O177   O     0.21524   0.23216   0.34639   0.00000  Uiso   1.00
O178   O     0.77826   0.26116   0.30126   0.00000  Uiso   1.00
N179   N     0.44729   0.92272   0.77487   0.00000  Uiso   1.00
N180   N     0.42199   0.19127   0.19409   0.00000  Uiso   1.00
N181   N     0.82320   0.21195   0.44934   0.00000  Uiso   1.00
N182   N     0.14849   0.93784   0.76647   0.00000  Uiso   1.00
N183   N     0.12319   0.20639   0.18569   0.00000  Uiso   1.00
N184   N     0.52440   0.22707   0.44095   0.00000  Uiso   1.00
