data_job_05496
_audit_creation_date              2018-12-19
_audit_creation_method            'Materials Studio'
_symmetry_space_group_name_H-M    'P1'
_symmetry_Int_Tables_number       1
_symmetry_cell_setting            triclinic
loop_
_symmetry_equiv_pos_as_xyz
  x,y,z
_cell_length_a                    20.8889
_cell_length_b                    11.6260
_cell_length_c                    14.2843
_cell_angle_alpha                 90.0000
_cell_angle_beta                  84.8349
_cell_angle_gamma                 90.0000
loop_
_atom_site_label
_atom_site_type_symbol
_atom_site_fract_x
_atom_site_fract_y
_atom_site_fract_z
_atom_site_U_iso_or_equiv
_atom_site_adp_type
_atom_site_occupancy
C1     C     0.32570   0.41148   0.28161   0.00000  Uiso   1.00
C2     C     0.25578   0.42362   0.32125   0.00000  Uiso   1.00
C3     C     0.20604   0.46628   0.27316   0.00000  Uiso   1.00
C4     C     0.14547   0.47044   0.32180   0.00000  Uiso   1.00
C5     C     0.03848   0.49500   0.36917   0.00000  Uiso   1.00
C6     C     0.36522   0.47865   0.34780   0.00000  Uiso   1.00
C7     C     0.40750   0.56758   0.32202   0.00000  Uiso   1.00
C8     C     0.43907   0.61804   0.39301   0.00000  Uiso   1.00
C9     C     0.50201   0.72799   0.48158   0.00000  Uiso   1.00
C10    C     0.34302   0.28525   0.29360   0.00000  Uiso   1.00
C11    C     0.36666   0.21155   0.22224   0.00000  Uiso   1.00
C12    C     0.37955   0.09919   0.24760   0.00000  Uiso   1.00
C13    C     0.40804   0.90884   0.25201   0.00000  Uiso   1.00
C14    C     0.30658   0.34298   0.45353   0.00000  Uiso   1.00
C15    C     0.24539   0.38641   0.41463   0.00000  Uiso   1.00
C16    C     0.18488   0.39050   0.46336   0.00000  Uiso   1.00
C17    C     0.13506   0.43316   0.41535   0.00000  Uiso   1.00
C18    C     0.35483   0.44145   0.44118   0.00000  Uiso   1.00
C19    C     0.38634   0.49179   0.51222   0.00000  Uiso   1.00
C20    C     0.42866   0.58077   0.48656   0.00000  Uiso   1.00
C21    C     0.33263   0.24804   0.38697   0.00000  Uiso   1.00
C22    C     0.34550   0.13577   0.41245   0.00000  Uiso   1.00
C23    C     0.36915   0.06192   0.34115   0.00000  Uiso   1.00
H24    H     0.33380   0.44045   0.20892   0.00000  Uiso   1.00
H25    H     0.21410   0.49508   0.20090   0.00000  Uiso   1.00
H26    H     0.41553   0.59634   0.24975   0.00000  Uiso   1.00
H27    H     0.37469   0.24038   0.14999   0.00000  Uiso   1.00
H28    H     0.07682   0.53927   0.23320   0.00000  Uiso   1.00
H29    H     0.50157   0.75277   0.33620   0.00000  Uiso   1.00
H30    H     0.41546   0.00215   0.12584   0.00000  Uiso   1.00
H31    H     0.29849   0.31401   0.52623   0.00000  Uiso   1.00
H32    H     0.17686   0.36170   0.53562   0.00000  Uiso   1.00
H33    H     0.37829   0.46297   0.58448   0.00000  Uiso   1.00
H34    H     0.33745   0.10700   0.48472   0.00000  Uiso   1.00
H35    H     0.04659   0.43103   0.50487   0.00000  Uiso   1.00
H36    H     0.47135   0.64452   0.60788   0.00000  Uiso   1.00
H37    H     0.38523   0.89390   0.39752   0.00000  Uiso   1.00
O38    O     0.98233   0.51884   0.36950   0.00000  Uiso   1.00
O39    O     0.53960   0.79892   0.50464   0.00000  Uiso   1.00
O40    O     0.42661   0.81412   0.22864   0.00000  Uiso   1.00
N41    N     0.08640   0.50723   0.29584   0.00000  Uiso   1.00
N42    N     0.48351   0.70685   0.39215   0.00000  Uiso   1.00
N43    N     0.40301   0.00509   0.19548   0.00000  Uiso   1.00
N44    N     0.07013   0.44898   0.44203   0.00000  Uiso   1.00
N45    N     0.46724   0.64860   0.53834   0.00000  Uiso   1.00
N46    N     0.38675   0.94684   0.34167   0.00000  Uiso   1.00
C47    C     0.67430   0.41148   0.21839   0.00000  Uiso   1.00
C48    C     0.74422   0.42362   0.17875   0.00000  Uiso   1.00
C49    C     0.79396   0.46628   0.22684   0.00000  Uiso   1.00
C50    C     0.85453   0.47044   0.17820   0.00000  Uiso   1.00
C51    C     0.96152   0.49500   0.13083   0.00000  Uiso   1.00
C52    C     0.63478   0.47865   0.15220   0.00000  Uiso   1.00
C53    C     0.59250   0.56758   0.17798   0.00000  Uiso   1.00
C54    C     0.56093   0.61804   0.10699   0.00000  Uiso   1.00
C55    C     0.49799   0.72799   0.01842   0.00000  Uiso   1.00
C56    C     0.65698   0.28525   0.20640   0.00000  Uiso   1.00
C57    C     0.63334   0.21155   0.27776   0.00000  Uiso   1.00
C58    C     0.62045   0.09919   0.25240   0.00000  Uiso   1.00
C59    C     0.59196   0.90884   0.24799   0.00000  Uiso   1.00
C60    C     0.69342   0.34298   0.04647   0.00000  Uiso   1.00
C61    C     0.75461   0.38641   0.08537   0.00000  Uiso   1.00
C62    C     0.81512   0.39050   0.03664   0.00000  Uiso   1.00
C63    C     0.86494   0.43316   0.08465   0.00000  Uiso   1.00
C64    C     0.64517   0.44145   0.05882   0.00000  Uiso   1.00
C65    C     0.61366   0.49179   0.98778   0.00000  Uiso   1.00
C66    C     0.57134   0.58077   0.01344   0.00000  Uiso   1.00
C67    C     0.66737   0.24804   0.11303   0.00000  Uiso   1.00
C68    C     0.65450   0.13577   0.08755   0.00000  Uiso   1.00
C69    C     0.63085   0.06192   0.15885   0.00000  Uiso   1.00
H70    H     0.66620   0.44045   0.29108   0.00000  Uiso   1.00
H71    H     0.78590   0.49508   0.29910   0.00000  Uiso   1.00
H72    H     0.58447   0.59634   0.25025   0.00000  Uiso   1.00
H73    H     0.62531   0.24038   0.35001   0.00000  Uiso   1.00
H74    H     0.92318   0.53927   0.26680   0.00000  Uiso   1.00
H75    H     0.49843   0.75277   0.16380   0.00000  Uiso   1.00
H76    H     0.58454   0.00215   0.37416   0.00000  Uiso   1.00
H77    H     0.70151   0.31401   0.97377   0.00000  Uiso   1.00
H78    H     0.82314   0.36170   0.96438   0.00000  Uiso   1.00
H79    H     0.62171   0.46297   0.91552   0.00000  Uiso   1.00
H80    H     0.66255   0.10700   0.01528   0.00000  Uiso   1.00
H81    H     0.95341   0.43103   0.99513   0.00000  Uiso   1.00
H82    H     0.52865   0.64452   0.89212   0.00000  Uiso   1.00
H83    H     0.61477   0.89390   0.10248   0.00000  Uiso   1.00
O84    O     0.01767   0.51884   0.13050   0.00000  Uiso   1.00
O85    O     0.46040   0.79892   0.99536   0.00000  Uiso   1.00
O86    O     0.57339   0.81412   0.27136   0.00000  Uiso   1.00
N87    N     0.91360   0.50723   0.20416   0.00000  Uiso   1.00
N88    N     0.51649   0.70685   0.10785   0.00000  Uiso   1.00
N89    N     0.59699   0.00509   0.30452   0.00000  Uiso   1.00
N90    N     0.92987   0.44898   0.05797   0.00000  Uiso   1.00
N91    N     0.53276   0.64860   0.96166   0.00000  Uiso   1.00
N92    N     0.61325   0.94684   0.15833   0.00000  Uiso   1.00
C93    C     0.67430   0.58852   0.71839   0.00000  Uiso   1.00
C94    C     0.74422   0.57638   0.67875   0.00000  Uiso   1.00
C95    C     0.79396   0.53372   0.72684   0.00000  Uiso   1.00
C96    C     0.85453   0.52956   0.67820   0.00000  Uiso   1.00
C97    C     0.96152   0.50500   0.63083   0.00000  Uiso   1.00
C98    C     0.63478   0.52135   0.65220   0.00000  Uiso   1.00
C99    C     0.59250   0.43242   0.67798   0.00000  Uiso   1.00
C100   C     0.56093   0.38196   0.60699   0.00000  Uiso   1.00
C101   C     0.49799   0.27201   0.51842   0.00000  Uiso   1.00
C102   C     0.65698   0.71475   0.70640   0.00000  Uiso   1.00
C103   C     0.63334   0.78845   0.77776   0.00000  Uiso   1.00
C104   C     0.62045   0.90081   0.75240   0.00000  Uiso   1.00
C105   C     0.59196   0.09116   0.74799   0.00000  Uiso   1.00
C106   C     0.69342   0.65702   0.54647   0.00000  Uiso   1.00
C107   C     0.75461   0.61359   0.58537   0.00000  Uiso   1.00
C108   C     0.81512   0.60950   0.53664   0.00000  Uiso   1.00
C109   C     0.86494   0.56684   0.58465   0.00000  Uiso   1.00
C110   C     0.64517   0.55855   0.55882   0.00000  Uiso   1.00
C111   C     0.61366   0.50821   0.48778   0.00000  Uiso   1.00
C112   C     0.57134   0.41923   0.51344   0.00000  Uiso   1.00
C113   C     0.66737   0.75196   0.61303   0.00000  Uiso   1.00
C114   C     0.65450   0.86423   0.58755   0.00000  Uiso   1.00
C115   C     0.63085   0.93808   0.65885   0.00000  Uiso   1.00
H116   H     0.66620   0.55955   0.79108   0.00000  Uiso   1.00
H117   H     0.78590   0.50492   0.79910   0.00000  Uiso   1.00
H118   H     0.58447   0.40366   0.75025   0.00000  Uiso   1.00
H119   H     0.62531   0.75962   0.85001   0.00000  Uiso   1.00
H120   H     0.92318   0.46073   0.76680   0.00000  Uiso   1.00
H121   H     0.49843   0.24723   0.66380   0.00000  Uiso   1.00
H122   H     0.58454   0.99785   0.87416   0.00000  Uiso   1.00
H123   H     0.70151   0.68599   0.47377   0.00000  Uiso   1.00
H124   H     0.82314   0.63830   0.46438   0.00000  Uiso   1.00
H125   H     0.62171   0.53703   0.41552   0.00000  Uiso   1.00
H126   H     0.66255   0.89300   0.51528   0.00000  Uiso   1.00
H127   H     0.95341   0.56897   0.49513   0.00000  Uiso   1.00
H128   H     0.52865   0.35548   0.39212   0.00000  Uiso   1.00
H129   H     0.61477   0.10610   0.60248   0.00000  Uiso   1.00
O130   O     0.01767   0.48116   0.63050   0.00000  Uiso   1.00
O131   O     0.46040   0.20108   0.49536   0.00000  Uiso   1.00
O132   O     0.57339   0.18588   0.77136   0.00000  Uiso   1.00
N133   N     0.91360   0.49277   0.70416   0.00000  Uiso   1.00
N134   N     0.51649   0.29315   0.60785   0.00000  Uiso   1.00
N135   N     0.59699   0.99491   0.80452   0.00000  Uiso   1.00
N136   N     0.92987   0.55102   0.55797   0.00000  Uiso   1.00
N137   N     0.53276   0.35140   0.46166   0.00000  Uiso   1.00
N138   N     0.61325   0.05316   0.65833   0.00000  Uiso   1.00
C139   C     0.32570   0.58852   0.78161   0.00000  Uiso   1.00
C140   C     0.25578   0.57638   0.82125   0.00000  Uiso   1.00
C141   C     0.20604   0.53372   0.77316   0.00000  Uiso   1.00
C142   C     0.14547   0.52956   0.82180   0.00000  Uiso   1.00
C143   C     0.03848   0.50500   0.86917   0.00000  Uiso   1.00
C144   C     0.36522   0.52135   0.84780   0.00000  Uiso   1.00
C145   C     0.40750   0.43242   0.82202   0.00000  Uiso   1.00
C146   C     0.43907   0.38196   0.89301   0.00000  Uiso   1.00
C147   C     0.50201   0.27201   0.98158   0.00000  Uiso   1.00
C148   C     0.34302   0.71475   0.79360   0.00000  Uiso   1.00
C149   C     0.36666   0.78845   0.72224   0.00000  Uiso   1.00
C150   C     0.37955   0.90081   0.74760   0.00000  Uiso   1.00
C151   C     0.40804   0.09116   0.75201   0.00000  Uiso   1.00
C152   C     0.30658   0.65702   0.95353   0.00000  Uiso   1.00
C153   C     0.24539   0.61359   0.91463   0.00000  Uiso   1.00
C154   C     0.18488   0.60950   0.96336   0.00000  Uiso   1.00
C155   C     0.13506   0.56684   0.91535   0.00000  Uiso   1.00
C156   C     0.35483   0.55855   0.94118   0.00000  Uiso   1.00
C157   C     0.38634   0.50821   0.01222   0.00000  Uiso   1.00
C158   C     0.42866   0.41923   0.98656   0.00000  Uiso   1.00
C159   C     0.33263   0.75196   0.88697   0.00000  Uiso   1.00
C160   C     0.34550   0.86423   0.91245   0.00000  Uiso   1.00
C161   C     0.36915   0.93808   0.84115   0.00000  Uiso   1.00
H162   H     0.33380   0.55955   0.70892   0.00000  Uiso   1.00
H163   H     0.21410   0.50492   0.70090   0.00000  Uiso   1.00
H164   H     0.41553   0.40366   0.74975   0.00000  Uiso   1.00
H165   H     0.37469   0.75962   0.64999   0.00000  Uiso   1.00
H166   H     0.07682   0.46073   0.73320   0.00000  Uiso   1.00
H167   H     0.50157   0.24723   0.83620   0.00000  Uiso   1.00
H168   H     0.41546   0.99785   0.62584   0.00000  Uiso   1.00
H169   H     0.29849   0.68599   0.02623   0.00000  Uiso   1.00
H170   H     0.17686   0.63830   0.03562   0.00000  Uiso   1.00
H171   H     0.37829   0.53703   0.08448   0.00000  Uiso   1.00
H172   H     0.33745   0.89300   0.98472   0.00000  Uiso   1.00
H173   H     0.04659   0.56897   0.00487   0.00000  Uiso   1.00
H174   H     0.47135   0.35548   0.10788   0.00000  Uiso   1.00
H175   H     0.38523   0.10610   0.89752   0.00000  Uiso   1.00
O176   O     0.98233   0.48116   0.86950   0.00000  Uiso   1.00
O177   O     0.53960   0.20108   0.00464   0.00000  Uiso   1.00
O178   O     0.42661   0.18588   0.72864   0.00000  Uiso   1.00
N179   N     0.08640   0.49277   0.79584   0.00000  Uiso   1.00
N180   N     0.48351   0.29315   0.89215   0.00000  Uiso   1.00
N181   N     0.40301   0.99491   0.69548   0.00000  Uiso   1.00
N182   N     0.07013   0.55102   0.94203   0.00000  Uiso   1.00
N183   N     0.46724   0.35140   0.03834   0.00000  Uiso   1.00
N184   N     0.38675   0.05316   0.84167   0.00000  Uiso   1.00
