data_job_03229
_audit_creation_date              2018-12-19
_audit_creation_method            'Materials Studio'
_symmetry_space_group_name_H-M    'P1'
_symmetry_Int_Tables_number       1
_symmetry_cell_setting            triclinic
loop_
_symmetry_equiv_pos_as_xyz
  x,y,z
_cell_length_a                    12.5969
_cell_length_b                    12.5969
_cell_length_c                    40.3865
_cell_angle_alpha                 90.0000
_cell_angle_beta                  90.0000
_cell_angle_gamma                 90.0000
loop_
_atom_site_label
_atom_site_type_symbol
_atom_site_fract_x
_atom_site_fract_y
_atom_site_fract_z
_atom_site_U_iso_or_equiv
_atom_site_adp_type
_atom_site_occupancy
C1     C     0.34556   0.50270   0.34037   0.00000  Uiso   1.00
C2     C     0.34171   0.39770   0.32162   0.00000  Uiso   1.00
C3     C     0.25227   0.33500   0.31715   0.00000  Uiso   1.00
C4     C     0.26520   0.24180   0.29925   0.00000  Uiso   1.00
C5     C     0.24420   0.08319   0.27212   0.00000  Uiso   1.00
C6     C     0.43006   0.48914   0.36708   0.00000  Uiso   1.00
C7     C     0.41490   0.50333   0.40083   0.00000  Uiso   1.00
C8     C     0.50221   0.48711   0.42119   0.00000  Uiso   1.00
C9     C     0.61840   0.47054   0.46462   0.00000  Uiso   1.00
C10    C     0.38963   0.58424   0.31609   0.00000  Uiso   1.00
C11    C     0.34049   0.67841   0.30697   0.00000  Uiso   1.00
C12    C     0.39378   0.74228   0.28441   0.00000  Uiso   1.00
C13    C     0.44719   0.87336   0.24868   0.00000  Uiso   1.00
C14    C     0.52758   0.44868   0.31653   0.00000  Uiso   1.00
C15    C     0.44058   0.36836   0.30867   0.00000  Uiso   1.00
C16    C     0.45365   0.27522   0.29077   0.00000  Uiso   1.00
C17    C     0.36424   0.21240   0.28628   0.00000  Uiso   1.00
C18    C     0.52893   0.45979   0.35413   0.00000  Uiso   1.00
C19    C     0.61628   0.44356   0.37445   0.00000  Uiso   1.00
C20    C     0.60126   0.45771   0.40822   0.00000  Uiso   1.00
C21    C     0.48850   0.55489   0.30314   0.00000  Uiso   1.00
C22    C     0.54188   0.61863   0.28059   0.00000  Uiso   1.00
C23    C     0.49282   0.71288   0.27144   0.00000  Uiso   1.00
H24    H     0.26859   0.52555   0.35046   0.00000  Uiso   1.00
H25    H     0.17577   0.35773   0.32718   0.00000  Uiso   1.00
H26    H     0.33839   0.52605   0.41084   0.00000  Uiso   1.00
H27    H     0.26399   0.70109   0.31700   0.00000  Uiso   1.00
H28    H     0.11648   0.15872   0.29567   0.00000  Uiso   1.00
H29    H     0.45936   0.51366   0.47207   0.00000  Uiso   1.00
H30    H     0.30248   0.88278   0.27419   0.00000  Uiso   1.00
H31    H     0.60455   0.42583   0.30645   0.00000  Uiso   1.00
H32    H     0.53017   0.25254   0.28075   0.00000  Uiso   1.00
H33    H     0.69278   0.42085   0.36442   0.00000  Uiso   1.00
H34    H     0.61838   0.59590   0.27057   0.00000  Uiso   1.00
H35    H     0.40412   0.07333   0.25799   0.00000  Uiso   1.00
H36    H     0.74700   0.42828   0.43439   0.00000  Uiso   1.00
H37    H     0.59012   0.79739   0.23651   0.00000  Uiso   1.00
O38    O     0.20532   0.00381   0.26073   0.00000  Uiso   1.00
O39    O     0.65517   0.46950   0.49216   0.00000  Uiso   1.00
O40    O     0.44934   0.95377   0.23254   0.00000  Uiso   1.00
N41    N     0.19438   0.16242   0.29032   0.00000  Uiso   1.00
N42    N     0.51495   0.49424   0.45525   0.00000  Uiso   1.00
N43    N     0.36829   0.83936   0.27025   0.00000  Uiso   1.00
N44    N     0.34916   0.11647   0.27005   0.00000  Uiso   1.00
N45    N     0.66973   0.44830   0.43497   0.00000  Uiso   1.00
N46    N     0.52307   0.79341   0.24997   0.00000  Uiso   1.00
C47    C     0.65444   0.49730   0.84037   0.00000  Uiso   1.00
C48    C     0.65829   0.60230   0.82162   0.00000  Uiso   1.00
C49    C     0.74773   0.66500   0.81715   0.00000  Uiso   1.00
C50    C     0.73480   0.75820   0.79925   0.00000  Uiso   1.00
C51    C     0.75580   0.91681   0.77212   0.00000  Uiso   1.00
C52    C     0.56994   0.51086   0.86708   0.00000  Uiso   1.00
C53    C     0.58510   0.49667   0.90083   0.00000  Uiso   1.00
C54    C     0.49779   0.51289   0.92119   0.00000  Uiso   1.00
C55    C     0.38160   0.52946   0.96462   0.00000  Uiso   1.00
C56    C     0.61037   0.41576   0.81609   0.00000  Uiso   1.00
C57    C     0.65951   0.32159   0.80697   0.00000  Uiso   1.00
C58    C     0.60622   0.25772   0.78441   0.00000  Uiso   1.00
C59    C     0.55281   0.12664   0.74868   0.00000  Uiso   1.00
C60    C     0.47242   0.55132   0.81653   0.00000  Uiso   1.00
C61    C     0.55942   0.63164   0.80867   0.00000  Uiso   1.00
C62    C     0.54635   0.72478   0.79077   0.00000  Uiso   1.00
C63    C     0.63576   0.78760   0.78628   0.00000  Uiso   1.00
C64    C     0.47107   0.54021   0.85413   0.00000  Uiso   1.00
C65    C     0.38372   0.55644   0.87445   0.00000  Uiso   1.00
C66    C     0.39874   0.54229   0.90822   0.00000  Uiso   1.00
C67    C     0.51150   0.44511   0.80314   0.00000  Uiso   1.00
C68    C     0.45812   0.38137   0.78059   0.00000  Uiso   1.00
C69    C     0.50718   0.28712   0.77144   0.00000  Uiso   1.00
H70    H     0.73141   0.47445   0.85046   0.00000  Uiso   1.00
H71    H     0.82423   0.64227   0.82718   0.00000  Uiso   1.00
H72    H     0.66161   0.47395   0.91084   0.00000  Uiso   1.00
H73    H     0.73601   0.29891   0.81700   0.00000  Uiso   1.00
H74    H     0.88352   0.84128   0.79567   0.00000  Uiso   1.00
H75    H     0.54064   0.48634   0.97207   0.00000  Uiso   1.00
H76    H     0.69752   0.11722   0.77419   0.00000  Uiso   1.00
H77    H     0.39545   0.57417   0.80645   0.00000  Uiso   1.00
H78    H     0.46983   0.74746   0.78075   0.00000  Uiso   1.00
H79    H     0.30722   0.57915   0.86442   0.00000  Uiso   1.00
H80    H     0.38162   0.40410   0.77057   0.00000  Uiso   1.00
H81    H     0.59588   0.92667   0.75799   0.00000  Uiso   1.00
H82    H     0.25300   0.57172   0.93439   0.00000  Uiso   1.00
H83    H     0.40988   0.20261   0.73651   0.00000  Uiso   1.00
O84    O     0.79468   0.99619   0.76073   0.00000  Uiso   1.00
O85    O     0.34483   0.53050   0.99216   0.00000  Uiso   1.00
O86    O     0.55066   0.04623   0.73254   0.00000  Uiso   1.00
N87    N     0.80562   0.83758   0.79032   0.00000  Uiso   1.00
N88    N     0.48505   0.50576   0.95525   0.00000  Uiso   1.00
N89    N     0.63171   0.16064   0.77025   0.00000  Uiso   1.00
N90    N     0.65084   0.88353   0.77005   0.00000  Uiso   1.00
N91    N     0.33027   0.55170   0.93497   0.00000  Uiso   1.00
N92    N     0.47693   0.20659   0.74997   0.00000  Uiso   1.00
C93    C     0.99730   0.84556   0.09037   0.00000  Uiso   1.00
C94    C     0.10230   0.84171   0.07162   0.00000  Uiso   1.00
C95    C     0.16500   0.75227   0.06715   0.00000  Uiso   1.00
C96    C     0.25820   0.76520   0.04925   0.00000  Uiso   1.00
C97    C     0.41681   0.74420   0.02212   0.00000  Uiso   1.00
C98    C     0.01086   0.93006   0.11708   0.00000  Uiso   1.00
C99    C     0.99667   0.91490   0.15083   0.00000  Uiso   1.00
C100   C     0.01289   0.00221   0.17119   0.00000  Uiso   1.00
C101   C     0.02946   0.11840   0.21462   0.00000  Uiso   1.00
C102   C     0.91576   0.88963   0.06609   0.00000  Uiso   1.00
C103   C     0.82159   0.84049   0.05697   0.00000  Uiso   1.00
C104   C     0.75772   0.89378   0.03441   0.00000  Uiso   1.00
C105   C     0.62664   0.94719   0.99868   0.00000  Uiso   1.00
C106   C     0.05132   0.02758   0.06653   0.00000  Uiso   1.00
C107   C     0.13164   0.94058   0.05867   0.00000  Uiso   1.00
C108   C     0.22478   0.95365   0.04077   0.00000  Uiso   1.00
C109   C     0.28760   0.86424   0.03628   0.00000  Uiso   1.00
C110   C     0.04021   0.02893   0.10413   0.00000  Uiso   1.00
C111   C     0.05644   0.11628   0.12445   0.00000  Uiso   1.00
C112   C     0.04229   0.10126   0.15822   0.00000  Uiso   1.00
C113   C     0.94511   0.98850   0.05314   0.00000  Uiso   1.00
C114   C     0.88137   0.04188   0.03059   0.00000  Uiso   1.00
C115   C     0.78712   0.99282   0.02144   0.00000  Uiso   1.00
H116   H     0.97445   0.76859   0.10046   0.00000  Uiso   1.00
H117   H     0.14227   0.67577   0.07718   0.00000  Uiso   1.00
H118   H     0.97395   0.83839   0.16084   0.00000  Uiso   1.00
H119   H     0.79891   0.76399   0.06700   0.00000  Uiso   1.00
H120   H     0.34128   0.61648   0.04567   0.00000  Uiso   1.00
H121   H     0.98634   0.95936   0.22207   0.00000  Uiso   1.00
H122   H     0.61722   0.80248   0.02419   0.00000  Uiso   1.00
H123   H     0.07417   0.10455   0.05645   0.00000  Uiso   1.00
H124   H     0.24746   0.03017   0.03075   0.00000  Uiso   1.00
H125   H     0.07915   0.19278   0.11442   0.00000  Uiso   1.00
H126   H     0.90410   0.11838   0.02057   0.00000  Uiso   1.00
H127   H     0.42667   0.90412   0.00799   0.00000  Uiso   1.00
H128   H     0.07172   0.24700   0.18439   0.00000  Uiso   1.00
H129   H     0.70261   0.09012   0.98651   0.00000  Uiso   1.00
O130   O     0.49619   0.70532   0.01073   0.00000  Uiso   1.00
O131   O     0.03050   0.15517   0.24216   0.00000  Uiso   1.00
O132   O     0.54623   0.94934   0.98254   0.00000  Uiso   1.00
N133   N     0.33758   0.69438   0.04032   0.00000  Uiso   1.00
N134   N     0.00576   0.01495   0.20525   0.00000  Uiso   1.00
N135   N     0.66064   0.86829   0.02025   0.00000  Uiso   1.00
N136   N     0.38353   0.84916   0.02005   0.00000  Uiso   1.00
N137   N     0.05170   0.16973   0.18497   0.00000  Uiso   1.00
N138   N     0.70659   0.02307   0.99997   0.00000  Uiso   1.00
C139   C     0.00270   0.15444   0.59037   0.00000  Uiso   1.00
C140   C     0.89770   0.15829   0.57162   0.00000  Uiso   1.00
C141   C     0.83500   0.24773   0.56715   0.00000  Uiso   1.00
C142   C     0.74180   0.23480   0.54925   0.00000  Uiso   1.00
C143   C     0.58319   0.25580   0.52212   0.00000  Uiso   1.00
C144   C     0.98914   0.06994   0.61708   0.00000  Uiso   1.00
C145   C     0.00333   0.08510   0.65083   0.00000  Uiso   1.00
C146   C     0.98711   0.99779   0.67119   0.00000  Uiso   1.00
C147   C     0.97054   0.88160   0.71462   0.00000  Uiso   1.00
C148   C     0.08424   0.11037   0.56609   0.00000  Uiso   1.00
C149   C     0.17841   0.15951   0.55697   0.00000  Uiso   1.00
C150   C     0.24228   0.10622   0.53441   0.00000  Uiso   1.00
C151   C     0.37336   0.05281   0.49868   0.00000  Uiso   1.00
C152   C     0.94868   0.97242   0.56653   0.00000  Uiso   1.00
C153   C     0.86836   0.05942   0.55867   0.00000  Uiso   1.00
C154   C     0.77522   0.04635   0.54077   0.00000  Uiso   1.00
C155   C     0.71240   0.13576   0.53628   0.00000  Uiso   1.00
C156   C     0.95979   0.97107   0.60413   0.00000  Uiso   1.00
C157   C     0.94356   0.88372   0.62445   0.00000  Uiso   1.00
C158   C     0.95771   0.89874   0.65822   0.00000  Uiso   1.00
C159   C     0.05489   0.01150   0.55314   0.00000  Uiso   1.00
C160   C     0.11863   0.95812   0.53059   0.00000  Uiso   1.00
C161   C     0.21288   0.00718   0.52144   0.00000  Uiso   1.00
H162   H     0.02555   0.23141   0.60046   0.00000  Uiso   1.00
H163   H     0.85773   0.32423   0.57718   0.00000  Uiso   1.00
H164   H     0.02605   0.16161   0.66084   0.00000  Uiso   1.00
H165   H     0.20109   0.23601   0.56700   0.00000  Uiso   1.00
H166   H     0.65872   0.38352   0.54567   0.00000  Uiso   1.00
H167   H     0.01366   0.04064   0.72207   0.00000  Uiso   1.00
H168   H     0.38278   0.19752   0.52419   0.00000  Uiso   1.00
H169   H     0.92583   0.89545   0.55645   0.00000  Uiso   1.00
H170   H     0.75254   0.96983   0.53075   0.00000  Uiso   1.00
H171   H     0.92085   0.80722   0.61442   0.00000  Uiso   1.00
H172   H     0.09590   0.88162   0.52057   0.00000  Uiso   1.00
H173   H     0.57333   0.09588   0.50799   0.00000  Uiso   1.00
H174   H     0.92828   0.75300   0.68439   0.00000  Uiso   1.00
H175   H     0.29739   0.90988   0.48651   0.00000  Uiso   1.00
O176   O     0.50381   0.29468   0.51073   0.00000  Uiso   1.00
O177   O     0.96950   0.84483   0.74216   0.00000  Uiso   1.00
O178   O     0.45377   0.05066   0.48254   0.00000  Uiso   1.00
N179   N     0.66242   0.30562   0.54032   0.00000  Uiso   1.00
N180   N     0.99424   0.98505   0.70525   0.00000  Uiso   1.00
N181   N     0.33936   0.13171   0.52025   0.00000  Uiso   1.00
N182   N     0.61647   0.15084   0.52005   0.00000  Uiso   1.00
N183   N     0.94830   0.83027   0.68497   0.00000  Uiso   1.00
N184   N     0.29341   0.97693   0.49997   0.00000  Uiso   1.00
C185   C     0.15444   0.00270   0.40963   0.00000  Uiso   1.00
C186   C     0.15829   0.89770   0.42838   0.00000  Uiso   1.00
C187   C     0.24773   0.83500   0.43285   0.00000  Uiso   1.00
C188   C     0.23480   0.74180   0.45075   0.00000  Uiso   1.00
C189   C     0.25580   0.58319   0.47788   0.00000  Uiso   1.00
C190   C     0.06994   0.98914   0.38292   0.00000  Uiso   1.00
C191   C     0.08510   0.00333   0.34917   0.00000  Uiso   1.00
C192   C     0.99779   0.98711   0.32881   0.00000  Uiso   1.00
C193   C     0.88160   0.97054   0.28538   0.00000  Uiso   1.00
C194   C     0.11037   0.08424   0.43391   0.00000  Uiso   1.00
C195   C     0.15951   0.17841   0.44303   0.00000  Uiso   1.00
C196   C     0.10622   0.24228   0.46559   0.00000  Uiso   1.00
C197   C     0.05281   0.37336   0.50132   0.00000  Uiso   1.00
C198   C     0.97242   0.94868   0.43347   0.00000  Uiso   1.00
C199   C     0.05942   0.86836   0.44133   0.00000  Uiso   1.00
C200   C     0.04635   0.77522   0.45923   0.00000  Uiso   1.00
C201   C     0.13576   0.71240   0.46372   0.00000  Uiso   1.00
C202   C     0.97107   0.95979   0.39587   0.00000  Uiso   1.00
C203   C     0.88372   0.94356   0.37555   0.00000  Uiso   1.00
C204   C     0.89874   0.95771   0.34178   0.00000  Uiso   1.00
C205   C     0.01150   0.05489   0.44686   0.00000  Uiso   1.00
C206   C     0.95812   0.11863   0.46941   0.00000  Uiso   1.00
C207   C     0.00718   0.21288   0.47856   0.00000  Uiso   1.00
H208   H     0.23141   0.02555   0.39954   0.00000  Uiso   1.00
H209   H     0.32423   0.85773   0.42282   0.00000  Uiso   1.00
H210   H     0.16161   0.02605   0.33916   0.00000  Uiso   1.00
H211   H     0.23601   0.20109   0.43300   0.00000  Uiso   1.00
H212   H     0.38352   0.65872   0.45433   0.00000  Uiso   1.00
H213   H     0.04064   0.01366   0.27793   0.00000  Uiso   1.00
H214   H     0.19752   0.38278   0.47581   0.00000  Uiso   1.00
H215   H     0.89545   0.92583   0.44355   0.00000  Uiso   1.00
H216   H     0.96983   0.75254   0.46925   0.00000  Uiso   1.00
H217   H     0.80722   0.92085   0.38558   0.00000  Uiso   1.00
H218   H     0.88162   0.09590   0.47943   0.00000  Uiso   1.00
H219   H     0.09588   0.57333   0.49201   0.00000  Uiso   1.00
H220   H     0.75300   0.92828   0.31561   0.00000  Uiso   1.00
H221   H     0.90988   0.29739   0.51349   0.00000  Uiso   1.00
O222   O     0.29468   0.50381   0.48927   0.00000  Uiso   1.00
O223   O     0.84483   0.96950   0.25784   0.00000  Uiso   1.00
O224   O     0.05066   0.45377   0.51746   0.00000  Uiso   1.00
N225   N     0.30562   0.66242   0.45968   0.00000  Uiso   1.00
N226   N     0.98505   0.99424   0.29475   0.00000  Uiso   1.00
N227   N     0.13171   0.33936   0.47975   0.00000  Uiso   1.00
N228   N     0.15084   0.61647   0.47995   0.00000  Uiso   1.00
N229   N     0.83027   0.94830   0.31503   0.00000  Uiso   1.00
N230   N     0.97693   0.29341   0.50003   0.00000  Uiso   1.00
C231   C     0.84556   0.99730   0.90963   0.00000  Uiso   1.00
C232   C     0.84171   0.10230   0.92838   0.00000  Uiso   1.00
C233   C     0.75227   0.16500   0.93285   0.00000  Uiso   1.00
C234   C     0.76520   0.25820   0.95075   0.00000  Uiso   1.00
C235   C     0.74420   0.41681   0.97788   0.00000  Uiso   1.00
C236   C     0.93006   0.01086   0.88292   0.00000  Uiso   1.00
C237   C     0.91490   0.99667   0.84917   0.00000  Uiso   1.00
C238   C     0.00221   0.01289   0.82881   0.00000  Uiso   1.00
C239   C     0.11840   0.02946   0.78538   0.00000  Uiso   1.00
C240   C     0.88963   0.91576   0.93391   0.00000  Uiso   1.00
C241   C     0.84049   0.82159   0.94303   0.00000  Uiso   1.00
C242   C     0.89378   0.75772   0.96559   0.00000  Uiso   1.00
C243   C     0.94719   0.62664   0.00132   0.00000  Uiso   1.00
C244   C     0.02758   0.05132   0.93347   0.00000  Uiso   1.00
C245   C     0.94058   0.13164   0.94133   0.00000  Uiso   1.00
C246   C     0.95365   0.22478   0.95923   0.00000  Uiso   1.00
C247   C     0.86424   0.28760   0.96372   0.00000  Uiso   1.00
C248   C     0.02893   0.04021   0.89587   0.00000  Uiso   1.00
C249   C     0.11628   0.05644   0.87555   0.00000  Uiso   1.00
C250   C     0.10126   0.04229   0.84178   0.00000  Uiso   1.00
C251   C     0.98850   0.94511   0.94686   0.00000  Uiso   1.00
C252   C     0.04188   0.88137   0.96941   0.00000  Uiso   1.00
C253   C     0.99282   0.78712   0.97856   0.00000  Uiso   1.00
H254   H     0.76859   0.97445   0.89954   0.00000  Uiso   1.00
H255   H     0.67577   0.14227   0.92282   0.00000  Uiso   1.00
H256   H     0.83839   0.97395   0.83916   0.00000  Uiso   1.00
H257   H     0.76399   0.79891   0.93300   0.00000  Uiso   1.00
H258   H     0.61648   0.34128   0.95433   0.00000  Uiso   1.00
H259   H     0.95936   0.98634   0.77793   0.00000  Uiso   1.00
H260   H     0.80248   0.61722   0.97581   0.00000  Uiso   1.00
H261   H     0.10455   0.07417   0.94355   0.00000  Uiso   1.00
H262   H     0.03017   0.24746   0.96925   0.00000  Uiso   1.00
H263   H     0.19278   0.07915   0.88558   0.00000  Uiso   1.00
H264   H     0.11838   0.90410   0.97943   0.00000  Uiso   1.00
H265   H     0.90412   0.42667   0.99201   0.00000  Uiso   1.00
H266   H     0.24700   0.07172   0.81561   0.00000  Uiso   1.00
H267   H     0.09012   0.70261   0.01349   0.00000  Uiso   1.00
O268   O     0.70532   0.49619   0.98927   0.00000  Uiso   1.00
O269   O     0.15517   0.03050   0.75784   0.00000  Uiso   1.00
O270   O     0.94934   0.54623   0.01746   0.00000  Uiso   1.00
N271   N     0.69438   0.33758   0.95968   0.00000  Uiso   1.00
N272   N     0.01495   0.00576   0.79475   0.00000  Uiso   1.00
N273   N     0.86829   0.66064   0.97975   0.00000  Uiso   1.00
N274   N     0.84916   0.38353   0.97995   0.00000  Uiso   1.00
N275   N     0.16973   0.05170   0.81503   0.00000  Uiso   1.00
N276   N     0.02307   0.70659   0.00003   0.00000  Uiso   1.00
C277   C     0.50270   0.34556   0.65963   0.00000  Uiso   1.00
C278   C     0.39770   0.34171   0.67838   0.00000  Uiso   1.00
C279   C     0.33500   0.25227   0.68285   0.00000  Uiso   1.00
C280   C     0.24180   0.26520   0.70075   0.00000  Uiso   1.00
C281   C     0.08319   0.24420   0.72788   0.00000  Uiso   1.00
C282   C     0.48914   0.43006   0.63292   0.00000  Uiso   1.00
C283   C     0.50333   0.41490   0.59917   0.00000  Uiso   1.00
C284   C     0.48711   0.50221   0.57881   0.00000  Uiso   1.00
C285   C     0.47054   0.61840   0.53538   0.00000  Uiso   1.00
C286   C     0.58424   0.38963   0.68391   0.00000  Uiso   1.00
C287   C     0.67841   0.34049   0.69303   0.00000  Uiso   1.00
C288   C     0.74228   0.39378   0.71559   0.00000  Uiso   1.00
C289   C     0.87336   0.44719   0.75132   0.00000  Uiso   1.00
C290   C     0.44868   0.52758   0.68347   0.00000  Uiso   1.00
C291   C     0.36836   0.44058   0.69133   0.00000  Uiso   1.00
C292   C     0.27522   0.45365   0.70923   0.00000  Uiso   1.00
C293   C     0.21240   0.36424   0.71372   0.00000  Uiso   1.00
C294   C     0.45979   0.52893   0.64587   0.00000  Uiso   1.00
C295   C     0.44356   0.61628   0.62555   0.00000  Uiso   1.00
C296   C     0.45771   0.60126   0.59178   0.00000  Uiso   1.00
C297   C     0.55489   0.48850   0.69686   0.00000  Uiso   1.00
C298   C     0.61863   0.54188   0.71941   0.00000  Uiso   1.00
C299   C     0.71288   0.49282   0.72856   0.00000  Uiso   1.00
H300   H     0.52555   0.26859   0.64954   0.00000  Uiso   1.00
H301   H     0.35773   0.17577   0.67282   0.00000  Uiso   1.00
H302   H     0.52605   0.33839   0.58916   0.00000  Uiso   1.00
H303   H     0.70109   0.26399   0.68300   0.00000  Uiso   1.00
H304   H     0.15872   0.11648   0.70433   0.00000  Uiso   1.00
H305   H     0.51366   0.45936   0.52793   0.00000  Uiso   1.00
H306   H     0.88278   0.30248   0.72581   0.00000  Uiso   1.00
H307   H     0.42583   0.60455   0.69355   0.00000  Uiso   1.00
H308   H     0.25254   0.53017   0.71925   0.00000  Uiso   1.00
H309   H     0.42085   0.69278   0.63558   0.00000  Uiso   1.00
H310   H     0.59590   0.61838   0.72943   0.00000  Uiso   1.00
H311   H     0.07333   0.40412   0.74201   0.00000  Uiso   1.00
H312   H     0.42828   0.74700   0.56561   0.00000  Uiso   1.00
H313   H     0.79739   0.59012   0.76349   0.00000  Uiso   1.00
O314   O     0.00381   0.20532   0.73927   0.00000  Uiso   1.00
O315   O     0.46950   0.65517   0.50784   0.00000  Uiso   1.00
O316   O     0.95377   0.44934   0.76746   0.00000  Uiso   1.00
N317   N     0.16242   0.19438   0.70968   0.00000  Uiso   1.00
N318   N     0.49424   0.51495   0.54475   0.00000  Uiso   1.00
N319   N     0.83936   0.36829   0.72975   0.00000  Uiso   1.00
N320   N     0.11647   0.34916   0.72995   0.00000  Uiso   1.00
N321   N     0.44830   0.66973   0.56503   0.00000  Uiso   1.00
N322   N     0.79341   0.52307   0.75003   0.00000  Uiso   1.00
C323   C     0.49730   0.65444   0.15963   0.00000  Uiso   1.00
C324   C     0.60230   0.65829   0.17838   0.00000  Uiso   1.00
C325   C     0.66500   0.74773   0.18285   0.00000  Uiso   1.00
C326   C     0.75820   0.73480   0.20075   0.00000  Uiso   1.00
C327   C     0.91681   0.75580   0.22788   0.00000  Uiso   1.00
C328   C     0.51086   0.56994   0.13292   0.00000  Uiso   1.00
C329   C     0.49667   0.58510   0.09917   0.00000  Uiso   1.00
C330   C     0.51289   0.49779   0.07881   0.00000  Uiso   1.00
C331   C     0.52946   0.38160   0.03538   0.00000  Uiso   1.00
C332   C     0.41576   0.61037   0.18391   0.00000  Uiso   1.00
C333   C     0.32159   0.65951   0.19303   0.00000  Uiso   1.00
C334   C     0.25772   0.60622   0.21559   0.00000  Uiso   1.00
C335   C     0.12664   0.55281   0.25132   0.00000  Uiso   1.00
C336   C     0.55132   0.47242   0.18347   0.00000  Uiso   1.00
C337   C     0.63164   0.55942   0.19133   0.00000  Uiso   1.00
C338   C     0.72478   0.54635   0.20923   0.00000  Uiso   1.00
C339   C     0.78760   0.63576   0.21372   0.00000  Uiso   1.00
C340   C     0.54021   0.47107   0.14587   0.00000  Uiso   1.00
C341   C     0.55644   0.38372   0.12555   0.00000  Uiso   1.00
C342   C     0.54229   0.39874   0.09178   0.00000  Uiso   1.00
C343   C     0.44511   0.51150   0.19686   0.00000  Uiso   1.00
C344   C     0.38137   0.45812   0.21941   0.00000  Uiso   1.00
C345   C     0.28712   0.50718   0.22856   0.00000  Uiso   1.00
H346   H     0.47445   0.73141   0.14954   0.00000  Uiso   1.00
H347   H     0.64227   0.82423   0.17282   0.00000  Uiso   1.00
H348   H     0.47395   0.66161   0.08916   0.00000  Uiso   1.00
H349   H     0.29891   0.73601   0.18300   0.00000  Uiso   1.00
H350   H     0.84128   0.88352   0.20433   0.00000  Uiso   1.00
H351   H     0.48634   0.54064   0.02793   0.00000  Uiso   1.00
H352   H     0.11722   0.69752   0.22581   0.00000  Uiso   1.00
H353   H     0.57417   0.39545   0.19355   0.00000  Uiso   1.00
H354   H     0.74746   0.46983   0.21925   0.00000  Uiso   1.00
H355   H     0.57915   0.30722   0.13558   0.00000  Uiso   1.00
H356   H     0.40410   0.38162   0.22943   0.00000  Uiso   1.00
H357   H     0.92667   0.59588   0.24201   0.00000  Uiso   1.00
H358   H     0.57172   0.25300   0.06561   0.00000  Uiso   1.00
H359   H     0.20261   0.40988   0.26349   0.00000  Uiso   1.00
O360   O     0.99619   0.79468   0.23927   0.00000  Uiso   1.00
O361   O     0.53050   0.34483   0.00784   0.00000  Uiso   1.00
O362   O     0.04623   0.55066   0.26746   0.00000  Uiso   1.00
N363   N     0.83758   0.80562   0.20968   0.00000  Uiso   1.00
N364   N     0.50576   0.48505   0.04475   0.00000  Uiso   1.00
N365   N     0.16064   0.63171   0.22975   0.00000  Uiso   1.00
N366   N     0.88353   0.65084   0.22995   0.00000  Uiso   1.00
N367   N     0.55170   0.33027   0.06503   0.00000  Uiso   1.00
N368   N     0.20659   0.47693   0.25003   0.00000  Uiso   1.00
