data_job_05963
_audit_creation_date              2018-12-19
_audit_creation_method            'Materials Studio'
_symmetry_space_group_name_H-M    'P1'
_symmetry_Int_Tables_number       1
_symmetry_cell_setting            triclinic
loop_
_symmetry_equiv_pos_as_xyz
  x,y,z
_cell_length_a                    15.6079
_cell_length_b                    15.5585
_cell_length_c                    15.5204
_cell_angle_alpha                 92.4718
_cell_angle_beta                  92.4990
_cell_angle_gamma                 92.5512
loop_
_atom_site_label
_atom_site_type_symbol
_atom_site_fract_x
_atom_site_fract_y
_atom_site_fract_z
_atom_site_U_iso_or_equiv
_atom_site_adp_type
_atom_site_occupancy
C1     C     0.79945   0.37557   0.41640   0.00000  Uiso   1.00
C2     C     0.86351   0.30488   0.42489   0.00000  Uiso   1.00
C3     C     0.89169   0.27047   0.50154   0.00000  Uiso   1.00
C4     C     0.95044   0.20627   0.49566   0.00000  Uiso   1.00
C5     C     0.04546   0.10090   0.52098   0.00000  Uiso   1.00
C6     C     0.84481   0.44717   0.36915   0.00000  Uiso   1.00
C7     C     0.85726   0.53240   0.39893   0.00000  Uiso   1.00
C8     C     0.90026   0.58798   0.34612   0.00000  Uiso   1.00
C9     C     0.96619   0.70354   0.28487   0.00000  Uiso   1.00
C10    C     0.72720   0.33847   0.35458   0.00000  Uiso   1.00
C11    C     0.64076   0.33233   0.37211   0.00000  Uiso   1.00
C12    C     0.58474   0.29642   0.30703   0.00000  Uiso   1.00
C13    C     0.46806   0.24321   0.22316   0.00000  Uiso   1.00
C14    C     0.85366   0.32275   0.26964   0.00000  Uiso   1.00
C15    C     0.89295   0.27619   0.34517   0.00000  Uiso   1.00
C16    C     0.95167   0.21203   0.33917   0.00000  Uiso   1.00
C17    C     0.97994   0.17753   0.41581   0.00000  Uiso   1.00
C18    C     0.87425   0.41849   0.28943   0.00000  Uiso   1.00
C19    C     0.91724   0.47396   0.23656   0.00000  Uiso   1.00
C20    C     0.92976   0.55925   0.26626   0.00000  Uiso   1.00
C21    C     0.75664   0.30978   0.27487   0.00000  Uiso   1.00
C22    C     0.70074   0.27389   0.20974   0.00000  Uiso   1.00
C23    C     0.61423   0.26769   0.22717   0.00000  Uiso   1.00
H24    H     0.77653   0.39791   0.47845   0.00000  Uiso   1.00
H25    H     0.86890   0.29269   0.56322   0.00000  Uiso   1.00
H26    H     0.83447   0.55458   0.46062   0.00000  Uiso   1.00
H27    H     0.61800   0.35454   0.43380   0.00000  Uiso   1.00
H28    H     0.98431   0.16341   0.62205   0.00000  Uiso   1.00
H29    H     0.91168   0.71562   0.40569   0.00000  Uiso   1.00
H30    H     0.45522   0.29380   0.34915   0.00000  Uiso   1.00
H31    H     0.87658   0.30042   0.20757   0.00000  Uiso   1.00
H32    H     0.97444   0.18985   0.27748   0.00000  Uiso   1.00
H33    H     0.94001   0.45174   0.17488   0.00000  Uiso   1.00
H34    H     0.72354   0.25170   0.14806   0.00000  Uiso   1.00
H35    H     0.06998   0.07994   0.39013   0.00000  Uiso   1.00
H36    H     0.99735   0.63216   0.17378   0.00000  Uiso   1.00
H37    H     0.54088   0.21033   0.11723   0.00000  Uiso   1.00
O38    O     0.08974   0.05071   0.55696   0.00000  Uiso   1.00
O39    O     0.99443   0.77520   0.27311   0.00000  Uiso   1.00
O40    O     0.39557   0.22177   0.19893   0.00000  Uiso   1.00
N41    N     0.99103   0.15892   0.55787   0.00000  Uiso   1.00
N42    N     0.92314   0.67521   0.35560   0.00000  Uiso   1.00
N43    N     0.49638   0.28086   0.30273   0.00000  Uiso   1.00
N44    N     0.03713   0.11401   0.43308   0.00000  Uiso   1.00
N45    N     0.96923   0.63029   0.23081   0.00000  Uiso   1.00
N46    N     0.54248   0.23594   0.17793   0.00000  Uiso   1.00
C47    C     0.41599   0.79881   0.37576   0.00000  Uiso   1.00
C48    C     0.42444   0.86311   0.30486   0.00000  Uiso   1.00
C49    C     0.50067   0.89143   0.27034   0.00000  Uiso   1.00
C50    C     0.49484   0.95041   0.20596   0.00000  Uiso   1.00
C51    C     0.52003   0.04580   0.10027   0.00000  Uiso   1.00
C52    C     0.36907   0.84425   0.44751   0.00000  Uiso   1.00
C53    C     0.39874   0.85669   0.53294   0.00000  Uiso   1.00
C54    C     0.34628   0.89978   0.58864   0.00000  Uiso   1.00
C55    C     0.28547   0.96583   0.70443   0.00000  Uiso   1.00
C56    C     0.35445   0.72634   0.33863   0.00000  Uiso   1.00
C57    C     0.37181   0.63963   0.33252   0.00000  Uiso   1.00
C58    C     0.30704   0.58345   0.29656   0.00000  Uiso   1.00
C59    C     0.22353   0.46642   0.24330   0.00000  Uiso   1.00
C60    C     0.27006   0.85320   0.32279   0.00000  Uiso   1.00
C61    C     0.34518   0.89266   0.27609   0.00000  Uiso   1.00
C62    C     0.33923   0.95161   0.21173   0.00000  Uiso   1.00
C63    C     0.41544   0.98000   0.17713   0.00000  Uiso   1.00
C64    C     0.28981   0.87379   0.41874   0.00000  Uiso   1.00
C65    C     0.23729   0.91687   0.47433   0.00000  Uiso   1.00
C66    C     0.26688   0.92938   0.55982   0.00000  Uiso   1.00
C67    C     0.27519   0.75588   0.30985   0.00000  Uiso   1.00
C68    C     0.21037   0.69982   0.27391   0.00000  Uiso   1.00
C69    C     0.22763   0.61304   0.26774   0.00000  Uiso   1.00
H70    H     0.47769   0.77580   0.39817   0.00000  Uiso   1.00
H71    H     0.56200   0.86855   0.29263   0.00000  Uiso   1.00
H72    H     0.46007   0.83381   0.55519   0.00000  Uiso   1.00
H73    H     0.43315   0.61679   0.35479   0.00000  Uiso   1.00
H74    H     0.62052   0.98443   0.16296   0.00000  Uiso   1.00
H75    H     0.40559   0.91115   0.71658   0.00000  Uiso   1.00
H76    H     0.34883   0.45352   0.29401   0.00000  Uiso   1.00
H77    H     0.20836   0.87620   0.30039   0.00000  Uiso   1.00
H78    H     0.27789   0.97446   0.18948   0.00000  Uiso   1.00
H79    H     0.17596   0.93972   0.45204   0.00000  Uiso   1.00
H80    H     0.14904   0.72270   0.25165   0.00000  Uiso   1.00
H81    H     0.38992   0.07040   0.07924   0.00000  Uiso   1.00
H82    H     0.17499   0.99711   0.63286   0.00000  Uiso   1.00
H83    H     0.11823   0.53949   0.21029   0.00000  Uiso   1.00
O84    O     0.55582   0.09026   0.04993   0.00000  Uiso   1.00
O85    O     0.27384   0.99410   0.77625   0.00000  Uiso   1.00
O86    O     0.19937   0.39371   0.22185   0.00000  Uiso   1.00
N87    N     0.55671   0.99117   0.15846   0.00000  Uiso   1.00
N88    N     0.35577   0.92266   0.67606   0.00000  Uiso   1.00
N89    N     0.30269   0.49482   0.28102   0.00000  Uiso   1.00
N90    N     0.43262   0.03742   0.11341   0.00000  Uiso   1.00
N91    N     0.23168   0.96892   0.63101   0.00000  Uiso   1.00
N92    N     0.17861   0.54107   0.23597   0.00000  Uiso   1.00
C93    C     0.37543   0.41625   0.79830   0.00000  Uiso   1.00
C94    C     0.30495   0.42468   0.86277   0.00000  Uiso   1.00
C95    C     0.27070   0.50113   0.89110   0.00000  Uiso   1.00
C96    C     0.20670   0.49522   0.95023   0.00000  Uiso   1.00
C97    C     0.10166   0.52041   0.04585   0.00000  Uiso   1.00
C98    C     0.44676   0.36916   0.84389   0.00000  Uiso   1.00
C99    C     0.53174   0.39893   0.85633   0.00000  Uiso   1.00
C100   C     0.58711   0.34628   0.89956   0.00000  Uiso   1.00
C101   C     0.70224   0.28526   0.96581   0.00000  Uiso   1.00
C102   C     0.33842   0.35456   0.72570   0.00000  Uiso   1.00
C103   C     0.33232   0.37204   0.63877   0.00000  Uiso   1.00
C104   C     0.29649   0.30709   0.58249   0.00000  Uiso   1.00
C105   C     0.24340   0.22340   0.46523   0.00000  Uiso   1.00
C106   C     0.32267   0.26982   0.85293   0.00000  Uiso   1.00
C107   C     0.27630   0.34514   0.89244   0.00000  Uiso   1.00
C108   C     0.21233   0.33912   0.95153   0.00000  Uiso   1.00
C109   C     0.17799   0.41554   0.97995   0.00000  Uiso   1.00
C110   C     0.41811   0.28963   0.87355   0.00000  Uiso   1.00
C111   C     0.47336   0.23692   0.91677   0.00000  Uiso   1.00
C112   C     0.55840   0.26660   0.92928   0.00000  Uiso   1.00
C113   C     0.30976   0.27503   0.75537   0.00000  Uiso   1.00
C114   C     0.27394   0.21003   0.69921   0.00000  Uiso   1.00
C115   C     0.26778   0.22741   0.61221   0.00000  Uiso   1.00
H116   H     0.39774   0.47817   0.77521   0.00000  Uiso   1.00
H117   H     0.29290   0.56267   0.86813   0.00000  Uiso   1.00
H118   H     0.55389   0.46048   0.83336   0.00000  Uiso   1.00
H119   H     0.35450   0.43360   0.61584   0.00000  Uiso   1.00
H120   H     0.16405   0.62127   0.98426   0.00000  Uiso   1.00
H121   H     0.71438   0.40579   0.91092   0.00000  Uiso   1.00
H122   H     0.29392   0.34911   0.45222   0.00000  Uiso   1.00
H123   H     0.30036   0.20789   0.87602   0.00000  Uiso   1.00
H124   H     0.19017   0.27756   0.97448   0.00000  Uiso   1.00
H125   H     0.45117   0.17538   0.93971   0.00000  Uiso   1.00
H126   H     0.25177   0.14849   0.72219   0.00000  Uiso   1.00
H127   H     0.08067   0.38987   0.07059   0.00000  Uiso   1.00
H128   H     0.63100   0.17439   0.99724   0.00000  Uiso   1.00
H129   H     0.21054   0.11771   0.53854   0.00000  Uiso   1.00
O130   O     0.05165   0.55628   0.09040   0.00000  Uiso   1.00
O131   O     0.77366   0.27357   0.99416   0.00000  Uiso   1.00
O132   O     0.22202   0.19921   0.39236   0.00000  Uiso   1.00
N133   N     0.15954   0.55725   0.99106   0.00000  Uiso   1.00
N134   N     0.67406   0.35580   0.92250   0.00000  Uiso   1.00
N135   N     0.28098   0.30279   0.49365   0.00000  Uiso   1.00
N136   N     0.11467   0.43273   0.03750   0.00000  Uiso   1.00
N137   N     0.62919   0.23128   0.96894   0.00000  Uiso   1.00
N138   N     0.23612   0.17828   0.54010   0.00000  Uiso   1.00
C139   C     0.20055   0.62443   0.58360   0.00000  Uiso   1.00
C140   C     0.13649   0.69512   0.57511   0.00000  Uiso   1.00
C141   C     0.10831   0.72953   0.49846   0.00000  Uiso   1.00
C142   C     0.04956   0.79373   0.50434   0.00000  Uiso   1.00
C143   C     0.95454   0.89910   0.47902   0.00000  Uiso   1.00
C144   C     0.15519   0.55283   0.63085   0.00000  Uiso   1.00
C145   C     0.14274   0.46760   0.60107   0.00000  Uiso   1.00
C146   C     0.09974   0.41202   0.65388   0.00000  Uiso   1.00
C147   C     0.03381   0.29646   0.71513   0.00000  Uiso   1.00
C148   C     0.27280   0.66153   0.64542   0.00000  Uiso   1.00
C149   C     0.35924   0.66767   0.62789   0.00000  Uiso   1.00
C150   C     0.41527   0.70358   0.69297   0.00000  Uiso   1.00
C151   C     0.53195   0.75679   0.77684   0.00000  Uiso   1.00
C152   C     0.14634   0.67725   0.73036   0.00000  Uiso   1.00
C153   C     0.10705   0.72381   0.65483   0.00000  Uiso   1.00
C154   C     0.04833   0.78797   0.66083   0.00000  Uiso   1.00
C155   C     0.02006   0.82247   0.58419   0.00000  Uiso   1.00
C156   C     0.12575   0.58151   0.71057   0.00000  Uiso   1.00
C157   C     0.08276   0.52604   0.76344   0.00000  Uiso   1.00
C158   C     0.07024   0.44075   0.73374   0.00000  Uiso   1.00
C159   C     0.24336   0.69022   0.72513   0.00000  Uiso   1.00
C160   C     0.29926   0.72611   0.79026   0.00000  Uiso   1.00
C161   C     0.38577   0.73231   0.77283   0.00000  Uiso   1.00
H162   H     0.22347   0.60209   0.52155   0.00000  Uiso   1.00
H163   H     0.13110   0.70731   0.43678   0.00000  Uiso   1.00
H164   H     0.16553   0.44542   0.53938   0.00000  Uiso   1.00
H165   H     0.38200   0.64546   0.56620   0.00000  Uiso   1.00
H166   H     0.01569   0.83659   0.37795   0.00000  Uiso   1.00
H167   H     0.08832   0.28438   0.59431   0.00000  Uiso   1.00
H168   H     0.54478   0.70620   0.65085   0.00000  Uiso   1.00
H169   H     0.12342   0.69958   0.79243   0.00000  Uiso   1.00
H170   H     0.02556   0.81015   0.72252   0.00000  Uiso   1.00
H171   H     0.05999   0.54826   0.82512   0.00000  Uiso   1.00
H172   H     0.27646   0.74830   0.85194   0.00000  Uiso   1.00
H173   H     0.93002   0.92006   0.60987   0.00000  Uiso   1.00
H174   H     0.00265   0.36784   0.82622   0.00000  Uiso   1.00
H175   H     0.45912   0.78967   0.88277   0.00000  Uiso   1.00
O176   O     0.91026   0.94929   0.44304   0.00000  Uiso   1.00
O177   O     0.00557   0.22480   0.72689   0.00000  Uiso   1.00
O178   O     0.60443   0.77823   0.80107   0.00000  Uiso   1.00
N179   N     0.00897   0.84108   0.44213   0.00000  Uiso   1.00
N180   N     0.07686   0.32479   0.64440   0.00000  Uiso   1.00
N181   N     0.50362   0.71914   0.69727   0.00000  Uiso   1.00
N182   N     0.96287   0.88599   0.56692   0.00000  Uiso   1.00
N183   N     0.03077   0.36971   0.76919   0.00000  Uiso   1.00
N184   N     0.45752   0.76406   0.82207   0.00000  Uiso   1.00
C185   C     0.58401   0.20119   0.62424   0.00000  Uiso   1.00
C186   C     0.57556   0.13689   0.69514   0.00000  Uiso   1.00
C187   C     0.49933   0.10857   0.72966   0.00000  Uiso   1.00
C188   C     0.50516   0.04959   0.79404   0.00000  Uiso   1.00
C189   C     0.47997   0.95420   0.89973   0.00000  Uiso   1.00
C190   C     0.63093   0.15575   0.55249   0.00000  Uiso   1.00
C191   C     0.60126   0.14331   0.46706   0.00000  Uiso   1.00
C192   C     0.65372   0.10022   0.41136   0.00000  Uiso   1.00
C193   C     0.71453   0.03417   0.29557   0.00000  Uiso   1.00
C194   C     0.64555   0.27366   0.66137   0.00000  Uiso   1.00
C195   C     0.62819   0.36037   0.66748   0.00000  Uiso   1.00
C196   C     0.69296   0.41655   0.70344   0.00000  Uiso   1.00
C197   C     0.77647   0.53358   0.75670   0.00000  Uiso   1.00
C198   C     0.72994   0.14680   0.67721   0.00000  Uiso   1.00
C199   C     0.65482   0.10734   0.72391   0.00000  Uiso   1.00
C200   C     0.66077   0.04839   0.78827   0.00000  Uiso   1.00
C201   C     0.58456   0.02000   0.82287   0.00000  Uiso   1.00
C202   C     0.71019   0.12621   0.58126   0.00000  Uiso   1.00
C203   C     0.76271   0.08313   0.52567   0.00000  Uiso   1.00
C204   C     0.73312   0.07062   0.44018   0.00000  Uiso   1.00
C205   C     0.72481   0.24412   0.69015   0.00000  Uiso   1.00
C206   C     0.78963   0.30018   0.72610   0.00000  Uiso   1.00
C207   C     0.77237   0.38696   0.73226   0.00000  Uiso   1.00
H208   H     0.52231   0.22420   0.60183   0.00000  Uiso   1.00
H209   H     0.43800   0.13145   0.70737   0.00000  Uiso   1.00
H210   H     0.53993   0.16619   0.44481   0.00000  Uiso   1.00
H211   H     0.56685   0.38321   0.64521   0.00000  Uiso   1.00
H212   H     0.37948   0.01557   0.83704   0.00000  Uiso   1.00
H213   H     0.59441   0.08885   0.28342   0.00000  Uiso   1.00
H214   H     0.65117   0.54648   0.70599   0.00000  Uiso   1.00
H215   H     0.79164   0.12380   0.69961   0.00000  Uiso   1.00
H216   H     0.72212   0.02554   0.81052   0.00000  Uiso   1.00
H217   H     0.82404   0.06028   0.54796   0.00000  Uiso   1.00
H218   H     0.85096   0.27730   0.74835   0.00000  Uiso   1.00
H219   H     0.61008   0.92960   0.92076   0.00000  Uiso   1.00
H220   H     0.82501   0.00289   0.36714   0.00000  Uiso   1.00
H221   H     0.88177   0.46051   0.78971   0.00000  Uiso   1.00
O222   O     0.44418   0.90974   0.95007   0.00000  Uiso   1.00
O223   O     0.72616   0.00590   0.22375   0.00000  Uiso   1.00
O224   O     0.80063   0.60629   0.77815   0.00000  Uiso   1.00
N225   N     0.44329   0.00883   0.84154   0.00000  Uiso   1.00
N226   N     0.64423   0.07734   0.32394   0.00000  Uiso   1.00
N227   N     0.69731   0.50518   0.71898   0.00000  Uiso   1.00
N228   N     0.56738   0.96258   0.88659   0.00000  Uiso   1.00
N229   N     0.76832   0.03108   0.36899   0.00000  Uiso   1.00
N230   N     0.82139   0.45893   0.76403   0.00000  Uiso   1.00
C231   C     0.62457   0.58375   0.20170   0.00000  Uiso   1.00
C232   C     0.69505   0.57532   0.13723   0.00000  Uiso   1.00
C233   C     0.72930   0.49887   0.10890   0.00000  Uiso   1.00
C234   C     0.79330   0.50478   0.04977   0.00000  Uiso   1.00
C235   C     0.89834   0.47959   0.95415   0.00000  Uiso   1.00
C236   C     0.55324   0.63084   0.15611   0.00000  Uiso   1.00
C237   C     0.46826   0.60107   0.14367   0.00000  Uiso   1.00
C238   C     0.41289   0.65372   0.10044   0.00000  Uiso   1.00
C239   C     0.29776   0.71474   0.03420   0.00000  Uiso   1.00
C240   C     0.66158   0.64544   0.27430   0.00000  Uiso   1.00
C241   C     0.66768   0.62796   0.36123   0.00000  Uiso   1.00
C242   C     0.70351   0.69291   0.41751   0.00000  Uiso   1.00
C243   C     0.75660   0.77660   0.53477   0.00000  Uiso   1.00
C244   C     0.67733   0.73018   0.14707   0.00000  Uiso   1.00
C245   C     0.72370   0.65486   0.10756   0.00000  Uiso   1.00
C246   C     0.78767   0.66088   0.04847   0.00000  Uiso   1.00
C247   C     0.82201   0.58446   0.02005   0.00000  Uiso   1.00
C248   C     0.58189   0.71037   0.12645   0.00000  Uiso   1.00
C249   C     0.52664   0.76308   0.08323   0.00000  Uiso   1.00
C250   C     0.44160   0.73340   0.07072   0.00000  Uiso   1.00
C251   C     0.69024   0.72497   0.24463   0.00000  Uiso   1.00
C252   C     0.72606   0.78997   0.30079   0.00000  Uiso   1.00
C253   C     0.73222   0.77259   0.38779   0.00000  Uiso   1.00
H254   H     0.60226   0.52183   0.22479   0.00000  Uiso   1.00
H255   H     0.70710   0.43733   0.13187   0.00000  Uiso   1.00
H256   H     0.44611   0.53952   0.16664   0.00000  Uiso   1.00
H257   H     0.64550   0.56640   0.38416   0.00000  Uiso   1.00
H258   H     0.83595   0.37873   0.01574   0.00000  Uiso   1.00
H259   H     0.28562   0.59421   0.08908   0.00000  Uiso   1.00
H260   H     0.70608   0.65089   0.54778   0.00000  Uiso   1.00
H261   H     0.69964   0.79211   0.12398   0.00000  Uiso   1.00
H262   H     0.80983   0.72244   0.02552   0.00000  Uiso   1.00
H263   H     0.54883   0.82462   0.06029   0.00000  Uiso   1.00
H264   H     0.74823   0.85151   0.27781   0.00000  Uiso   1.00
H265   H     0.91933   0.61013   0.92941   0.00000  Uiso   1.00
H266   H     0.36900   0.82561   0.00276   0.00000  Uiso   1.00
H267   H     0.78946   0.88229   0.46146   0.00000  Uiso   1.00
O268   O     0.94835   0.44372   0.90960   0.00000  Uiso   1.00
O269   O     0.22634   0.72643   0.00584   0.00000  Uiso   1.00
O270   O     0.77798   0.80079   0.60764   0.00000  Uiso   1.00
N271   N     0.84046   0.44275   0.00895   0.00000  Uiso   1.00
N272   N     0.32594   0.64420   0.07750   0.00000  Uiso   1.00
N273   N     0.71902   0.69721   0.50635   0.00000  Uiso   1.00
N274   N     0.88533   0.56727   0.96250   0.00000  Uiso   1.00
N275   N     0.37081   0.76872   0.03106   0.00000  Uiso   1.00
N276   N     0.76388   0.82172   0.45990   0.00000  Uiso   1.00
