data_job_06205
_audit_creation_date              2018-12-19
_audit_creation_method            'Materials Studio'
_symmetry_space_group_name_H-M    'P1'
_symmetry_Int_Tables_number       1
_symmetry_cell_setting            triclinic
loop_
_symmetry_equiv_pos_as_xyz
  x,y,z
_cell_length_a                    17.8431
_cell_length_b                    17.8291
_cell_length_c                    17.8145
_cell_angle_alpha                 98.8192
_cell_angle_beta                  98.8094
_cell_angle_gamma                 98.7981
loop_
_atom_site_label
_atom_site_type_symbol
_atom_site_fract_x
_atom_site_fract_y
_atom_site_fract_z
_atom_site_U_iso_or_equiv
_atom_site_adp_type
_atom_site_occupancy
C1     C     0.64563   0.86206   0.46026   0.00000  Uiso   1.00
C2     C     0.66838   0.78628   0.47651   0.00000  Uiso   1.00
C3     C     0.64195   0.71445   0.42966   0.00000  Uiso   1.00
C4     C     0.66963   0.65218   0.45469   0.00000  Uiso   1.00
C5     C     0.69697   0.53310   0.46939   0.00000  Uiso   1.00
C6     C     0.61364   0.89515   0.53028   0.00000  Uiso   1.00
C7     C     0.54119   0.91486   0.52864   0.00000  Uiso   1.00
C8     C     0.52280   0.94424   0.59894   0.00000  Uiso   1.00
C9     C     0.46518   0.99423   0.69710   0.00000  Uiso   1.00
C10    C     0.72077   0.91648   0.46154   0.00000  Uiso   1.00
C11    C     0.73839   0.95415   0.40212   0.00000  Uiso   1.00
C12    C     0.81018   0.00151   0.41455   0.00000  Uiso   1.00
C13    C     0.91890   0.08462   0.40600   0.00000  Uiso   1.00
C14    C     0.74179   0.87919   0.58802   0.00000  Uiso   1.00
C15    C     0.72061   0.79559   0.54590   0.00000  Uiso   1.00
C16    C     0.74834   0.73341   0.57101   0.00000  Uiso   1.00
C17    C     0.72195   0.66150   0.52421   0.00000  Uiso   1.00
C18    C     0.66587   0.90446   0.59967   0.00000  Uiso   1.00
C19    C     0.64758   0.93382   0.66999   0.00000  Uiso   1.00
C20    C     0.57512   0.95357   0.66846   0.00000  Uiso   1.00
C21    C     0.77300   0.92579   0.53094   0.00000  Uiso   1.00
C22    C     0.84478   0.97310   0.54347   0.00000  Uiso   1.00
C23    C     0.86250   0.01083   0.48407   0.00000  Uiso   1.00
H24    H     0.60497   0.85482   0.40623   0.00000  Uiso   1.00
H25    H     0.60152   0.70727   0.37596   0.00000  Uiso   1.00
H26    H     0.50079   0.90766   0.47493   0.00000  Uiso   1.00
H27    H     0.69796   0.94694   0.34843   0.00000  Uiso   1.00
H28    H     0.62072   0.54780   0.37302   0.00000  Uiso   1.00
H29    H     0.40832   0.97035   0.58168   0.00000  Uiso   1.00
H30    H     0.82408   0.05318   0.31493   0.00000  Uiso   1.00
H31    H     0.78245   0.88644   0.64205   0.00000  Uiso   1.00
H32    H     0.78875   0.74063   0.62472   0.00000  Uiso   1.00
H33    H     0.68801   0.94102   0.72368   0.00000  Uiso   1.00
H34    H     0.88518   0.98029   0.59718   0.00000  Uiso   1.00
H35    H     0.77268   0.57487   0.57492   0.00000  Uiso   1.00
H36    H     0.56027   0.99743   0.78358   0.00000  Uiso   1.00
H37    H     0.97604   0.08025   0.51683   0.00000  Uiso   1.00
O38    O     0.69762   0.46484   0.45833   0.00000  Uiso   1.00
O39    O     0.41896   0.01923   0.73208   0.00000  Uiso   1.00
O40    O     0.96444   0.12789   0.38211   0.00000  Uiso   1.00
N41    N     0.65563   0.57418   0.42291   0.00000  Uiso   1.00
N42    N     0.45704   0.96923   0.61800   0.00000  Uiso   1.00
N43    N     0.84574   0.04668   0.36862   0.00000  Uiso   1.00
N44    N     0.73740   0.58875   0.53155   0.00000  Uiso   1.00
N45    N     0.53881   0.98380   0.72664   0.00000  Uiso   1.00
N46    N     0.92751   0.06125   0.47725   0.00000  Uiso   1.00
C47    C     0.46034   0.64569   0.86210   0.00000  Uiso   1.00
C48    C     0.47656   0.66843   0.78626   0.00000  Uiso   1.00
C49    C     0.42979   0.64198   0.71438   0.00000  Uiso   1.00
C50    C     0.45478   0.66966   0.65205   0.00000  Uiso   1.00
C51    C     0.46945   0.69700   0.53287   0.00000  Uiso   1.00
C52    C     0.53025   0.61366   0.89520   0.00000  Uiso   1.00
C53    C     0.52861   0.54116   0.91492   0.00000  Uiso   1.00
C54    C     0.59879   0.52274   0.94431   0.00000  Uiso   1.00
C55    C     0.69680   0.46506   0.99431   0.00000  Uiso   1.00
C56    C     0.46163   0.72089   0.91659   0.00000  Uiso   1.00
C57    C     0.40230   0.73855   0.95430   0.00000  Uiso   1.00
C58    C     0.41472   0.81041   0.00171   0.00000  Uiso   1.00
C59    C     0.40618   0.91923   0.08492   0.00000  Uiso   1.00
C60    C     0.58789   0.74190   0.87924   0.00000  Uiso   1.00
C61    C     0.54585   0.72069   0.79557   0.00000  Uiso   1.00
C62    C     0.57091   0.74843   0.73334   0.00000  Uiso   1.00
C63    C     0.52418   0.72202   0.66137   0.00000  Uiso   1.00
C64    C     0.59953   0.66592   0.90451   0.00000  Uiso   1.00
C65    C     0.66973   0.64760   0.93388   0.00000  Uiso   1.00
C66    C     0.66820   0.57509   0.95363   0.00000  Uiso   1.00
C67    C     0.53091   0.77316   0.92590   0.00000  Uiso   1.00
C68    C     0.54342   0.84500   0.97326   0.00000  Uiso   1.00
C69    C     0.48412   0.86276   0.01104   0.00000  Uiso   1.00
H70    H     0.40641   0.60500   0.85486   0.00000  Uiso   1.00
H71    H     0.37618   0.60153   0.70719   0.00000  Uiso   1.00
H72    H     0.47499   0.50073   0.90771   0.00000  Uiso   1.00
H73    H     0.34870   0.69809   0.94709   0.00000  Uiso   1.00
H74    H     0.37324   0.62071   0.54759   0.00000  Uiso   1.00
H75    H     0.58157   0.40817   0.97042   0.00000  Uiso   1.00
H76    H     0.31526   0.82435   0.05344   0.00000  Uiso   1.00
H77    H     0.64183   0.78259   0.88649   0.00000  Uiso   1.00
H78    H     0.62453   0.78887   0.74056   0.00000  Uiso   1.00
H79    H     0.72333   0.68806   0.94108   0.00000  Uiso   1.00
H80    H     0.59704   0.88542   0.98045   0.00000  Uiso   1.00
H81    H     0.57481   0.77276   0.57467   0.00000  Uiso   1.00
H82    H     0.78313   0.56022   0.99750   0.00000  Uiso   1.00
H83    H     0.51683   0.97640   0.08053   0.00000  Uiso   1.00
O84    O     0.45841   0.69764   0.46456   0.00000  Uiso   1.00
O85    O     0.73171   0.41881   0.01931   0.00000  Uiso   1.00
O86    O     0.38233   0.96482   0.12823   0.00000  Uiso   1.00
N87    N     0.42305   0.65565   0.57399   0.00000  Uiso   1.00
N88    N     0.61782   0.45693   0.96930   0.00000  Uiso   1.00
N89    N     0.36886   0.84601   0.04694   0.00000  Uiso   1.00
N90    N     0.53151   0.73746   0.58856   0.00000  Uiso   1.00
N91    N     0.72628   0.53875   0.98387   0.00000  Uiso   1.00
N92    N     0.47732   0.92783   0.06151   0.00000  Uiso   1.00
C93    C     0.86205   0.46030   0.64571   0.00000  Uiso   1.00
C94    C     0.78634   0.47656   0.66850   0.00000  Uiso   1.00
C95    C     0.71457   0.42976   0.64202   0.00000  Uiso   1.00
C96    C     0.65235   0.45478   0.66975   0.00000  Uiso   1.00
C97    C     0.53337   0.46949   0.69714   0.00000  Uiso   1.00
C98    C     0.89509   0.53025   0.61366   0.00000  Uiso   1.00
C99    C     0.91478   0.52859   0.54109   0.00000  Uiso   1.00
C100   C     0.94412   0.59882   0.52267   0.00000  Uiso   1.00
C101   C     0.99403   0.69689   0.46495   0.00000  Uiso   1.00
C102   C     0.91644   0.46159   0.72097   0.00000  Uiso   1.00
C103   C     0.95410   0.40221   0.73862   0.00000  Uiso   1.00
C104   C     0.00143   0.41464   0.81053   0.00000  Uiso   1.00
C105   C     0.08450   0.40610   0.91943   0.00000  Uiso   1.00
C106   C     0.87916   0.58797   0.74203   0.00000  Uiso   1.00
C107   C     0.79564   0.54590   0.72081   0.00000  Uiso   1.00
C108   C     0.73351   0.57100   0.74858   0.00000  Uiso   1.00
C109   C     0.66166   0.52425   0.72216   0.00000  Uiso   1.00
C110   C     0.90439   0.59959   0.66597   0.00000  Uiso   1.00
C111   C     0.93371   0.66984   0.64765   0.00000  Uiso   1.00
C112   C     0.95343   0.66829   0.57507   0.00000  Uiso   1.00
C113   C     0.92574   0.53093   0.77329   0.00000  Uiso   1.00
C114   C     0.97303   0.54346   0.84518   0.00000  Uiso   1.00
C115   C     0.01075   0.48411   0.86294   0.00000  Uiso   1.00
H116   H     0.85481   0.40632   0.60498   0.00000  Uiso   1.00
H117   H     0.70740   0.37610   0.60153   0.00000  Uiso   1.00
H118   H     0.90758   0.47492   0.50062   0.00000  Uiso   1.00
H119   H     0.94689   0.34856   0.69812   0.00000  Uiso   1.00
H120   H     0.54806   0.37319   0.62076   0.00000  Uiso   1.00
H121   H     0.97018   0.58156   0.40800   0.00000  Uiso   1.00
H122   H     0.05308   0.31510   0.82446   0.00000  Uiso   1.00
H123   H     0.88640   0.64196   0.78276   0.00000  Uiso   1.00
H124   H     0.74072   0.62467   0.78907   0.00000  Uiso   1.00
H125   H     0.94090   0.72349   0.68815   0.00000  Uiso   1.00
H126   H     0.98021   0.59713   0.88565   0.00000  Uiso   1.00
H127   H     0.57510   0.57494   0.77297   0.00000  Uiso   1.00
H128   H     0.99723   0.78331   0.56020   0.00000  Uiso   1.00
H129   H     0.08012   0.51685   0.97667   0.00000  Uiso   1.00
O130   O     0.46517   0.45846   0.69779   0.00000  Uiso   1.00
O131   O     0.01899   0.73182   0.41866   0.00000  Uiso   1.00
O132   O     0.12774   0.38223   0.96505   0.00000  Uiso   1.00
N133   N     0.57442   0.42304   0.65573   0.00000  Uiso   1.00
N134   N     0.96907   0.61785   0.45680   0.00000  Uiso   1.00
N135   N     0.04658   0.36874   0.84615   0.00000  Uiso   1.00
N136   N     0.58897   0.53160   0.73763   0.00000  Uiso   1.00
N137   N     0.98362   0.72641   0.53870   0.00000  Uiso   1.00
N138   N     0.06113   0.47730   0.92806   0.00000  Uiso   1.00
C139   C     0.35437   0.13794   0.53974   0.00000  Uiso   1.00
C140   C     0.33162   0.21372   0.52349   0.00000  Uiso   1.00
C141   C     0.35805   0.28555   0.57034   0.00000  Uiso   1.00
C142   C     0.33037   0.34782   0.54531   0.00000  Uiso   1.00
C143   C     0.30303   0.46690   0.53061   0.00000  Uiso   1.00
C144   C     0.38636   0.10485   0.46972   0.00000  Uiso   1.00
C145   C     0.45881   0.08514   0.47136   0.00000  Uiso   1.00
C146   C     0.47720   0.05576   0.40107   0.00000  Uiso   1.00
C147   C     0.53482   0.00577   0.30290   0.00000  Uiso   1.00
C148   C     0.27923   0.08352   0.53846   0.00000  Uiso   1.00
C149   C     0.26161   0.04585   0.59788   0.00000  Uiso   1.00
C150   C     0.18982   0.99849   0.58545   0.00000  Uiso   1.00
C151   C     0.08110   0.91538   0.59400   0.00000  Uiso   1.00
C152   C     0.25821   0.12081   0.41198   0.00000  Uiso   1.00
C153   C     0.27939   0.20441   0.45410   0.00000  Uiso   1.00
C154   C     0.25166   0.26659   0.42899   0.00000  Uiso   1.00
C155   C     0.27805   0.33850   0.47579   0.00000  Uiso   1.00
C156   C     0.33413   0.09554   0.40033   0.00000  Uiso   1.00
C157   C     0.35242   0.06618   0.33001   0.00000  Uiso   1.00
C158   C     0.42488   0.04643   0.33154   0.00000  Uiso   1.00
C159   C     0.22700   0.07421   0.46906   0.00000  Uiso   1.00
C160   C     0.15522   0.02690   0.45653   0.00000  Uiso   1.00
C161   C     0.13750   0.98917   0.51593   0.00000  Uiso   1.00
H162   H     0.39503   0.14518   0.59377   0.00000  Uiso   1.00
H163   H     0.39848   0.29273   0.62404   0.00000  Uiso   1.00
H164   H     0.49921   0.09234   0.52507   0.00000  Uiso   1.00
H165   H     0.30204   0.05306   0.65157   0.00000  Uiso   1.00
H166   H     0.37928   0.45220   0.62698   0.00000  Uiso   1.00
H167   H     0.59168   0.02965   0.41832   0.00000  Uiso   1.00
H168   H     0.17592   0.94682   0.68507   0.00000  Uiso   1.00
H169   H     0.21755   0.11356   0.35795   0.00000  Uiso   1.00
H170   H     0.21125   0.25937   0.37528   0.00000  Uiso   1.00
H171   H     0.31199   0.05898   0.27632   0.00000  Uiso   1.00
H172   H     0.11482   0.01971   0.40282   0.00000  Uiso   1.00
H173   H     0.22732   0.42513   0.42508   0.00000  Uiso   1.00
H174   H     0.43973   0.00257   0.21642   0.00000  Uiso   1.00
H175   H     0.02396   0.91975   0.48317   0.00000  Uiso   1.00
O176   O     0.30238   0.53516   0.54167   0.00000  Uiso   1.00
O177   O     0.58104   0.98077   0.26792   0.00000  Uiso   1.00
O178   O     0.03556   0.87211   0.61789   0.00000  Uiso   1.00
N179   N     0.34437   0.42582   0.57709   0.00000  Uiso   1.00
N180   N     0.54296   0.03077   0.38200   0.00000  Uiso   1.00
N181   N     0.15426   0.95332   0.63139   0.00000  Uiso   1.00
N182   N     0.26260   0.41125   0.46845   0.00000  Uiso   1.00
N183   N     0.46119   0.01620   0.27336   0.00000  Uiso   1.00
N184   N     0.07249   0.93875   0.52275   0.00000  Uiso   1.00
C185   C     0.53966   0.35431   0.13790   0.00000  Uiso   1.00
C186   C     0.52344   0.33157   0.21374   0.00000  Uiso   1.00
C187   C     0.57021   0.35802   0.28562   0.00000  Uiso   1.00
C188   C     0.54522   0.33034   0.34795   0.00000  Uiso   1.00
C189   C     0.53055   0.30300   0.46713   0.00000  Uiso   1.00
C190   C     0.46975   0.38634   0.10480   0.00000  Uiso   1.00
C191   C     0.47139   0.45885   0.08508   0.00000  Uiso   1.00
C192   C     0.40121   0.47726   0.05569   0.00000  Uiso   1.00
C193   C     0.30320   0.53494   0.00569   0.00000  Uiso   1.00
C194   C     0.53837   0.27911   0.08342   0.00000  Uiso   1.00
C195   C     0.59770   0.26145   0.04570   0.00000  Uiso   1.00
C196   C     0.58528   0.18959   0.99829   0.00000  Uiso   1.00
C197   C     0.59382   0.08077   0.91508   0.00000  Uiso   1.00
C198   C     0.41211   0.25810   0.12076   0.00000  Uiso   1.00
C199   C     0.45415   0.27931   0.20443   0.00000  Uiso   1.00
C200   C     0.42909   0.25157   0.26666   0.00000  Uiso   1.00
C201   C     0.47582   0.27798   0.33863   0.00000  Uiso   1.00
C202   C     0.40047   0.33408   0.09549   0.00000  Uiso   1.00
C203   C     0.33027   0.35240   0.06612   0.00000  Uiso   1.00
C204   C     0.33180   0.42491   0.04637   0.00000  Uiso   1.00
C205   C     0.46909   0.22684   0.07410   0.00000  Uiso   1.00
C206   C     0.45658   0.15500   0.02674   0.00000  Uiso   1.00
C207   C     0.51588   0.13724   0.98896   0.00000  Uiso   1.00
H208   H     0.59359   0.39500   0.14514   0.00000  Uiso   1.00
H209   H     0.62382   0.39847   0.29281   0.00000  Uiso   1.00
H210   H     0.52501   0.49927   0.09229   0.00000  Uiso   1.00
H211   H     0.65130   0.30191   0.05291   0.00000  Uiso   1.00
H212   H     0.62676   0.37929   0.45241   0.00000  Uiso   1.00
H213   H     0.41843   0.59183   0.02958   0.00000  Uiso   1.00
H214   H     0.68474   0.17565   0.94656   0.00000  Uiso   1.00
H215   H     0.35817   0.21741   0.11351   0.00000  Uiso   1.00
H216   H     0.37547   0.21113   0.25944   0.00000  Uiso   1.00
H217   H     0.27667   0.31194   0.05892   0.00000  Uiso   1.00
H218   H     0.40296   0.11458   0.01955   0.00000  Uiso   1.00
H219   H     0.42519   0.22724   0.42533   0.00000  Uiso   1.00
H220   H     0.21687   0.43978   0.00250   0.00000  Uiso   1.00
H221   H     0.48317   0.02360   0.91948   0.00000  Uiso   1.00
O222   O     0.54160   0.30236   0.53544   0.00000  Uiso   1.00
O223   O     0.26829   0.58119   0.98069   0.00000  Uiso   1.00
O224   O     0.61767   0.03518   0.87177   0.00000  Uiso   1.00
N225   N     0.57695   0.34435   0.42601   0.00000  Uiso   1.00
N226   N     0.38218   0.54307   0.03070   0.00000  Uiso   1.00
N227   N     0.63114   0.15399   0.95306   0.00000  Uiso   1.00
N228   N     0.46849   0.26254   0.41144   0.00000  Uiso   1.00
N229   N     0.27372   0.46125   0.01613   0.00000  Uiso   1.00
N230   N     0.52268   0.07217   0.93849   0.00000  Uiso   1.00
C231   C     0.13795   0.53970   0.35429   0.00000  Uiso   1.00
C232   C     0.21366   0.52344   0.33150   0.00000  Uiso   1.00
C233   C     0.28543   0.57024   0.35798   0.00000  Uiso   1.00
C234   C     0.34765   0.54522   0.33025   0.00000  Uiso   1.00
C235   C     0.46663   0.53051   0.30286   0.00000  Uiso   1.00
C236   C     0.10491   0.46975   0.38634   0.00000  Uiso   1.00
C237   C     0.08522   0.47141   0.45891   0.00000  Uiso   1.00
C238   C     0.05588   0.40118   0.47733   0.00000  Uiso   1.00
C239   C     0.00597   0.30311   0.53505   0.00000  Uiso   1.00
C240   C     0.08356   0.53841   0.27903   0.00000  Uiso   1.00
C241   C     0.04590   0.59779   0.26138   0.00000  Uiso   1.00
C242   C     0.99857   0.58536   0.18947   0.00000  Uiso   1.00
C243   C     0.91550   0.59390   0.08057   0.00000  Uiso   1.00
C244   C     0.12084   0.41203   0.25797   0.00000  Uiso   1.00
C245   C     0.20436   0.45410   0.27919   0.00000  Uiso   1.00
C246   C     0.26649   0.42900   0.25142   0.00000  Uiso   1.00
C247   C     0.33834   0.47575   0.27784   0.00000  Uiso   1.00
C248   C     0.09561   0.40041   0.33403   0.00000  Uiso   1.00
C249   C     0.06629   0.33016   0.35235   0.00000  Uiso   1.00
C250   C     0.04657   0.33171   0.42493   0.00000  Uiso   1.00
C251   C     0.07426   0.46907   0.22671   0.00000  Uiso   1.00
C252   C     0.02697   0.45654   0.15482   0.00000  Uiso   1.00
C253   C     0.98926   0.51589   0.13706   0.00000  Uiso   1.00
H254   H     0.14519   0.59368   0.39502   0.00000  Uiso   1.00
H255   H     0.29260   0.62390   0.39847   0.00000  Uiso   1.00
H256   H     0.09242   0.52508   0.49938   0.00000  Uiso   1.00
H257   H     0.05311   0.65144   0.30188   0.00000  Uiso   1.00
H258   H     0.45194   0.62681   0.37924   0.00000  Uiso   1.00
H259   H     0.02982   0.41844   0.59200   0.00000  Uiso   1.00
H260   H     0.94692   0.68490   0.17554   0.00000  Uiso   1.00
H261   H     0.11360   0.35804   0.21724   0.00000  Uiso   1.00
H262   H     0.25928   0.37533   0.21093   0.00000  Uiso   1.00
H263   H     0.05910   0.27651   0.31185   0.00000  Uiso   1.00
H264   H     0.01979   0.40287   0.11435   0.00000  Uiso   1.00
H265   H     0.42490   0.42506   0.22703   0.00000  Uiso   1.00
H266   H     0.00277   0.21669   0.43980   0.00000  Uiso   1.00
H267   H     0.91988   0.48315   0.02333   0.00000  Uiso   1.00
O268   O     0.53483   0.54154   0.30221   0.00000  Uiso   1.00
O269   O     0.98101   0.26818   0.58134   0.00000  Uiso   1.00
O270   O     0.87226   0.61777   0.03495   0.00000  Uiso   1.00
N271   N     0.42558   0.57696   0.34427   0.00000  Uiso   1.00
N272   N     0.03093   0.38215   0.54320   0.00000  Uiso   1.00
N273   N     0.95342   0.63126   0.15385   0.00000  Uiso   1.00
N274   N     0.41103   0.46840   0.26237   0.00000  Uiso   1.00
N275   N     0.01638   0.27359   0.46130   0.00000  Uiso   1.00
N276   N     0.93887   0.52270   0.07194   0.00000  Uiso   1.00
