data_job_02877
_audit_creation_date              2018-12-19
_audit_creation_method            'Materials Studio'
_symmetry_space_group_name_H-M    'P1'
_symmetry_Int_Tables_number       1
_symmetry_cell_setting            triclinic
loop_
_symmetry_equiv_pos_as_xyz
  x,y,z
_cell_length_a                    12.5371
_cell_length_b                    34.7346
_cell_length_c                    14.9623
_cell_angle_alpha                 90.0000
_cell_angle_beta                  124.0048
_cell_angle_gamma                 90.0000
loop_
_atom_site_label
_atom_site_type_symbol
_atom_site_fract_x
_atom_site_fract_y
_atom_site_fract_z
_atom_site_U_iso_or_equiv
_atom_site_adp_type
_atom_site_occupancy
C1     C     0.74566   0.11829   0.79474   0.00000  Uiso   1.00
C2     C     0.79582   0.14703   0.88695   0.00000  Uiso   1.00
C3     C     0.78117   0.14418   0.97204   0.00000  Uiso   1.00
C4     C     0.83403   0.17345   0.04824   0.00000  Uiso   1.00
C5     C     0.90194   0.21337   0.19271   0.00000  Uiso   1.00
C6     C     0.66097   0.14130   0.69124   0.00000  Uiso   1.00
C7     C     0.53296   0.13362   0.61177   0.00000  Uiso   1.00
C8     C     0.47232   0.15806   0.52321   0.00000  Uiso   1.00
C9     C     0.33092   0.18908   0.36380   0.00000  Uiso   1.00
C10    C     0.86235   0.10564   0.79507   0.00000  Uiso   1.00
C11    C     0.90364   0.06797   0.80288   0.00000  Uiso   1.00
C12    C     0.01252   0.06238   0.80172   0.00000  Uiso   1.00
C13    C     0.18379   0.03802   0.80353   0.00000  Uiso   1.00
C14    C     0.86557   0.17535   0.77876   0.00000  Uiso   1.00
C15    C     0.86094   0.17803   0.87826   0.00000  Uiso   1.00
C16    C     0.91384   0.20731   0.95436   0.00000  Uiso   1.00
C17    C     0.89928   0.20449   0.03955   0.00000  Uiso   1.00
C18    C     0.72610   0.17229   0.68255   0.00000  Uiso   1.00
C19    C     0.66563   0.19675   0.59409   0.00000  Uiso   1.00
C20    C     0.53756   0.18911   0.51451   0.00000  Uiso   1.00
C21    C     0.92748   0.13663   0.78639   0.00000  Uiso   1.00
C22    C     0.03631   0.13110   0.78521   0.00000  Uiso   1.00
C23    C     0.07777   0.09343   0.79302   0.00000  Uiso   1.00
H24    H     0.69495   0.09416   0.80149   0.00000  Uiso   1.00
H25    H     0.73075   0.12019   0.97872   0.00000  Uiso   1.00
H26    H     0.48259   0.10963   0.61851   0.00000  Uiso   1.00
H27    H     0.85322   0.04399   0.80960   0.00000  Uiso   1.00
H28    H     0.79913   0.16272   0.17137   0.00000  Uiso   1.00
H29    H     0.27588   0.14046   0.41182   0.00000  Uiso   1.00
H30    H     0.05741   0.00203   0.81476   0.00000  Uiso   1.00
H31    H     0.91627   0.19948   0.77200   0.00000  Uiso   1.00
H32    H     0.96423   0.23129   0.94762   0.00000  Uiso   1.00
H33    H     0.71606   0.22073   0.58740   0.00000  Uiso   1.00
H34    H     0.08669   0.15509   0.77849   0.00000  Uiso   1.00
H35    H     0.98863   0.25290   0.14612   0.00000  Uiso   1.00
H36    H     0.46538   0.23063   0.38656   0.00000  Uiso   1.00
H37    H     0.24691   0.09221   0.78952   0.00000  Uiso   1.00
O38    O     0.92140   0.22684   0.27479   0.00000  Uiso   1.00
O39    O     0.23492   0.19762   0.27827   0.00000  Uiso   1.00
O40    O     0.26027   0.01602   0.80694   0.00000  Uiso   1.00
N41    N     0.83717   0.17957   0.14134   0.00000  Uiso   1.00
N42    N     0.34796   0.15876   0.43121   0.00000  Uiso   1.00
N43    N     0.07860   0.02935   0.80790   0.00000  Uiso   1.00
N44    N     0.93914   0.22810   0.12775   0.00000  Uiso   1.00
N45    N     0.44992   0.20728   0.41762   0.00000  Uiso   1.00
N46    N     0.18057   0.07787   0.79432   0.00000  Uiso   1.00
C47    C     0.52354   0.61870   0.43024   0.00000  Uiso   1.00
C48    C     0.57015   0.64697   0.52302   0.00000  Uiso   1.00
C49    C     0.55904   0.64213   0.60956   0.00000  Uiso   1.00
C50    C     0.60768   0.67130   0.68605   0.00000  Uiso   1.00
C51    C     0.67123   0.71022   0.83156   0.00000  Uiso   1.00
C52    C     0.43245   0.64133   0.32737   0.00000  Uiso   1.00
C53    C     0.30558   0.63175   0.24940   0.00000  Uiso   1.00
C54    C     0.23832   0.65617   0.16119   0.00000  Uiso   1.00
C55    C     0.08812   0.68632   0.00292   0.00000  Uiso   1.00
C56    C     0.64074   0.60919   0.42797   0.00000  Uiso   1.00
C57    C     0.68899   0.57257   0.43457   0.00000  Uiso   1.00
C58    C     0.79708   0.56993   0.43104   0.00000  Uiso   1.00
C59    C     0.97028   0.55017   0.42898   0.00000  Uiso   1.00
C60    C     0.62968   0.67910   0.41220   0.00000  Uiso   1.00
C61    C     0.62780   0.67978   0.51321   0.00000  Uiso   1.00
C62    C     0.67648   0.70896   0.58960   0.00000  Uiso   1.00
C63    C     0.66545   0.70417   0.67624   0.00000  Uiso   1.00
C64    C     0.49010   0.67414   0.31757   0.00000  Uiso   1.00
C65    C     0.42302   0.69858   0.22944   0.00000  Uiso   1.00
C66    C     0.29608   0.68904   0.15137   0.00000  Uiso   1.00
C67    C     0.69840   0.64199   0.41818   0.00000  Uiso   1.00
C68    C     0.80643   0.63941   0.41462   0.00000  Uiso   1.00
C69    C     0.85484   0.60280   0.42122   0.00000  Uiso   1.00
H70    H     0.47865   0.59315   0.43786   0.00000  Uiso   1.00
H71    H     0.51441   0.61674   0.61710   0.00000  Uiso   1.00
H72    H     0.26100   0.60636   0.25700   0.00000  Uiso   1.00
H73    H     0.64435   0.54719   0.44215   0.00000  Uiso   1.00
H74    H     0.57944   0.65736   0.81148   0.00000  Uiso   1.00
H75    H     0.04512   0.63546   0.05218   0.00000  Uiso   1.00
H76    H     0.85349   0.51070   0.44259   0.00000  Uiso   1.00
H77    H     0.67457   0.70465   0.40457   0.00000  Uiso   1.00
H78    H     0.72108   0.73435   0.58199   0.00000  Uiso   1.00
H79    H     0.46767   0.72397   0.22189   0.00000  Uiso   1.00
H80    H     0.85102   0.66480   0.40703   0.00000  Uiso   1.00
H81    H     0.74717   0.75282   0.78298   0.00000  Uiso   1.00
H82    H     0.21286   0.73092   0.02367   0.00000  Uiso   1.00
H83    H     0.02123   0.60616   0.41409   0.00000  Uiso   1.00
O84    O     0.69033   0.72262   0.91453   0.00000  Uiso   1.00
O85    O     0.98934   0.69389   0.91834   0.00000  Uiso   1.00
O86    O     0.04990   0.53020   0.43056   0.00000  Uiso   1.00
N87    N     0.61255   0.67575   0.78044   0.00000  Uiso   1.00
N88    N     0.11299   0.65528   0.07054   0.00000  Uiso   1.00
N89    N     0.86873   0.53863   0.43552   0.00000  Uiso   1.00
N90    N     0.70281   0.72711   0.76510   0.00000  Uiso   1.00
N91    N     0.20325   0.70664   0.05520   0.00000  Uiso   1.00
N92    N     0.95899   0.59000   0.42018   0.00000  Uiso   1.00
C93    C     0.25434   0.61829   0.70526   0.00000  Uiso   1.00
C94    C     0.20418   0.64703   0.61305   0.00000  Uiso   1.00
C95    C     0.21883   0.64418   0.52796   0.00000  Uiso   1.00
C96    C     0.16597   0.67345   0.45176   0.00000  Uiso   1.00
C97    C     0.09806   0.71337   0.30729   0.00000  Uiso   1.00
C98    C     0.33903   0.64130   0.80876   0.00000  Uiso   1.00
C99    C     0.46704   0.63362   0.88823   0.00000  Uiso   1.00
C100   C     0.52768   0.65806   0.97679   0.00000  Uiso   1.00
C101   C     0.66908   0.68908   0.13620   0.00000  Uiso   1.00
C102   C     0.13765   0.60564   0.70493   0.00000  Uiso   1.00
C103   C     0.09636   0.56797   0.69712   0.00000  Uiso   1.00
C104   C     0.98748   0.56238   0.69828   0.00000  Uiso   1.00
C105   C     0.81621   0.53802   0.69647   0.00000  Uiso   1.00
C106   C     0.13443   0.67535   0.72124   0.00000  Uiso   1.00
C107   C     0.13906   0.67803   0.62174   0.00000  Uiso   1.00
C108   C     0.08616   0.70731   0.54564   0.00000  Uiso   1.00
C109   C     0.10072   0.70449   0.46045   0.00000  Uiso   1.00
C110   C     0.27390   0.67229   0.81745   0.00000  Uiso   1.00
C111   C     0.33437   0.69675   0.90591   0.00000  Uiso   1.00
C112   C     0.46244   0.68911   0.98549   0.00000  Uiso   1.00
C113   C     0.07252   0.63663   0.71361   0.00000  Uiso   1.00
C114   C     0.96369   0.63110   0.71479   0.00000  Uiso   1.00
C115   C     0.92223   0.59343   0.70698   0.00000  Uiso   1.00
H116   H     0.30505   0.59416   0.69851   0.00000  Uiso   1.00
H117   H     0.26925   0.62019   0.52128   0.00000  Uiso   1.00
H118   H     0.51741   0.60963   0.88149   0.00000  Uiso   1.00
H119   H     0.14678   0.54399   0.69040   0.00000  Uiso   1.00
H120   H     0.20087   0.66272   0.32863   0.00000  Uiso   1.00
H121   H     0.72412   0.64046   0.08818   0.00000  Uiso   1.00
H122   H     0.94259   0.50203   0.68524   0.00000  Uiso   1.00
H123   H     0.08373   0.69948   0.72800   0.00000  Uiso   1.00
H124   H     0.03577   0.73129   0.55238   0.00000  Uiso   1.00
H125   H     0.28394   0.72073   0.91260   0.00000  Uiso   1.00
H126   H     0.91331   0.65509   0.72151   0.00000  Uiso   1.00
H127   H     0.01137   0.75290   0.35388   0.00000  Uiso   1.00
H128   H     0.53462   0.73063   0.11344   0.00000  Uiso   1.00
H129   H     0.75309   0.59221   0.71048   0.00000  Uiso   1.00
O130   O     0.07860   0.72684   0.22521   0.00000  Uiso   1.00
O131   O     0.76508   0.69762   0.22173   0.00000  Uiso   1.00
O132   O     0.73973   0.51602   0.69306   0.00000  Uiso   1.00
N133   N     0.16283   0.67957   0.35866   0.00000  Uiso   1.00
N134   N     0.65204   0.65876   0.06879   0.00000  Uiso   1.00
N135   N     0.92140   0.52935   0.69210   0.00000  Uiso   1.00
N136   N     0.06086   0.72810   0.37225   0.00000  Uiso   1.00
N137   N     0.55008   0.70728   0.08238   0.00000  Uiso   1.00
N138   N     0.81943   0.57787   0.70568   0.00000  Uiso   1.00
C139   C     0.47646   0.11870   0.06976   0.00000  Uiso   1.00
C140   C     0.42985   0.14697   0.97698   0.00000  Uiso   1.00
C141   C     0.44096   0.14213   0.89044   0.00000  Uiso   1.00
C142   C     0.39232   0.17130   0.81395   0.00000  Uiso   1.00
C143   C     0.32877   0.21022   0.66844   0.00000  Uiso   1.00
C144   C     0.56755   0.14133   0.17263   0.00000  Uiso   1.00
C145   C     0.69442   0.13175   0.25060   0.00000  Uiso   1.00
C146   C     0.76168   0.15617   0.33881   0.00000  Uiso   1.00
C147   C     0.91188   0.18632   0.49708   0.00000  Uiso   1.00
C148   C     0.35926   0.10919   0.07203   0.00000  Uiso   1.00
C149   C     0.31101   0.07257   0.06543   0.00000  Uiso   1.00
C150   C     0.20292   0.06993   0.06896   0.00000  Uiso   1.00
C151   C     0.02972   0.05017   0.07102   0.00000  Uiso   1.00
C152   C     0.37032   0.17910   0.08780   0.00000  Uiso   1.00
C153   C     0.37220   0.17978   0.98679   0.00000  Uiso   1.00
C154   C     0.32352   0.20896   0.91040   0.00000  Uiso   1.00
C155   C     0.33455   0.20417   0.82376   0.00000  Uiso   1.00
C156   C     0.50990   0.17414   0.18243   0.00000  Uiso   1.00
C157   C     0.57698   0.19858   0.27056   0.00000  Uiso   1.00
C158   C     0.70392   0.18904   0.34863   0.00000  Uiso   1.00
C159   C     0.30160   0.14199   0.08182   0.00000  Uiso   1.00
C160   C     0.19357   0.13941   0.08538   0.00000  Uiso   1.00
C161   C     0.14516   0.10280   0.07878   0.00000  Uiso   1.00
H162   H     0.52135   0.09315   0.06214   0.00000  Uiso   1.00
H163   H     0.48559   0.11674   0.88290   0.00000  Uiso   1.00
H164   H     0.73900   0.10636   0.24300   0.00000  Uiso   1.00
H165   H     0.35565   0.04719   0.05785   0.00000  Uiso   1.00
H166   H     0.42056   0.15736   0.68852   0.00000  Uiso   1.00
H167   H     0.95488   0.13546   0.44782   0.00000  Uiso   1.00
H168   H     0.14651   0.01070   0.05741   0.00000  Uiso   1.00
H169   H     0.32543   0.20465   0.09543   0.00000  Uiso   1.00
H170   H     0.27892   0.23435   0.91801   0.00000  Uiso   1.00
H171   H     0.53233   0.22397   0.27811   0.00000  Uiso   1.00
H172   H     0.14898   0.16480   0.09297   0.00000  Uiso   1.00
H173   H     0.25283   0.25282   0.71702   0.00000  Uiso   1.00
H174   H     0.78714   0.23092   0.47633   0.00000  Uiso   1.00
H175   H     0.97877   0.10616   0.08591   0.00000  Uiso   1.00
O176   O     0.30967   0.22262   0.58547   0.00000  Uiso   1.00
O177   O     0.01066   0.19389   0.58166   0.00000  Uiso   1.00
O178   O     0.95010   0.03020   0.06944   0.00000  Uiso   1.00
N179   N     0.38745   0.17575   0.71956   0.00000  Uiso   1.00
N180   N     0.88701   0.15528   0.42946   0.00000  Uiso   1.00
N181   N     0.13127   0.03863   0.06448   0.00000  Uiso   1.00
N182   N     0.29719   0.22711   0.73490   0.00000  Uiso   1.00
N183   N     0.79675   0.20664   0.44480   0.00000  Uiso   1.00
N184   N     0.04101   0.09000   0.07982   0.00000  Uiso   1.00
C185   C     0.25434   0.88171   0.20526   0.00000  Uiso   1.00
C186   C     0.20418   0.85297   0.11305   0.00000  Uiso   1.00
C187   C     0.21883   0.85582   0.02796   0.00000  Uiso   1.00
C188   C     0.16597   0.82655   0.95176   0.00000  Uiso   1.00
C189   C     0.09806   0.78663   0.80729   0.00000  Uiso   1.00
C190   C     0.33903   0.85870   0.30876   0.00000  Uiso   1.00
C191   C     0.46704   0.86638   0.38823   0.00000  Uiso   1.00
C192   C     0.52768   0.84194   0.47679   0.00000  Uiso   1.00
C193   C     0.66908   0.81092   0.63620   0.00000  Uiso   1.00
C194   C     0.13765   0.89436   0.20493   0.00000  Uiso   1.00
C195   C     0.09636   0.93203   0.19712   0.00000  Uiso   1.00
C196   C     0.98748   0.93762   0.19828   0.00000  Uiso   1.00
C197   C     0.81621   0.96198   0.19647   0.00000  Uiso   1.00
C198   C     0.13443   0.82465   0.22124   0.00000  Uiso   1.00
C199   C     0.13906   0.82197   0.12174   0.00000  Uiso   1.00
C200   C     0.08616   0.79269   0.04564   0.00000  Uiso   1.00
C201   C     0.10072   0.79551   0.96045   0.00000  Uiso   1.00
C202   C     0.27390   0.82771   0.31745   0.00000  Uiso   1.00
C203   C     0.33437   0.80325   0.40591   0.00000  Uiso   1.00
C204   C     0.46244   0.81089   0.48549   0.00000  Uiso   1.00
C205   C     0.07252   0.86337   0.21361   0.00000  Uiso   1.00
C206   C     0.96369   0.86890   0.21479   0.00000  Uiso   1.00
C207   C     0.92223   0.90657   0.20698   0.00000  Uiso   1.00
H208   H     0.30505   0.90584   0.19851   0.00000  Uiso   1.00
H209   H     0.26925   0.87981   0.02128   0.00000  Uiso   1.00
H210   H     0.51741   0.89037   0.38149   0.00000  Uiso   1.00
H211   H     0.14678   0.95601   0.19040   0.00000  Uiso   1.00
H212   H     0.20087   0.83728   0.82863   0.00000  Uiso   1.00
H213   H     0.72412   0.85954   0.58818   0.00000  Uiso   1.00
H214   H     0.94259   0.99797   0.18524   0.00000  Uiso   1.00
H215   H     0.08373   0.80052   0.22800   0.00000  Uiso   1.00
H216   H     0.03577   0.76871   0.05238   0.00000  Uiso   1.00
H217   H     0.28394   0.77927   0.41260   0.00000  Uiso   1.00
H218   H     0.91331   0.84491   0.22151   0.00000  Uiso   1.00
H219   H     0.01137   0.74710   0.85388   0.00000  Uiso   1.00
H220   H     0.53462   0.76937   0.61344   0.00000  Uiso   1.00
H221   H     0.75309   0.90779   0.21048   0.00000  Uiso   1.00
O222   O     0.07860   0.77316   0.72521   0.00000  Uiso   1.00
O223   O     0.76508   0.80238   0.72173   0.00000  Uiso   1.00
O224   O     0.73973   0.98398   0.19306   0.00000  Uiso   1.00
N225   N     0.16283   0.82043   0.85866   0.00000  Uiso   1.00
N226   N     0.65204   0.84124   0.56879   0.00000  Uiso   1.00
N227   N     0.92140   0.97065   0.19210   0.00000  Uiso   1.00
N228   N     0.06086   0.77190   0.87225   0.00000  Uiso   1.00
N229   N     0.55008   0.79272   0.58238   0.00000  Uiso   1.00
N230   N     0.81943   0.92213   0.20568   0.00000  Uiso   1.00
C231   C     0.47646   0.38130   0.56976   0.00000  Uiso   1.00
C232   C     0.42985   0.35303   0.47698   0.00000  Uiso   1.00
C233   C     0.44096   0.35787   0.39044   0.00000  Uiso   1.00
C234   C     0.39232   0.32870   0.31395   0.00000  Uiso   1.00
C235   C     0.32877   0.28978   0.16844   0.00000  Uiso   1.00
C236   C     0.56755   0.35867   0.67263   0.00000  Uiso   1.00
C237   C     0.69442   0.36825   0.75060   0.00000  Uiso   1.00
C238   C     0.76168   0.34383   0.83881   0.00000  Uiso   1.00
C239   C     0.91188   0.31368   0.99708   0.00000  Uiso   1.00
C240   C     0.35926   0.39081   0.57203   0.00000  Uiso   1.00
C241   C     0.31101   0.42743   0.56543   0.00000  Uiso   1.00
C242   C     0.20292   0.43007   0.56896   0.00000  Uiso   1.00
C243   C     0.02972   0.44983   0.57102   0.00000  Uiso   1.00
C244   C     0.37032   0.32090   0.58780   0.00000  Uiso   1.00
C245   C     0.37220   0.32022   0.48679   0.00000  Uiso   1.00
C246   C     0.32352   0.29104   0.41040   0.00000  Uiso   1.00
C247   C     0.33455   0.29583   0.32376   0.00000  Uiso   1.00
C248   C     0.50990   0.32586   0.68243   0.00000  Uiso   1.00
C249   C     0.57698   0.30142   0.77056   0.00000  Uiso   1.00
C250   C     0.70392   0.31096   0.84863   0.00000  Uiso   1.00
C251   C     0.30160   0.35801   0.58182   0.00000  Uiso   1.00
C252   C     0.19357   0.36059   0.58538   0.00000  Uiso   1.00
C253   C     0.14516   0.39720   0.57878   0.00000  Uiso   1.00
H254   H     0.52135   0.40685   0.56214   0.00000  Uiso   1.00
H255   H     0.48559   0.38326   0.38290   0.00000  Uiso   1.00
H256   H     0.73900   0.39364   0.74300   0.00000  Uiso   1.00
H257   H     0.35565   0.45281   0.55785   0.00000  Uiso   1.00
H258   H     0.42056   0.34264   0.18852   0.00000  Uiso   1.00
H259   H     0.95488   0.36454   0.94782   0.00000  Uiso   1.00
H260   H     0.14651   0.48930   0.55741   0.00000  Uiso   1.00
H261   H     0.32543   0.29535   0.59543   0.00000  Uiso   1.00
H262   H     0.27892   0.26565   0.41801   0.00000  Uiso   1.00
H263   H     0.53233   0.27603   0.77811   0.00000  Uiso   1.00
H264   H     0.14898   0.33520   0.59297   0.00000  Uiso   1.00
H265   H     0.25283   0.24718   0.21702   0.00000  Uiso   1.00
H266   H     0.78714   0.26908   0.97633   0.00000  Uiso   1.00
H267   H     0.97877   0.39384   0.58591   0.00000  Uiso   1.00
O268   O     0.30967   0.27738   0.08547   0.00000  Uiso   1.00
O269   O     0.01066   0.30611   0.08166   0.00000  Uiso   1.00
O270   O     0.95010   0.46980   0.56944   0.00000  Uiso   1.00
N271   N     0.38745   0.32425   0.21956   0.00000  Uiso   1.00
N272   N     0.88701   0.34472   0.92946   0.00000  Uiso   1.00
N273   N     0.13127   0.46137   0.56448   0.00000  Uiso   1.00
N274   N     0.29719   0.27289   0.23490   0.00000  Uiso   1.00
N275   N     0.79675   0.29336   0.94480   0.00000  Uiso   1.00
N276   N     0.04101   0.41000   0.57982   0.00000  Uiso   1.00
C277   C     0.74566   0.38171   0.29474   0.00000  Uiso   1.00
C278   C     0.79582   0.35297   0.38695   0.00000  Uiso   1.00
C279   C     0.78117   0.35582   0.47204   0.00000  Uiso   1.00
C280   C     0.83403   0.32655   0.54824   0.00000  Uiso   1.00
C281   C     0.90194   0.28663   0.69271   0.00000  Uiso   1.00
C282   C     0.66097   0.35870   0.19124   0.00000  Uiso   1.00
C283   C     0.53296   0.36638   0.11177   0.00000  Uiso   1.00
C284   C     0.47232   0.34194   0.02321   0.00000  Uiso   1.00
C285   C     0.33092   0.31092   0.86380   0.00000  Uiso   1.00
C286   C     0.86235   0.39436   0.29507   0.00000  Uiso   1.00
C287   C     0.90364   0.43203   0.30288   0.00000  Uiso   1.00
C288   C     0.01252   0.43762   0.30172   0.00000  Uiso   1.00
C289   C     0.18379   0.46198   0.30353   0.00000  Uiso   1.00
C290   C     0.86557   0.32465   0.27876   0.00000  Uiso   1.00
C291   C     0.86094   0.32197   0.37826   0.00000  Uiso   1.00
C292   C     0.91384   0.29269   0.45436   0.00000  Uiso   1.00
C293   C     0.89928   0.29551   0.53955   0.00000  Uiso   1.00
C294   C     0.72610   0.32771   0.18255   0.00000  Uiso   1.00
C295   C     0.66563   0.30325   0.09409   0.00000  Uiso   1.00
C296   C     0.53756   0.31089   0.01451   0.00000  Uiso   1.00
C297   C     0.92748   0.36337   0.28639   0.00000  Uiso   1.00
C298   C     0.03631   0.36890   0.28521   0.00000  Uiso   1.00
C299   C     0.07777   0.40657   0.29302   0.00000  Uiso   1.00
H300   H     0.69495   0.40584   0.30149   0.00000  Uiso   1.00
H301   H     0.73075   0.37981   0.47872   0.00000  Uiso   1.00
H302   H     0.48259   0.39037   0.11851   0.00000  Uiso   1.00
H303   H     0.85322   0.45601   0.30960   0.00000  Uiso   1.00
H304   H     0.79913   0.33728   0.67137   0.00000  Uiso   1.00
H305   H     0.27588   0.35954   0.91182   0.00000  Uiso   1.00
H306   H     0.05741   0.49797   0.31476   0.00000  Uiso   1.00
H307   H     0.91627   0.30052   0.27200   0.00000  Uiso   1.00
H308   H     0.96423   0.26871   0.44762   0.00000  Uiso   1.00
H309   H     0.71606   0.27927   0.08740   0.00000  Uiso   1.00
H310   H     0.08669   0.34491   0.27849   0.00000  Uiso   1.00
H311   H     0.98863   0.24710   0.64612   0.00000  Uiso   1.00
H312   H     0.46538   0.26937   0.88656   0.00000  Uiso   1.00
H313   H     0.24691   0.40779   0.28952   0.00000  Uiso   1.00
O314   O     0.92140   0.27316   0.77479   0.00000  Uiso   1.00
O315   O     0.23492   0.30238   0.77827   0.00000  Uiso   1.00
O316   O     0.26027   0.48398   0.30694   0.00000  Uiso   1.00
N317   N     0.83717   0.32043   0.64134   0.00000  Uiso   1.00
N318   N     0.34796   0.34124   0.93121   0.00000  Uiso   1.00
N319   N     0.07860   0.47065   0.30790   0.00000  Uiso   1.00
N320   N     0.93914   0.27190   0.62775   0.00000  Uiso   1.00
N321   N     0.44992   0.29272   0.91762   0.00000  Uiso   1.00
N322   N     0.18057   0.42213   0.29432   0.00000  Uiso   1.00
C323   C     0.52354   0.88130   0.93024   0.00000  Uiso   1.00
C324   C     0.57015   0.85303   0.02302   0.00000  Uiso   1.00
C325   C     0.55904   0.85787   0.10956   0.00000  Uiso   1.00
C326   C     0.60768   0.82870   0.18605   0.00000  Uiso   1.00
C327   C     0.67123   0.78978   0.33156   0.00000  Uiso   1.00
C328   C     0.43245   0.85867   0.82737   0.00000  Uiso   1.00
C329   C     0.30558   0.86825   0.74940   0.00000  Uiso   1.00
C330   C     0.23832   0.84383   0.66119   0.00000  Uiso   1.00
C331   C     0.08812   0.81368   0.50292   0.00000  Uiso   1.00
C332   C     0.64074   0.89081   0.92797   0.00000  Uiso   1.00
C333   C     0.68899   0.92743   0.93457   0.00000  Uiso   1.00
C334   C     0.79708   0.93007   0.93104   0.00000  Uiso   1.00
C335   C     0.97028   0.94983   0.92898   0.00000  Uiso   1.00
C336   C     0.62968   0.82090   0.91220   0.00000  Uiso   1.00
C337   C     0.62780   0.82022   0.01321   0.00000  Uiso   1.00
C338   C     0.67648   0.79104   0.08960   0.00000  Uiso   1.00
C339   C     0.66545   0.79583   0.17624   0.00000  Uiso   1.00
C340   C     0.49010   0.82586   0.81757   0.00000  Uiso   1.00
C341   C     0.42302   0.80142   0.72944   0.00000  Uiso   1.00
C342   C     0.29608   0.81096   0.65137   0.00000  Uiso   1.00
C343   C     0.69840   0.85801   0.91818   0.00000  Uiso   1.00
C344   C     0.80643   0.86059   0.91462   0.00000  Uiso   1.00
C345   C     0.85484   0.89720   0.92122   0.00000  Uiso   1.00
H346   H     0.47865   0.90685   0.93786   0.00000  Uiso   1.00
H347   H     0.51441   0.88326   0.11710   0.00000  Uiso   1.00
H348   H     0.26100   0.89364   0.75700   0.00000  Uiso   1.00
H349   H     0.64435   0.95281   0.94215   0.00000  Uiso   1.00
H350   H     0.57944   0.84264   0.31148   0.00000  Uiso   1.00
H351   H     0.04512   0.86454   0.55218   0.00000  Uiso   1.00
H352   H     0.85349   0.98930   0.94259   0.00000  Uiso   1.00
H353   H     0.67457   0.79535   0.90457   0.00000  Uiso   1.00
H354   H     0.72108   0.76565   0.08199   0.00000  Uiso   1.00
H355   H     0.46767   0.77603   0.72189   0.00000  Uiso   1.00
H356   H     0.85102   0.83520   0.90703   0.00000  Uiso   1.00
H357   H     0.74717   0.74718   0.28298   0.00000  Uiso   1.00
H358   H     0.21286   0.76908   0.52367   0.00000  Uiso   1.00
H359   H     0.02123   0.89384   0.91409   0.00000  Uiso   1.00
O360   O     0.69033   0.77738   0.41453   0.00000  Uiso   1.00
O361   O     0.98934   0.80611   0.41834   0.00000  Uiso   1.00
O362   O     0.04990   0.96980   0.93056   0.00000  Uiso   1.00
N363   N     0.61255   0.82425   0.28044   0.00000  Uiso   1.00
N364   N     0.11299   0.84472   0.57054   0.00000  Uiso   1.00
N365   N     0.86873   0.96137   0.93552   0.00000  Uiso   1.00
N366   N     0.70281   0.77289   0.26510   0.00000  Uiso   1.00
N367   N     0.20325   0.79336   0.55520   0.00000  Uiso   1.00
N368   N     0.95899   0.91000   0.92018   0.00000  Uiso   1.00
