data_job_05429
_audit_creation_date              2018-12-19
_audit_creation_method            'Materials Studio'
_symmetry_space_group_name_H-M    'P1'
_symmetry_Int_Tables_number       1
_symmetry_cell_setting            triclinic
loop_
_symmetry_equiv_pos_as_xyz
  x,y,z
_cell_length_a                    14.1150
_cell_length_b                    21.0434
_cell_length_c                    9.8809
_cell_angle_alpha                 90.0000
_cell_angle_beta                  119.4860
_cell_angle_gamma                 90.0000
loop_
_atom_site_label
_atom_site_type_symbol
_atom_site_fract_x
_atom_site_fract_y
_atom_site_fract_z
_atom_site_U_iso_or_equiv
_atom_site_adp_type
_atom_site_occupancy
C1     C     0.70048   0.16500   0.41979   0.00000  Uiso   1.00
C2     C     0.79966   0.13365   0.55394   0.00000  Uiso   1.00
C3     C     0.84404   0.14907   0.71005   0.00000  Uiso   1.00
C4     C     0.93487   0.11486   0.81487   0.00000  Uiso   1.00
C5     C     0.08211   0.07349   0.03072   0.00000  Uiso   1.00
C6     C     0.73803   0.18945   0.30862   0.00000  Uiso   1.00
C7     C     0.73057   0.25178   0.25845   0.00000  Uiso   1.00
C8     C     0.76951   0.26453   0.15673   0.00000  Uiso   1.00
C9     C     0.82098   0.30978   0.99163   0.00000  Uiso   1.00
C10    C     0.62020   0.11147   0.33413   0.00000  Uiso   1.00
C11    C     0.51366   0.10824   0.30538   0.00000  Uiso   1.00
C12    C     0.45338   0.05534   0.22511   0.00000  Uiso   1.00
C13    C     0.32191   0.97951   0.09963   0.00000  Uiso   1.00
C14    C     0.78286   0.07680   0.32833   0.00000  Uiso   1.00
C15    C     0.84441   0.08575   0.50426   0.00000  Uiso   1.00
C16    C     0.93519   0.05149   0.60887   0.00000  Uiso   1.00
C17    C     0.97970   0.06687   0.76511   0.00000  Uiso   1.00
C18    C     0.78277   0.14154   0.25894   0.00000  Uiso   1.00
C19    C     0.82172   0.15420   0.15727   0.00000  Uiso   1.00
C20    C     0.81433   0.21654   0.10697   0.00000  Uiso   1.00
C21    C     0.66494   0.06356   0.28446   0.00000  Uiso   1.00
C22    C     0.60481   0.01066   0.20421   0.00000  Uiso   1.00
C23    C     0.49821   0.00735   0.17535   0.00000  Uiso   1.00
H24    H     0.66564   0.20230   0.45845   0.00000  Uiso   1.00
H25    H     0.80940   0.18616   0.74844   0.00000  Uiso   1.00
H26    H     0.69593   0.28884   0.29690   0.00000  Uiso   1.00
H27    H     0.47907   0.14532   0.34384   0.00000  Uiso   1.00
H28    H     0.98854   0.14715   0.04804   0.00000  Uiso   1.00
H29    H     0.74926   0.36366   0.09589   0.00000  Uiso   1.00
H30    H     0.29194   0.06102   0.19486   0.00000  Uiso   1.00
H31    H     0.81769   0.03950   0.28966   0.00000  Uiso   1.00
H32    H     0.96980   0.01443   0.57039   0.00000  Uiso   1.00
H33    H     0.85633   0.11712   0.11885   0.00000  Uiso   1.00
H34    H     0.63946   0.97360   0.16578   0.00000  Uiso   1.00
H35    H     0.11873   0.00777   0.90353   0.00000  Uiso   1.00
H36    H     0.87944   0.22429   0.95137   0.00000  Uiso   1.00
H37    H     0.42213   0.92164   0.05035   0.00000  Uiso   1.00
O38    O     0.15097   0.06391   0.16350   0.00000  Uiso   1.00
O39    O     0.83702   0.34797   0.91429   0.00000  Uiso   1.00
O40    O     0.23704   0.95091   0.04415   0.00000  Uiso   1.00
N41    N     0.99829   0.11778   0.97551   0.00000  Uiso   1.00
N42    N     0.77459   0.32021   0.08532   0.00000  Uiso   1.00
N43    N     0.34703   0.03728   0.17781   0.00000  Uiso   1.00
N44    N     0.06834   0.04278   0.89774   0.00000  Uiso   1.00
N45    N     0.84465   0.24521   0.00756   0.00000  Uiso   1.00
N46    N     0.41708   0.96228   0.10005   0.00000  Uiso   1.00
C47    C     0.20048   0.66500   0.41979   0.00000  Uiso   1.00
C48    C     0.29966   0.63365   0.55394   0.00000  Uiso   1.00
C49    C     0.34404   0.64907   0.71005   0.00000  Uiso   1.00
C50    C     0.43487   0.61486   0.81487   0.00000  Uiso   1.00
C51    C     0.58211   0.57349   0.03072   0.00000  Uiso   1.00
C52    C     0.23803   0.68945   0.30862   0.00000  Uiso   1.00
C53    C     0.23057   0.75178   0.25845   0.00000  Uiso   1.00
C54    C     0.26951   0.76453   0.15673   0.00000  Uiso   1.00
C55    C     0.32098   0.80978   0.99163   0.00000  Uiso   1.00
C56    C     0.12020   0.61147   0.33413   0.00000  Uiso   1.00
C57    C     0.01366   0.60824   0.30538   0.00000  Uiso   1.00
C58    C     0.95338   0.55534   0.22511   0.00000  Uiso   1.00
C59    C     0.82191   0.47951   0.09963   0.00000  Uiso   1.00
C60    C     0.28286   0.57680   0.32833   0.00000  Uiso   1.00
C61    C     0.34441   0.58575   0.50426   0.00000  Uiso   1.00
C62    C     0.43519   0.55149   0.60887   0.00000  Uiso   1.00
C63    C     0.47970   0.56687   0.76511   0.00000  Uiso   1.00
C64    C     0.28277   0.64154   0.25894   0.00000  Uiso   1.00
C65    C     0.32172   0.65420   0.15727   0.00000  Uiso   1.00
C66    C     0.31433   0.71654   0.10697   0.00000  Uiso   1.00
C67    C     0.16494   0.56356   0.28446   0.00000  Uiso   1.00
C68    C     0.10481   0.51066   0.20421   0.00000  Uiso   1.00
C69    C     0.99821   0.50735   0.17535   0.00000  Uiso   1.00
H70    H     0.16564   0.70230   0.45845   0.00000  Uiso   1.00
H71    H     0.30940   0.68616   0.74844   0.00000  Uiso   1.00
H72    H     0.19593   0.78884   0.29690   0.00000  Uiso   1.00
H73    H     0.97907   0.64532   0.34384   0.00000  Uiso   1.00
H74    H     0.48854   0.64715   0.04804   0.00000  Uiso   1.00
H75    H     0.24926   0.86366   0.09589   0.00000  Uiso   1.00
H76    H     0.79194   0.56102   0.19486   0.00000  Uiso   1.00
H77    H     0.31769   0.53950   0.28966   0.00000  Uiso   1.00
H78    H     0.46980   0.51443   0.57039   0.00000  Uiso   1.00
H79    H     0.35633   0.61712   0.11885   0.00000  Uiso   1.00
H80    H     0.13946   0.47360   0.16578   0.00000  Uiso   1.00
H81    H     0.61873   0.50777   0.90353   0.00000  Uiso   1.00
H82    H     0.37944   0.72429   0.95137   0.00000  Uiso   1.00
H83    H     0.92213   0.42164   0.05035   0.00000  Uiso   1.00
O84    O     0.65097   0.56391   0.16350   0.00000  Uiso   1.00
O85    O     0.33702   0.84797   0.91429   0.00000  Uiso   1.00
O86    O     0.73704   0.45091   0.04415   0.00000  Uiso   1.00
N87    N     0.49829   0.61778   0.97551   0.00000  Uiso   1.00
N88    N     0.27459   0.82021   0.08532   0.00000  Uiso   1.00
N89    N     0.84703   0.53728   0.17781   0.00000  Uiso   1.00
N90    N     0.56834   0.54278   0.89774   0.00000  Uiso   1.00
N91    N     0.34465   0.74521   0.00756   0.00000  Uiso   1.00
N92    N     0.91708   0.46228   0.10005   0.00000  Uiso   1.00
C93    C     0.70048   0.83500   0.91979   0.00000  Uiso   1.00
C94    C     0.79966   0.86635   0.05394   0.00000  Uiso   1.00
C95    C     0.84404   0.85093   0.21005   0.00000  Uiso   1.00
C96    C     0.93487   0.88514   0.31487   0.00000  Uiso   1.00
C97    C     0.08211   0.92651   0.53072   0.00000  Uiso   1.00
C98    C     0.73803   0.81055   0.80862   0.00000  Uiso   1.00
C99    C     0.73057   0.74822   0.75845   0.00000  Uiso   1.00
C100   C     0.76951   0.73547   0.65673   0.00000  Uiso   1.00
C101   C     0.82098   0.69022   0.49163   0.00000  Uiso   1.00
C102   C     0.62020   0.88853   0.83413   0.00000  Uiso   1.00
C103   C     0.51366   0.89176   0.80538   0.00000  Uiso   1.00
C104   C     0.45338   0.94466   0.72511   0.00000  Uiso   1.00
C105   C     0.32191   0.02049   0.59963   0.00000  Uiso   1.00
C106   C     0.78286   0.92320   0.82833   0.00000  Uiso   1.00
C107   C     0.84441   0.91425   0.00426   0.00000  Uiso   1.00
C108   C     0.93519   0.94851   0.10887   0.00000  Uiso   1.00
C109   C     0.97970   0.93313   0.26511   0.00000  Uiso   1.00
C110   C     0.78277   0.85846   0.75894   0.00000  Uiso   1.00
C111   C     0.82172   0.84580   0.65727   0.00000  Uiso   1.00
C112   C     0.81433   0.78346   0.60697   0.00000  Uiso   1.00
C113   C     0.66494   0.93644   0.78446   0.00000  Uiso   1.00
C114   C     0.60481   0.98934   0.70421   0.00000  Uiso   1.00
C115   C     0.49821   0.99265   0.67535   0.00000  Uiso   1.00
H116   H     0.66564   0.79770   0.95845   0.00000  Uiso   1.00
H117   H     0.80940   0.81384   0.24844   0.00000  Uiso   1.00
H118   H     0.69593   0.71116   0.79690   0.00000  Uiso   1.00
H119   H     0.47907   0.85468   0.84384   0.00000  Uiso   1.00
H120   H     0.98854   0.85285   0.54804   0.00000  Uiso   1.00
H121   H     0.74926   0.63634   0.59589   0.00000  Uiso   1.00
H122   H     0.29194   0.93898   0.69486   0.00000  Uiso   1.00
H123   H     0.81769   0.96050   0.78966   0.00000  Uiso   1.00
H124   H     0.96980   0.98557   0.07039   0.00000  Uiso   1.00
H125   H     0.85633   0.88288   0.61885   0.00000  Uiso   1.00
H126   H     0.63946   0.02640   0.66578   0.00000  Uiso   1.00
H127   H     0.11873   0.99223   0.40353   0.00000  Uiso   1.00
H128   H     0.87944   0.77571   0.45137   0.00000  Uiso   1.00
H129   H     0.42213   0.07836   0.55035   0.00000  Uiso   1.00
O130   O     0.15097   0.93609   0.66350   0.00000  Uiso   1.00
O131   O     0.83702   0.65203   0.41429   0.00000  Uiso   1.00
O132   O     0.23704   0.04909   0.54415   0.00000  Uiso   1.00
N133   N     0.99829   0.88222   0.47551   0.00000  Uiso   1.00
N134   N     0.77459   0.67979   0.58532   0.00000  Uiso   1.00
N135   N     0.34703   0.96272   0.67781   0.00000  Uiso   1.00
N136   N     0.06834   0.95722   0.39774   0.00000  Uiso   1.00
N137   N     0.84465   0.75479   0.50756   0.00000  Uiso   1.00
N138   N     0.41708   0.03772   0.60005   0.00000  Uiso   1.00
C139   C     0.20048   0.33500   0.91979   0.00000  Uiso   1.00
C140   C     0.29966   0.36635   0.05394   0.00000  Uiso   1.00
C141   C     0.34404   0.35093   0.21005   0.00000  Uiso   1.00
C142   C     0.43487   0.38514   0.31487   0.00000  Uiso   1.00
C143   C     0.58211   0.42651   0.53072   0.00000  Uiso   1.00
C144   C     0.23803   0.31055   0.80862   0.00000  Uiso   1.00
C145   C     0.23057   0.24822   0.75845   0.00000  Uiso   1.00
C146   C     0.26951   0.23547   0.65673   0.00000  Uiso   1.00
C147   C     0.32098   0.19022   0.49163   0.00000  Uiso   1.00
C148   C     0.12020   0.38853   0.83413   0.00000  Uiso   1.00
C149   C     0.01366   0.39176   0.80538   0.00000  Uiso   1.00
C150   C     0.95338   0.44466   0.72511   0.00000  Uiso   1.00
C151   C     0.82191   0.52049   0.59963   0.00000  Uiso   1.00
C152   C     0.28286   0.42320   0.82833   0.00000  Uiso   1.00
C153   C     0.34441   0.41425   0.00426   0.00000  Uiso   1.00
C154   C     0.43519   0.44851   0.10887   0.00000  Uiso   1.00
C155   C     0.47970   0.43313   0.26511   0.00000  Uiso   1.00
C156   C     0.28277   0.35846   0.75894   0.00000  Uiso   1.00
C157   C     0.32172   0.34580   0.65727   0.00000  Uiso   1.00
C158   C     0.31433   0.28346   0.60697   0.00000  Uiso   1.00
C159   C     0.16494   0.43644   0.78446   0.00000  Uiso   1.00
C160   C     0.10481   0.48934   0.70421   0.00000  Uiso   1.00
C161   C     0.99821   0.49265   0.67535   0.00000  Uiso   1.00
H162   H     0.16564   0.29770   0.95845   0.00000  Uiso   1.00
H163   H     0.30940   0.31384   0.24844   0.00000  Uiso   1.00
H164   H     0.19593   0.21116   0.79690   0.00000  Uiso   1.00
H165   H     0.97907   0.35468   0.84384   0.00000  Uiso   1.00
H166   H     0.48854   0.35285   0.54804   0.00000  Uiso   1.00
H167   H     0.24926   0.13634   0.59589   0.00000  Uiso   1.00
H168   H     0.79194   0.43898   0.69486   0.00000  Uiso   1.00
H169   H     0.31769   0.46050   0.78966   0.00000  Uiso   1.00
H170   H     0.46980   0.48557   0.07039   0.00000  Uiso   1.00
H171   H     0.35633   0.38288   0.61885   0.00000  Uiso   1.00
H172   H     0.13946   0.52640   0.66578   0.00000  Uiso   1.00
H173   H     0.61873   0.49223   0.40353   0.00000  Uiso   1.00
H174   H     0.37944   0.27571   0.45137   0.00000  Uiso   1.00
H175   H     0.92213   0.57836   0.55035   0.00000  Uiso   1.00
O176   O     0.65097   0.43609   0.66350   0.00000  Uiso   1.00
O177   O     0.33702   0.15203   0.41429   0.00000  Uiso   1.00
O178   O     0.73704   0.54909   0.54415   0.00000  Uiso   1.00
N179   N     0.49829   0.38222   0.47551   0.00000  Uiso   1.00
N180   N     0.27459   0.17979   0.58532   0.00000  Uiso   1.00
N181   N     0.84703   0.46272   0.67781   0.00000  Uiso   1.00
N182   N     0.56834   0.45722   0.39774   0.00000  Uiso   1.00
N183   N     0.34465   0.25479   0.50756   0.00000  Uiso   1.00
N184   N     0.91708   0.53772   0.60005   0.00000  Uiso   1.00
