data_job_06323
_audit_creation_date              2018-12-19
_audit_creation_method            'Materials Studio'
_symmetry_space_group_name_H-M    'P1'
_symmetry_Int_Tables_number       1
_symmetry_cell_setting            triclinic
loop_
_symmetry_equiv_pos_as_xyz
  x,y,z
_cell_length_a                    15.2653
_cell_length_b                    16.9331
_cell_length_c                    17.2687
_cell_angle_alpha                 111.8060
_cell_angle_beta                  72.0989
_cell_angle_gamma                 74.6599
loop_
_atom_site_label
_atom_site_type_symbol
_atom_site_fract_x
_atom_site_fract_y
_atom_site_fract_z
_atom_site_U_iso_or_equiv
_atom_site_adp_type
_atom_site_occupancy
C1     C     0.84360   0.93127   0.73797   0.00000  Uiso   1.00
C2     C     0.84347   0.83433   0.70381   0.00000  Uiso   1.00
C3     C     0.78774   0.80559   0.75873   0.00000  Uiso   1.00
C4     C     0.79808   0.71408   0.71430   0.00000  Uiso   1.00
C5     C     0.78821   0.57275   0.67585   0.00000  Uiso   1.00
C6     C     0.95456   0.91414   0.71111   0.00000  Uiso   1.00
C7     C     0.99223   0.95252   0.77217   0.00000  Uiso   1.00
C8     C     0.09607   0.92820   0.73387   0.00000  Uiso   1.00
C9     C     0.25866   0.91083   0.70675   0.00000  Uiso   1.00
C10    C     0.81326   0.96898   0.67799   0.00000  Uiso   1.00
C11    C     0.73215   0.05349   0.71119   0.00000  Uiso   1.00
C12    C     0.71705   0.07535   0.64501   0.00000  Uiso   1.00
C13    C     0.66025   0.14314   0.56646   0.00000  Uiso   1.00
C14    C     0.96104   0.81986   0.56139   0.00000  Uiso   1.00
C15    C     0.90727   0.77382   0.60790   0.00000  Uiso   1.00
C16    C     0.91768   0.68233   0.56336   0.00000  Uiso   1.00
C17    C     0.86198   0.65346   0.61821   0.00000  Uiso   1.00
C18    C     0.01835   0.85363   0.61520   0.00000  Uiso   1.00
C19    C     0.12216   0.82926   0.57680   0.00000  Uiso   1.00
C20    C     0.15998   0.86758   0.63778   0.00000  Uiso   1.00
C21    C     0.87705   0.90847   0.58207   0.00000  Uiso   1.00
C22    C     0.86208   0.93022   0.51582   0.00000  Uiso   1.00
C23    C     0.78096   0.01473   0.54892   0.00000  Uiso   1.00
H24    H     0.79394   0.97838   0.81264   0.00000  Uiso   1.00
H25    H     0.73839   0.85244   0.83296   0.00000  Uiso   1.00
H26    H     0.94284   0.99935   0.84639   0.00000  Uiso   1.00
H27    H     0.68280   0.10029   0.78542   0.00000  Uiso   1.00
H28    H     0.70497   0.68611   0.81319   0.00000  Uiso   1.00
H29    H     0.13605   0.99591   0.84150   0.00000  Uiso   1.00
H30    H     0.58770   0.20878   0.71294   0.00000  Uiso   1.00
H31    H     0.01071   0.77275   0.48671   0.00000  Uiso   1.00
H32    H     0.96705   0.63552   0.48914   0.00000  Uiso   1.00
H33    H     0.17150   0.78243   0.50257   0.00000  Uiso   1.00
H34    H     0.91146   0.88338   0.44161   0.00000  Uiso   1.00
H35    H     0.89056   0.51005   0.53413   0.00000  Uiso   1.00
H36    H     0.32164   0.81985   0.56245   0.00000  Uiso   1.00
H37    H     0.77330   0.03271   0.43389   0.00000  Uiso   1.00
O38    O     0.76516   0.51151   0.68114   0.00000  Uiso   1.00
O39    O     0.33072   0.91797   0.71829   0.00000  Uiso   1.00
O40    O     0.61130   0.19724   0.54963   0.00000  Uiso   1.00
N41    N     0.75462   0.66352   0.74717   0.00000  Uiso   1.00
N42    N     0.15766   0.95314   0.77365   0.00000  Uiso   1.00
N43    N     0.64502   0.15217   0.65346   0.00000  Uiso   1.00
N44    N     0.85449   0.56878   0.59702   0.00000  Uiso   1.00
N45    N     0.25753   0.85841   0.62349   0.00000  Uiso   1.00
N46    N     0.74489   0.05743   0.50330   0.00000  Uiso   1.00
C47    C     0.58025   0.25833   0.19466   0.00000  Uiso   1.00
C48    C     0.54806   0.29234   0.13319   0.00000  Uiso   1.00
C49    C     0.54750   0.23643   0.05095   0.00000  Uiso   1.00
C50    C     0.51545   0.28091   0.00491   0.00000  Uiso   1.00
C51    C     0.47014   0.31897   0.90411   0.00000  Uiso   1.00
C52    C     0.66455   0.28778   0.20299   0.00000  Uiso   1.00
C53    C     0.76193   0.22803   0.17945   0.00000  Uiso   1.00
C54    C     0.82793   0.26868   0.19219   0.00000  Uiso   1.00
C55    C     0.96345   0.29967   0.19981   0.00000  Uiso   1.00
C56    C     0.48981   0.31713   0.29199   0.00000  Uiso   1.00
C57    C     0.44029   0.28205   0.34331   0.00000  Uiso   1.00
C58    C     0.35919   0.34741   0.43099   0.00000  Uiso   1.00
C59    C     0.22341   0.42396   0.57681   0.00000  Uiso   1.00
C60    C     0.52430   0.43675   0.25914   0.00000  Uiso   1.00
C61    C     0.51767   0.38926   0.16821   0.00000  Uiso   1.00
C62    C     0.48560   0.43383   0.12229   0.00000  Uiso   1.00
C63    C     0.48500   0.37799   0.04000   0.00000  Uiso   1.00
C64    C     0.63416   0.38469   0.23801   0.00000  Uiso   1.00
C65    C     0.70003   0.42543   0.25079   0.00000  Uiso   1.00
C66    C     0.79749   0.36576   0.22727   0.00000  Uiso   1.00
C67    C     0.45942   0.41404   0.32702   0.00000  Uiso   1.00
C68    C     0.37839   0.47945   0.41464   0.00000  Uiso   1.00
C69    C     0.32875   0.44449   0.46608   0.00000  Uiso   1.00
H70    H     0.60392   0.18288   0.16739   0.00000  Uiso   1.00
H71    H     0.57104   0.16143   0.02386   0.00000  Uiso   1.00
H72    H     0.78543   0.15304   0.15236   0.00000  Uiso   1.00
H73    H     0.46383   0.20706   0.31618   0.00000  Uiso   1.00
H74    H     0.52122   0.18039   0.88016   0.00000  Uiso   1.00
H75    H     0.97326   0.16270   0.15112   0.00000  Uiso   1.00
H76    H     0.29512   0.27660   0.49658   0.00000  Uiso   1.00
H77    H     0.50064   0.51220   0.28641   0.00000  Uiso   1.00
H78    H     0.46209   0.50882   0.14941   0.00000  Uiso   1.00
H79    H     0.67648   0.50043   0.27790   0.00000  Uiso   1.00
H80    H     0.35489   0.55444   0.44172   0.00000  Uiso   1.00
H81    H     0.43280   0.46234   0.98206   0.00000  Uiso   1.00
H82    H     0.88484   0.44465   0.25302   0.00000  Uiso   1.00
H83    H     0.20670   0.55855   0.59848   0.00000  Uiso   1.00
O84    O     0.45355   0.31320   0.83882   0.00000  Uiso   1.00
O85    O     0.04660   0.28999   0.19433   0.00000  Uiso   1.00
O86    O     0.15689   0.43942   0.64756   0.00000  Uiso   1.00
N87    N     0.50568   0.24721   0.92295   0.00000  Uiso   1.00
N88    N     0.92832   0.23067   0.17627   0.00000  Uiso   1.00
N89    N     0.29433   0.33715   0.49926   0.00000  Uiso   1.00
N90    N     0.45810   0.39893   0.97778   0.00000  Uiso   1.00
N91    N     0.88074   0.38239   0.23110   0.00000  Uiso   1.00
N92    N     0.24675   0.48887   0.55409   0.00000  Uiso   1.00
C93    C     0.77693   0.80600   0.06671   0.00000  Uiso   1.00
C94    C     0.68323   0.86624   0.16190   0.00000  Uiso   1.00
C95    C     0.60218   0.94796   0.18873   0.00000  Uiso   1.00
C96    C     0.52373   0.99285   0.27885   0.00000  Uiso   1.00
C97    C     0.37788   0.09183   0.41740   0.00000  Uiso   1.00
C98    C     0.86868   0.79980   0.08625   0.00000  Uiso   1.00
C99    C     0.94354   0.82565   0.04946   0.00000  Uiso   1.00
C100   C     0.02121   0.81460   0.07589   0.00000  Uiso   1.00
C101   C     0.16329   0.81036   0.09693   0.00000  Uiso   1.00
C102   C     0.78219   0.70702   0.02895   0.00000  Uiso   1.00
C103   C     0.78437   0.65485   0.94398   0.00000  Uiso   1.00
C104   C     0.78925   0.56568   0.92216   0.00000  Uiso   1.00
C105   C     0.79706   0.41740   0.85425   0.00000  Uiso   1.00
C106   C     0.78176   0.74040   0.17904   0.00000  Uiso   1.00
C107   C     0.68586   0.83060   0.22291   0.00000  Uiso   1.00
C108   C     0.60752   0.87538   0.31302   0.00000  Uiso   1.00
C109   C     0.52636   0.95716   0.33998   0.00000  Uiso   1.00
C110   C     0.87130   0.76417   0.14726   0.00000  Uiso   1.00
C111   C     0.94888   0.75307   0.17374   0.00000  Uiso   1.00
C112   C     0.02383   0.77891   0.13701   0.00000  Uiso   1.00
C113   C     0.78481   0.67139   0.08997   0.00000  Uiso   1.00
C114   C     0.78971   0.58228   0.06827   0.00000  Uiso   1.00
C115   C     0.79188   0.52999   0.98329   0.00000  Uiso   1.00
H116   H     0.77490   0.83374   0.01920   0.00000  Uiso   1.00
H117   H     0.60018   0.97551   0.14149   0.00000  Uiso   1.00
H118   H     0.94149   0.85321   0.00224   0.00000  Uiso   1.00
H119   H     0.78234   0.68245   0.89678   0.00000  Uiso   1.00
H120   H     0.40765   0.11700   0.30400   0.00000  Uiso   1.00
H121   H     0.12735   0.85909   0.01034   0.00000  Uiso   1.00
H122   H     0.79175   0.49900   0.78797   0.00000  Uiso   1.00
H123   H     0.78380   0.71266   0.22654   0.00000  Uiso   1.00
H124   H     0.60957   0.84780   0.36022   0.00000  Uiso   1.00
H125   H     0.95088   0.72549   0.22096   0.00000  Uiso   1.00
H126   H     0.79173   0.55473   0.11551   0.00000  Uiso   1.00
H127   H     0.41527   0.01334   0.48153   0.00000  Uiso   1.00
H128   H     0.13497   0.75543   0.18786   0.00000  Uiso   1.00
H129   H     0.79937   0.39535   0.96549   0.00000  Uiso   1.00
O130   O     0.29670   0.15627   0.47697   0.00000  Uiso   1.00
O131   O     0.24092   0.81788   0.09168   0.00000  Uiso   1.00
O132   O     0.80063   0.34546   0.79994   0.00000  Uiso   1.00
N133   N     0.43335   0.07405   0.32743   0.00000  Uiso   1.00
N134   N     0.10621   0.83293   0.05289   0.00000  Uiso   1.00
N135   N     0.79249   0.49627   0.84497   0.00000  Uiso   1.00
N136   N     0.43745   0.01827   0.42296   0.00000  Uiso   1.00
N137   N     0.11031   0.77715   0.14841   0.00000  Uiso   1.00
N138   N     0.79659   0.44049   0.94050   0.00000  Uiso   1.00
C139   C     0.15640   0.06873   0.26203   0.00000  Uiso   1.00
C140   C     0.15653   0.16567   0.29619   0.00000  Uiso   1.00
C141   C     0.21226   0.19441   0.24127   0.00000  Uiso   1.00
C142   C     0.20192   0.28592   0.28570   0.00000  Uiso   1.00
C143   C     0.21179   0.42725   0.32415   0.00000  Uiso   1.00
C144   C     0.04544   0.08586   0.28889   0.00000  Uiso   1.00
C145   C     0.00777   0.04748   0.22783   0.00000  Uiso   1.00
C146   C     0.90393   0.07180   0.26613   0.00000  Uiso   1.00
C147   C     0.74134   0.08917   0.29325   0.00000  Uiso   1.00
C148   C     0.18673   0.03102   0.32201   0.00000  Uiso   1.00
C149   C     0.26785   0.94651   0.28881   0.00000  Uiso   1.00
C150   C     0.28295   0.92464   0.35499   0.00000  Uiso   1.00
C151   C     0.33975   0.85686   0.43354   0.00000  Uiso   1.00
C152   C     0.03896   0.18014   0.43861   0.00000  Uiso   1.00
C153   C     0.09273   0.22618   0.39210   0.00000  Uiso   1.00
C154   C     0.08232   0.31767   0.43664   0.00000  Uiso   1.00
C155   C     0.13802   0.34654   0.38179   0.00000  Uiso   1.00
C156   C     0.98165   0.14637   0.38480   0.00000  Uiso   1.00
C157   C     0.87784   0.17074   0.42320   0.00000  Uiso   1.00
C158   C     0.84002   0.13242   0.36222   0.00000  Uiso   1.00
C159   C     0.12295   0.09153   0.41793   0.00000  Uiso   1.00
C160   C     0.13792   0.06978   0.48418   0.00000  Uiso   1.00
C161   C     0.21904   0.98527   0.45108   0.00000  Uiso   1.00
H162   H     0.20606   0.02162   0.18736   0.00000  Uiso   1.00
H163   H     0.26161   0.14756   0.16704   0.00000  Uiso   1.00
H164   H     0.05716   0.00065   0.15361   0.00000  Uiso   1.00
H165   H     0.31720   0.89971   0.21458   0.00000  Uiso   1.00
H166   H     0.29503   0.31389   0.18681   0.00000  Uiso   1.00
H167   H     0.86395   0.00409   0.15850   0.00000  Uiso   1.00
H168   H     0.41230   0.79122   0.28706   0.00000  Uiso   1.00
H169   H     0.98929   0.22725   0.51329   0.00000  Uiso   1.00
H170   H     0.03295   0.36448   0.51086   0.00000  Uiso   1.00
H171   H     0.82850   0.21757   0.49743   0.00000  Uiso   1.00
H172   H     0.08854   0.11662   0.55839   0.00000  Uiso   1.00
H173   H     0.10944   0.48995   0.46587   0.00000  Uiso   1.00
H174   H     0.67835   0.18015   0.43755   0.00000  Uiso   1.00
H175   H     0.22670   0.96728   0.56611   0.00000  Uiso   1.00
O176   O     0.23484   0.48849   0.31886   0.00000  Uiso   1.00
O177   O     0.66928   0.08203   0.28171   0.00000  Uiso   1.00
O178   O     0.38870   0.80276   0.45037   0.00000  Uiso   1.00
N179   N     0.24538   0.33648   0.25282   0.00000  Uiso   1.00
N180   N     0.84234   0.04686   0.22635   0.00000  Uiso   1.00
N181   N     0.35498   0.84783   0.34654   0.00000  Uiso   1.00
N182   N     0.14551   0.43122   0.40298   0.00000  Uiso   1.00
N183   N     0.74247   0.14159   0.37651   0.00000  Uiso   1.00
N184   N     0.25511   0.94257   0.49670   0.00000  Uiso   1.00
C185   C     0.41975   0.74167   0.80534   0.00000  Uiso   1.00
C186   C     0.45194   0.70766   0.86681   0.00000  Uiso   1.00
C187   C     0.45250   0.76357   0.94905   0.00000  Uiso   1.00
C188   C     0.48455   0.71909   0.99509   0.00000  Uiso   1.00
C189   C     0.52986   0.68103   0.09589   0.00000  Uiso   1.00
C190   C     0.33545   0.71222   0.79701   0.00000  Uiso   1.00
C191   C     0.23807   0.77197   0.82055   0.00000  Uiso   1.00
C192   C     0.17207   0.73132   0.80781   0.00000  Uiso   1.00
C193   C     0.03655   0.70033   0.80019   0.00000  Uiso   1.00
C194   C     0.51019   0.68287   0.70801   0.00000  Uiso   1.00
C195   C     0.55971   0.71795   0.65669   0.00000  Uiso   1.00
C196   C     0.64081   0.65259   0.56901   0.00000  Uiso   1.00
C197   C     0.77659   0.57604   0.42319   0.00000  Uiso   1.00
C198   C     0.47570   0.56325   0.74086   0.00000  Uiso   1.00
C199   C     0.48233   0.61074   0.83179   0.00000  Uiso   1.00
C200   C     0.51440   0.56617   0.87771   0.00000  Uiso   1.00
C201   C     0.51500   0.62201   0.96000   0.00000  Uiso   1.00
C202   C     0.36584   0.61531   0.76199   0.00000  Uiso   1.00
C203   C     0.29997   0.57457   0.74921   0.00000  Uiso   1.00
C204   C     0.20251   0.63424   0.77273   0.00000  Uiso   1.00
C205   C     0.54058   0.58596   0.67298   0.00000  Uiso   1.00
C206   C     0.62161   0.52055   0.58536   0.00000  Uiso   1.00
C207   C     0.67125   0.55551   0.53392   0.00000  Uiso   1.00
H208   H     0.39608   0.81712   0.83261   0.00000  Uiso   1.00
H209   H     0.42896   0.83857   0.97614   0.00000  Uiso   1.00
H210   H     0.21457   0.84696   0.84764   0.00000  Uiso   1.00
H211   H     0.53617   0.79294   0.68382   0.00000  Uiso   1.00
H212   H     0.47878   0.81961   0.11984   0.00000  Uiso   1.00
H213   H     0.02674   0.83730   0.84888   0.00000  Uiso   1.00
H214   H     0.70488   0.72340   0.50342   0.00000  Uiso   1.00
H215   H     0.49936   0.48780   0.71359   0.00000  Uiso   1.00
H216   H     0.53791   0.49118   0.85059   0.00000  Uiso   1.00
H217   H     0.32352   0.49957   0.72210   0.00000  Uiso   1.00
H218   H     0.64511   0.44556   0.55828   0.00000  Uiso   1.00
H219   H     0.56720   0.53766   0.01794   0.00000  Uiso   1.00
H220   H     0.11516   0.55535   0.74698   0.00000  Uiso   1.00
H221   H     0.79330   0.44145   0.40152   0.00000  Uiso   1.00
O222   O     0.54645   0.68680   0.16118   0.00000  Uiso   1.00
O223   O     0.95340   0.71001   0.80567   0.00000  Uiso   1.00
O224   O     0.84311   0.56058   0.35244   0.00000  Uiso   1.00
N225   N     0.49432   0.75279   0.07705   0.00000  Uiso   1.00
N226   N     0.07168   0.76933   0.82373   0.00000  Uiso   1.00
N227   N     0.70567   0.66285   0.50074   0.00000  Uiso   1.00
N228   N     0.54190   0.60107   0.02222   0.00000  Uiso   1.00
N229   N     0.11926   0.61761   0.76890   0.00000  Uiso   1.00
N230   N     0.75325   0.51113   0.44591   0.00000  Uiso   1.00
C231   C     0.22307   0.19400   0.93329   0.00000  Uiso   1.00
C232   C     0.31677   0.13376   0.83810   0.00000  Uiso   1.00
C233   C     0.39782   0.05204   0.81127   0.00000  Uiso   1.00
C234   C     0.47627   0.00715   0.72114   0.00000  Uiso   1.00
C235   C     0.62212   0.90817   0.58260   0.00000  Uiso   1.00
C236   C     0.13132   0.20020   0.91375   0.00000  Uiso   1.00
C237   C     0.05646   0.17435   0.95054   0.00000  Uiso   1.00
C238   C     0.97879   0.18540   0.92411   0.00000  Uiso   1.00
C239   C     0.83671   0.18964   0.90307   0.00000  Uiso   1.00
C240   C     0.21781   0.29298   0.97105   0.00000  Uiso   1.00
C241   C     0.21563   0.34515   0.05602   0.00000  Uiso   1.00
C242   C     0.21075   0.43432   0.07784   0.00000  Uiso   1.00
C243   C     0.20294   0.58260   0.14575   0.00000  Uiso   1.00
C244   C     0.21824   0.25960   0.82096   0.00000  Uiso   1.00
C245   C     0.31414   0.16940   0.77709   0.00000  Uiso   1.00
C246   C     0.39248   0.12462   0.68698   0.00000  Uiso   1.00
C247   C     0.47364   0.04284   0.66002   0.00000  Uiso   1.00
C248   C     0.12870   0.23583   0.85274   0.00000  Uiso   1.00
C249   C     0.05112   0.24693   0.82626   0.00000  Uiso   1.00
C250   C     0.97617   0.22109   0.86299   0.00000  Uiso   1.00
C251   C     0.21519   0.32861   0.91003   0.00000  Uiso   1.00
C252   C     0.21029   0.41772   0.93173   0.00000  Uiso   1.00
C253   C     0.20812   0.47001   0.01671   0.00000  Uiso   1.00
H254   H     0.22510   0.16626   0.98080   0.00000  Uiso   1.00
H255   H     0.39982   0.02449   0.85851   0.00000  Uiso   1.00
H256   H     0.05851   0.14679   0.99776   0.00000  Uiso   1.00
H257   H     0.21766   0.31755   0.10322   0.00000  Uiso   1.00
H258   H     0.59235   0.88300   0.69600   0.00000  Uiso   1.00
H259   H     0.87265   0.14091   0.98966   0.00000  Uiso   1.00
H260   H     0.20825   0.50100   0.21203   0.00000  Uiso   1.00
H261   H     0.21620   0.28734   0.77346   0.00000  Uiso   1.00
H262   H     0.39043   0.15220   0.63978   0.00000  Uiso   1.00
H263   H     0.04912   0.27451   0.77904   0.00000  Uiso   1.00
H264   H     0.20827   0.44527   0.88449   0.00000  Uiso   1.00
H265   H     0.58473   0.98665   0.51847   0.00000  Uiso   1.00
H266   H     0.86503   0.24457   0.81214   0.00000  Uiso   1.00
H267   H     0.20063   0.60465   0.03451   0.00000  Uiso   1.00
O268   O     0.70330   0.84373   0.52303   0.00000  Uiso   1.00
O269   O     0.75908   0.18212   0.90832   0.00000  Uiso   1.00
O270   O     0.19937   0.65454   0.20006   0.00000  Uiso   1.00
N271   N     0.56665   0.92595   0.67257   0.00000  Uiso   1.00
N272   N     0.89379   0.16707   0.94711   0.00000  Uiso   1.00
N273   N     0.20751   0.50373   0.15503   0.00000  Uiso   1.00
N274   N     0.56255   0.98173   0.57704   0.00000  Uiso   1.00
N275   N     0.88969   0.22285   0.85159   0.00000  Uiso   1.00
N276   N     0.20341   0.55951   0.05950   0.00000  Uiso   1.00
