data_job_05844
_audit_creation_date              2018-12-19
_audit_creation_method            'Materials Studio'
_symmetry_space_group_name_H-M    'P1'
_symmetry_Int_Tables_number       1
_symmetry_cell_setting            triclinic
loop_
_symmetry_equiv_pos_as_xyz
  x,y,z
_cell_length_a                    19.7078
_cell_length_b                    19.7078
_cell_length_c                    12.0844
_cell_angle_alpha                 90.0000
_cell_angle_beta                  90.0000
_cell_angle_gamma                 120.0000
loop_
_atom_site_label
_atom_site_type_symbol
_atom_site_fract_x
_atom_site_fract_y
_atom_site_fract_z
_atom_site_U_iso_or_equiv
_atom_site_adp_type
_atom_site_occupancy
C1     C     0.82818   0.08716   0.86332   0.00000  Uiso   1.00
C2     C     0.74041   0.04098   0.84003   0.00000  Uiso   1.00
C3     C     0.69993   0.96618   0.79530   0.00000  Uiso   1.00
C4     C     0.61979   0.93404   0.78038   0.00000  Uiso   1.00
C5     C     0.48932   0.85607   0.73978   0.00000  Uiso   1.00
C6     C     0.85953   0.16419   0.80045   0.00000  Uiso   1.00
C7     C     0.91920   0.19298   0.72245   0.00000  Uiso   1.00
C8     C     0.93934   0.26457   0.67423   0.00000  Uiso   1.00
C9     C     0.99384   0.37791   0.57224   0.00000  Uiso   1.00
C10    C     0.83642   0.10838   0.98584   0.00000  Uiso   1.00
C11    C     0.87668   0.09026   0.06372   0.00000  Uiso   1.00
C12    C     0.87738   0.11488   0.17158   0.00000  Uiso   1.00
C13    C     0.89600   0.14157   0.35743   0.00000  Uiso   1.00
C14    C     0.75786   0.16312   0.91638   0.00000  Uiso   1.00
C15    C     0.70221   0.08224   0.86885   0.00000  Uiso   1.00
C16    C     0.62212   0.05021   0.85400   0.00000  Uiso   1.00
C17    C     0.58152   0.97537   0.80926   0.00000  Uiso   1.00
C18    C     0.82133   0.20544   0.82927   0.00000  Uiso   1.00
C19    C     0.84139   0.27701   0.78116   0.00000  Uiso   1.00
C20    C     0.90108   0.30590   0.70311   0.00000  Uiso   1.00
C21    C     0.79822   0.14963   0.01466   0.00000  Uiso   1.00
C22    C     0.79887   0.17429   0.12242   0.00000  Uiso   1.00
C23    C     0.83912   0.15622   0.20045   0.00000  Uiso   1.00
H24    H     0.85792   0.05505   0.84088   0.00000  Uiso   1.00
H25    H     0.72951   0.93427   0.77299   0.00000  Uiso   1.00
H26    H     0.94876   0.16104   0.70018   0.00000  Uiso   1.00
H27    H     0.90623   0.05834   0.04138   0.00000  Uiso   1.00
H28    H     0.57030   0.81857   0.71040   0.00000  Uiso   1.00
H29    H     0.03261   0.29674   0.55689   0.00000  Uiso   1.00
H30    H     0.94295   0.08017   0.27639   0.00000  Uiso   1.00
H31    H     0.72812   0.19524   0.93882   0.00000  Uiso   1.00
H32    H     0.59257   0.08215   0.87631   0.00000  Uiso   1.00
H33    H     0.81182   0.30892   0.80349   0.00000  Uiso   1.00
H34    H     0.76930   0.20622   0.14469   0.00000  Uiso   1.00
H35    H     0.45916   0.93860   0.79425   0.00000  Uiso   1.00
H36    H     0.92147   0.41677   0.64074   0.00000  Uiso   1.00
H37    H     0.83181   0.20020   0.36024   0.00000  Uiso   1.00
O38    O     0.42791   0.80167   0.70940   0.00000  Uiso   1.00
O39    O     0.03445   0.42902   0.50801   0.00000  Uiso   1.00
O40    O     0.91682   0.14488   0.45198   0.00000  Uiso   1.00
N41    N     0.56274   0.86233   0.73874   0.00000  Uiso   1.00
N42    N     0.99496   0.30939   0.59519   0.00000  Uiso   1.00
N43    N     0.91116   0.10693   0.26786   0.00000  Uiso   1.00
N44    N     0.50293   0.92692   0.78386   0.00000  Uiso   1.00
N45    N     0.93516   0.37397   0.64031   0.00000  Uiso   1.00
N46    N     0.85135   0.17152   0.31298   0.00000  Uiso   1.00
C47    C     0.91284   0.74102   0.52999   0.00000  Uiso   1.00
C48    C     0.95902   0.69943   0.50670   0.00000  Uiso   1.00
C49    C     0.03382   0.73375   0.46196   0.00000  Uiso   1.00
C50    C     0.06596   0.68575   0.44705   0.00000  Uiso   1.00
C51    C     0.14393   0.63325   0.40644   0.00000  Uiso   1.00
C52    C     0.83581   0.69534   0.46712   0.00000  Uiso   1.00
C53    C     0.80702   0.72622   0.38912   0.00000  Uiso   1.00
C54    C     0.73543   0.67477   0.34090   0.00000  Uiso   1.00
C55    C     0.62209   0.61594   0.23891   0.00000  Uiso   1.00
C56    C     0.89162   0.72804   0.65250   0.00000  Uiso   1.00
C57    C     0.90974   0.78642   0.73038   0.00000  Uiso   1.00
C58    C     0.88512   0.76250   0.83824   0.00000  Uiso   1.00
C59    C     0.85843   0.75443   0.02410   0.00000  Uiso   1.00
C60    C     0.83688   0.59474   0.58305   0.00000  Uiso   1.00
C61    C     0.91776   0.61998   0.53552   0.00000  Uiso   1.00
C62    C     0.94979   0.57191   0.52067   0.00000  Uiso   1.00
C63    C     0.02463   0.60615   0.47592   0.00000  Uiso   1.00
C64    C     0.79456   0.61589   0.49594   0.00000  Uiso   1.00
C65    C     0.72299   0.56438   0.44783   0.00000  Uiso   1.00
C66    C     0.69410   0.59518   0.36977   0.00000  Uiso   1.00
C67    C     0.85037   0.64859   0.68133   0.00000  Uiso   1.00
C68    C     0.82571   0.62457   0.78909   0.00000  Uiso   1.00
C69    C     0.84378   0.68290   0.86712   0.00000  Uiso   1.00
H70    H     0.94495   0.80288   0.50755   0.00000  Uiso   1.00
H71    H     0.06573   0.79524   0.43966   0.00000  Uiso   1.00
H72    H     0.83896   0.78771   0.36684   0.00000  Uiso   1.00
H73    H     0.94166   0.84790   0.70805   0.00000  Uiso   1.00
H74    H     0.18143   0.75173   0.37707   0.00000  Uiso   1.00
H75    H     0.70326   0.73587   0.22355   0.00000  Uiso   1.00
H76    H     0.91983   0.86278   0.94306   0.00000  Uiso   1.00
H77    H     0.80476   0.53288   0.60549   0.00000  Uiso   1.00
H78    H     0.91785   0.51042   0.54298   0.00000  Uiso   1.00
H79    H     0.69108   0.50290   0.47015   0.00000  Uiso   1.00
H80    H     0.79378   0.56308   0.81136   0.00000  Uiso   1.00
H81    H     0.06140   0.52056   0.46092   0.00000  Uiso   1.00
H82    H     0.58323   0.50470   0.30740   0.00000  Uiso   1.00
H83    H     0.79980   0.63161   0.02691   0.00000  Uiso   1.00
O84    O     0.19833   0.62624   0.37607   0.00000  Uiso   1.00
O85    O     0.57098   0.60543   0.17468   0.00000  Uiso   1.00
O86    O     0.85512   0.77193   0.11865   0.00000  Uiso   1.00
N87    N     0.13767   0.70041   0.40540   0.00000  Uiso   1.00
N88    N     0.69061   0.68557   0.26186   0.00000  Uiso   1.00
N89    N     0.89307   0.80422   0.93453   0.00000  Uiso   1.00
N90    N     0.07308   0.57602   0.45052   0.00000  Uiso   1.00
N91    N     0.62603   0.56118   0.30698   0.00000  Uiso   1.00
N92    N     0.82848   0.67983   0.97965   0.00000  Uiso   1.00
C93    C     0.25898   0.17182   0.19666   0.00000  Uiso   1.00
C94    C     0.30057   0.25959   0.17336   0.00000  Uiso   1.00
C95    C     0.26625   0.30007   0.12863   0.00000  Uiso   1.00
C96    C     0.31425   0.38021   0.11371   0.00000  Uiso   1.00
C97    C     0.36675   0.51068   0.07311   0.00000  Uiso   1.00
C98    C     0.30466   0.14047   0.13378   0.00000  Uiso   1.00
C99    C     0.27378   0.08080   0.05579   0.00000  Uiso   1.00
C100   C     0.32523   0.06066   0.00757   0.00000  Uiso   1.00
C101   C     0.38406   0.00616   0.90558   0.00000  Uiso   1.00
C102   C     0.27196   0.16358   0.31917   0.00000  Uiso   1.00
C103   C     0.21358   0.12332   0.39705   0.00000  Uiso   1.00
C104   C     0.23750   0.12262   0.50491   0.00000  Uiso   1.00
C105   C     0.24557   0.10400   0.69076   0.00000  Uiso   1.00
C106   C     0.40526   0.24214   0.24972   0.00000  Uiso   1.00
C107   C     0.38002   0.29779   0.20218   0.00000  Uiso   1.00
C108   C     0.42809   0.37788   0.18734   0.00000  Uiso   1.00
C109   C     0.39385   0.41848   0.14259   0.00000  Uiso   1.00
C110   C     0.38411   0.17867   0.16260   0.00000  Uiso   1.00
C111   C     0.43562   0.15861   0.11449   0.00000  Uiso   1.00
C112   C     0.40482   0.09892   0.03644   0.00000  Uiso   1.00
C113   C     0.35141   0.20178   0.34800   0.00000  Uiso   1.00
C114   C     0.37543   0.20113   0.45575   0.00000  Uiso   1.00
C115   C     0.31710   0.16088   0.53378   0.00000  Uiso   1.00
H116   H     0.19712   0.14208   0.17421   0.00000  Uiso   1.00
H117   H     0.20476   0.27049   0.10633   0.00000  Uiso   1.00
H118   H     0.21229   0.05124   0.03351   0.00000  Uiso   1.00
H119   H     0.15210   0.09377   0.37472   0.00000  Uiso   1.00
H120   H     0.24827   0.42970   0.04374   0.00000  Uiso   1.00
H121   H     0.26414   0.96739   0.89022   0.00000  Uiso   1.00
H122   H     0.13722   0.05705   0.60972   0.00000  Uiso   1.00
H123   H     0.46712   0.27188   0.27216   0.00000  Uiso   1.00
H124   H     0.48958   0.40743   0.20965   0.00000  Uiso   1.00
H125   H     0.49710   0.18818   0.13682   0.00000  Uiso   1.00
H126   H     0.43692   0.23070   0.47803   0.00000  Uiso   1.00
H127   H     0.47944   0.54084   0.12759   0.00000  Uiso   1.00
H128   H     0.49530   0.07853   0.97407   0.00000  Uiso   1.00
H129   H     0.36839   0.16819   0.69357   0.00000  Uiso   1.00
O130   O     0.37376   0.57209   0.04274   0.00000  Uiso   1.00
O131   O     0.39457   0.96555   0.84135   0.00000  Uiso   1.00
O132   O     0.22807   0.08318   0.78532   0.00000  Uiso   1.00
N133   N     0.29959   0.43726   0.07207   0.00000  Uiso   1.00
N134   N     0.31443   0.00504   0.92853   0.00000  Uiso   1.00
N135   N     0.19578   0.08884   0.60120   0.00000  Uiso   1.00
N136   N     0.42398   0.49707   0.11719   0.00000  Uiso   1.00
N137   N     0.43882   0.06484   0.97365   0.00000  Uiso   1.00
N138   N     0.32017   0.14865   0.64632   0.00000  Uiso   1.00
C139   C     0.08716   0.82818   0.13668   0.00000  Uiso   1.00
C140   C     0.04098   0.74041   0.15997   0.00000  Uiso   1.00
C141   C     0.96618   0.69993   0.20470   0.00000  Uiso   1.00
C142   C     0.93404   0.61979   0.21962   0.00000  Uiso   1.00
C143   C     0.85607   0.48932   0.26022   0.00000  Uiso   1.00
C144   C     0.16419   0.85953   0.19955   0.00000  Uiso   1.00
C145   C     0.19298   0.91920   0.27755   0.00000  Uiso   1.00
C146   C     0.26457   0.93934   0.32577   0.00000  Uiso   1.00
C147   C     0.37791   0.99384   0.42776   0.00000  Uiso   1.00
C148   C     0.10838   0.83642   0.01416   0.00000  Uiso   1.00
C149   C     0.09026   0.87668   0.93628   0.00000  Uiso   1.00
C150   C     0.11488   0.87738   0.82842   0.00000  Uiso   1.00
C151   C     0.14157   0.89600   0.64257   0.00000  Uiso   1.00
C152   C     0.16312   0.75786   0.08362   0.00000  Uiso   1.00
C153   C     0.08224   0.70221   0.13115   0.00000  Uiso   1.00
C154   C     0.05021   0.62212   0.14600   0.00000  Uiso   1.00
C155   C     0.97537   0.58152   0.19074   0.00000  Uiso   1.00
C156   C     0.20544   0.82133   0.17073   0.00000  Uiso   1.00
C157   C     0.27701   0.84139   0.21884   0.00000  Uiso   1.00
C158   C     0.30590   0.90108   0.29689   0.00000  Uiso   1.00
C159   C     0.14963   0.79822   0.98534   0.00000  Uiso   1.00
C160   C     0.17429   0.79887   0.87758   0.00000  Uiso   1.00
C161   C     0.15622   0.83912   0.79955   0.00000  Uiso   1.00
H162   H     0.05505   0.85792   0.15912   0.00000  Uiso   1.00
H163   H     0.93427   0.72951   0.22701   0.00000  Uiso   1.00
H164   H     0.16104   0.94876   0.29982   0.00000  Uiso   1.00
H165   H     0.05834   0.90623   0.95862   0.00000  Uiso   1.00
H166   H     0.81857   0.57030   0.28960   0.00000  Uiso   1.00
H167   H     0.29674   0.03261   0.44311   0.00000  Uiso   1.00
H168   H     0.08017   0.94295   0.72361   0.00000  Uiso   1.00
H169   H     0.19524   0.72812   0.06118   0.00000  Uiso   1.00
H170   H     0.08215   0.59257   0.12369   0.00000  Uiso   1.00
H171   H     0.30892   0.81182   0.19651   0.00000  Uiso   1.00
H172   H     0.20622   0.76930   0.85531   0.00000  Uiso   1.00
H173   H     0.93860   0.45916   0.20575   0.00000  Uiso   1.00
H174   H     0.41677   0.92147   0.35926   0.00000  Uiso   1.00
H175   H     0.20020   0.83181   0.63976   0.00000  Uiso   1.00
O176   O     0.80167   0.42791   0.29060   0.00000  Uiso   1.00
O177   O     0.42902   0.03445   0.49199   0.00000  Uiso   1.00
O178   O     0.14488   0.91682   0.54802   0.00000  Uiso   1.00
N179   N     0.86233   0.56274   0.26126   0.00000  Uiso   1.00
N180   N     0.30939   0.99496   0.40481   0.00000  Uiso   1.00
N181   N     0.10693   0.91116   0.73214   0.00000  Uiso   1.00
N182   N     0.92692   0.50293   0.21614   0.00000  Uiso   1.00
N183   N     0.37397   0.93516   0.35969   0.00000  Uiso   1.00
N184   N     0.17152   0.85135   0.68702   0.00000  Uiso   1.00
C185   C     0.74102   0.91284   0.47001   0.00000  Uiso   1.00
C186   C     0.69943   0.95902   0.49330   0.00000  Uiso   1.00
C187   C     0.73375   0.03382   0.53804   0.00000  Uiso   1.00
C188   C     0.68575   0.06596   0.55295   0.00000  Uiso   1.00
C189   C     0.63325   0.14393   0.59356   0.00000  Uiso   1.00
C190   C     0.69534   0.83581   0.53288   0.00000  Uiso   1.00
C191   C     0.72622   0.80702   0.61088   0.00000  Uiso   1.00
C192   C     0.67477   0.73543   0.65910   0.00000  Uiso   1.00
C193   C     0.61594   0.62209   0.76109   0.00000  Uiso   1.00
C194   C     0.72804   0.89162   0.34750   0.00000  Uiso   1.00
C195   C     0.78642   0.90974   0.26962   0.00000  Uiso   1.00
C196   C     0.76250   0.88512   0.16176   0.00000  Uiso   1.00
C197   C     0.75443   0.85843   0.97590   0.00000  Uiso   1.00
C198   C     0.59474   0.83688   0.41695   0.00000  Uiso   1.00
C199   C     0.61998   0.91776   0.46448   0.00000  Uiso   1.00
C200   C     0.57191   0.94979   0.47933   0.00000  Uiso   1.00
C201   C     0.60615   0.02463   0.52408   0.00000  Uiso   1.00
C202   C     0.61589   0.79456   0.50406   0.00000  Uiso   1.00
C203   C     0.56438   0.72299   0.55217   0.00000  Uiso   1.00
C204   C     0.59518   0.69410   0.63023   0.00000  Uiso   1.00
C205   C     0.64859   0.85037   0.31867   0.00000  Uiso   1.00
C206   C     0.62457   0.82571   0.21091   0.00000  Uiso   1.00
C207   C     0.68290   0.84378   0.13288   0.00000  Uiso   1.00
H208   H     0.80288   0.94495   0.49245   0.00000  Uiso   1.00
H209   H     0.79524   0.06573   0.56034   0.00000  Uiso   1.00
H210   H     0.78771   0.83896   0.63316   0.00000  Uiso   1.00
H211   H     0.84790   0.94166   0.29195   0.00000  Uiso   1.00
H212   H     0.75173   0.18143   0.62293   0.00000  Uiso   1.00
H213   H     0.73586   0.70326   0.77645   0.00000  Uiso   1.00
H214   H     0.86278   0.91983   0.05694   0.00000  Uiso   1.00
H215   H     0.53288   0.80476   0.39451   0.00000  Uiso   1.00
H216   H     0.51042   0.91785   0.45702   0.00000  Uiso   1.00
H217   H     0.50290   0.69108   0.52985   0.00000  Uiso   1.00
H218   H     0.56308   0.79378   0.18864   0.00000  Uiso   1.00
H219   H     0.52056   0.06140   0.53908   0.00000  Uiso   1.00
H220   H     0.50470   0.58323   0.69260   0.00000  Uiso   1.00
H221   H     0.63161   0.79980   0.97309   0.00000  Uiso   1.00
O222   O     0.62624   0.19833   0.62393   0.00000  Uiso   1.00
O223   O     0.60543   0.57098   0.82532   0.00000  Uiso   1.00
O224   O     0.77193   0.85512   0.88135   0.00000  Uiso   1.00
N225   N     0.70041   0.13767   0.59460   0.00000  Uiso   1.00
N226   N     0.68557   0.69061   0.73814   0.00000  Uiso   1.00
N227   N     0.80422   0.89307   0.06547   0.00000  Uiso   1.00
N228   N     0.57602   0.07308   0.54948   0.00000  Uiso   1.00
N229   N     0.56118   0.62603   0.69302   0.00000  Uiso   1.00
N230   N     0.67983   0.82848   0.02035   0.00000  Uiso   1.00
C231   C     0.17182   0.25898   0.80334   0.00000  Uiso   1.00
C232   C     0.25959   0.30057   0.82664   0.00000  Uiso   1.00
C233   C     0.30007   0.26625   0.87137   0.00000  Uiso   1.00
C234   C     0.38021   0.31425   0.88629   0.00000  Uiso   1.00
C235   C     0.51068   0.36675   0.92689   0.00000  Uiso   1.00
C236   C     0.14047   0.30466   0.86622   0.00000  Uiso   1.00
C237   C     0.08080   0.27378   0.94421   0.00000  Uiso   1.00
C238   C     0.06066   0.32523   0.99243   0.00000  Uiso   1.00
C239   C     0.00616   0.38406   0.09442   0.00000  Uiso   1.00
C240   C     0.16358   0.27196   0.68083   0.00000  Uiso   1.00
C241   C     0.12332   0.21358   0.60295   0.00000  Uiso   1.00
C242   C     0.12262   0.23750   0.49509   0.00000  Uiso   1.00
C243   C     0.10400   0.24557   0.30924   0.00000  Uiso   1.00
C244   C     0.24214   0.40526   0.75028   0.00000  Uiso   1.00
C245   C     0.29779   0.38002   0.79782   0.00000  Uiso   1.00
C246   C     0.37788   0.42809   0.81266   0.00000  Uiso   1.00
C247   C     0.41848   0.39385   0.85741   0.00000  Uiso   1.00
C248   C     0.17867   0.38411   0.83740   0.00000  Uiso   1.00
C249   C     0.15861   0.43562   0.88551   0.00000  Uiso   1.00
C250   C     0.09892   0.40482   0.96356   0.00000  Uiso   1.00
C251   C     0.20178   0.35141   0.65200   0.00000  Uiso   1.00
C252   C     0.20113   0.37543   0.54425   0.00000  Uiso   1.00
C253   C     0.16088   0.31710   0.46622   0.00000  Uiso   1.00
H254   H     0.14208   0.19712   0.82579   0.00000  Uiso   1.00
H255   H     0.27049   0.20476   0.89367   0.00000  Uiso   1.00
H256   H     0.05124   0.21229   0.96649   0.00000  Uiso   1.00
H257   H     0.09377   0.15210   0.62528   0.00000  Uiso   1.00
H258   H     0.42970   0.24827   0.95626   0.00000  Uiso   1.00
H259   H     0.96739   0.26414   0.10978   0.00000  Uiso   1.00
H260   H     0.05705   0.13722   0.39028   0.00000  Uiso   1.00
H261   H     0.27188   0.46712   0.72784   0.00000  Uiso   1.00
H262   H     0.40743   0.48958   0.79035   0.00000  Uiso   1.00
H263   H     0.18818   0.49710   0.86318   0.00000  Uiso   1.00
H264   H     0.23070   0.43692   0.52197   0.00000  Uiso   1.00
H265   H     0.54084   0.47944   0.87241   0.00000  Uiso   1.00
H266   H     0.07853   0.49530   0.02593   0.00000  Uiso   1.00
H267   H     0.16819   0.36839   0.30643   0.00000  Uiso   1.00
O268   O     0.57209   0.37376   0.95726   0.00000  Uiso   1.00
O269   O     0.96555   0.39457   0.15865   0.00000  Uiso   1.00
O270   O     0.08318   0.22807   0.21468   0.00000  Uiso   1.00
N271   N     0.43726   0.29959   0.92793   0.00000  Uiso   1.00
N272   N     0.00504   0.31443   0.07147   0.00000  Uiso   1.00
N273   N     0.08884   0.19578   0.39880   0.00000  Uiso   1.00
N274   N     0.49707   0.42398   0.88281   0.00000  Uiso   1.00
N275   N     0.06484   0.43882   0.02635   0.00000  Uiso   1.00
N276   N     0.14865   0.32017   0.35368   0.00000  Uiso   1.00
