data_job_04452
_audit_creation_date              2018-12-19
_audit_creation_method            'Materials Studio'
_symmetry_space_group_name_H-M    'P1'
_symmetry_Int_Tables_number       1
_symmetry_cell_setting            triclinic
loop_
_symmetry_equiv_pos_as_xyz
  x,y,z
_cell_length_a                    12.8677
_cell_length_b                    11.1064
_cell_length_c                    32.1698
_cell_angle_alpha                 90.0000
_cell_angle_beta                  90.0000
_cell_angle_gamma                 90.0000
loop_
_atom_site_label
_atom_site_type_symbol
_atom_site_fract_x
_atom_site_fract_y
_atom_site_fract_z
_atom_site_U_iso_or_equiv
_atom_site_adp_type
_atom_site_occupancy
C1     C     0.51704   0.17556   0.63453   0.00000  Uiso   1.00
C2     C     0.49995   0.25101   0.59552   0.00000  Uiso   1.00
C3     C     0.51007   0.37517   0.59281   0.00000  Uiso   1.00
C4     C     0.49107   0.42731   0.55433   0.00000  Uiso   1.00
C5     C     0.46876   0.55507   0.49902   0.00000  Uiso   1.00
C6     C     0.41651   0.10559   0.64135   0.00000  Uiso   1.00
C7     C     0.35648   0.10746   0.67719   0.00000  Uiso   1.00
C8     C     0.26725   0.03717   0.67729   0.00000  Uiso   1.00
C9     C     0.11544   0.93909   0.69314   0.00000  Uiso   1.00
C10    C     0.59919   0.08224   0.62317   0.00000  Uiso   1.00
C11    C     0.69276   0.06446   0.64373   0.00000  Uiso   1.00
C12    C     0.75733   0.97448   0.62853   0.00000  Uiso   1.00
C13    C     0.88916   0.84015   0.61616   0.00000  Uiso   1.00
C14    C     0.46531   0.04738   0.57099   0.00000  Uiso   1.00
C15    C     0.47185   0.18139   0.56101   0.00000  Uiso   1.00
C16    C     0.45284   0.23335   0.52252   0.00000  Uiso   1.00
C17    C     0.46293   0.35757   0.51976   0.00000  Uiso   1.00
C18    C     0.38841   0.03597   0.60684   0.00000  Uiso   1.00
C19    C     0.29925   0.96565   0.60689   0.00000  Uiso   1.00
C20    C     0.23910   0.96743   0.64272   0.00000  Uiso   1.00
C21    C     0.57110   0.01262   0.58866   0.00000  Uiso   1.00
C22    C     0.63553   0.92265   0.57343   0.00000  Uiso   1.00
C23    C     0.72918   0.90474   0.59396   0.00000  Uiso   1.00
H24    H     0.53890   0.22976   0.66140   0.00000  Uiso   1.00
H25    H     0.53180   0.42902   0.61953   0.00000  Uiso   1.00
H26    H     0.37825   0.16134   0.70389   0.00000  Uiso   1.00
H27    H     0.71447   0.11835   0.67043   0.00000  Uiso   1.00
H28    H     0.51151   0.61923   0.55790   0.00000  Uiso   1.00
H29    H     0.18775   0.05480   0.73578   0.00000  Uiso   1.00
H30    H     0.89674   0.96413   0.66524   0.00000  Uiso   1.00
H31    H     0.44343   0.99317   0.54412   0.00000  Uiso   1.00
H32    H     0.43110   0.17945   0.49582   0.00000  Uiso   1.00
H33    H     0.27754   0.91178   0.58018   0.00000  Uiso   1.00
H34    H     0.61376   0.86879   0.54672   0.00000  Uiso   1.00
H35    H     0.42976   0.41668   0.45749   0.00000  Uiso   1.00
H36    H     0.10600   0.85224   0.63537   0.00000  Uiso   1.00
H37    H     0.81500   0.76158   0.56483   0.00000  Uiso   1.00
O38    O     0.46421   0.64477   0.47804   0.00000  Uiso   1.00
O39    O     0.03946   0.90424   0.71142   0.00000  Uiso   1.00
O40    O     0.96964   0.78529   0.61886   0.00000  Uiso   1.00
N41    N     0.49398   0.54599   0.54090   0.00000  Uiso   1.00
N42    N     0.19127   0.01830   0.70720   0.00000  Uiso   1.00
N43    N     0.85411   0.93351   0.64126   0.00000  Uiso   1.00
N44    N     0.45000   0.43700   0.48687   0.00000  Uiso   1.00
N45    N     0.14729   0.90930   0.65317   0.00000  Uiso   1.00
N46    N     0.81013   0.82452   0.58722   0.00000  Uiso   1.00
C47    C     0.33695   0.82511   0.85974   0.00000  Uiso   1.00
C48    C     0.31963   0.74956   0.89871   0.00000  Uiso   1.00
C49    C     0.32992   0.62543   0.90141   0.00000  Uiso   1.00
C50    C     0.31065   0.57319   0.93985   0.00000  Uiso   1.00
C51    C     0.28804   0.44531   0.99511   0.00000  Uiso   1.00
C52    C     0.23638   0.89487   0.85278   0.00000  Uiso   1.00
C53    C     0.17669   0.89292   0.81685   0.00000  Uiso   1.00
C54    C     0.08735   0.96302   0.81663   0.00000  Uiso   1.00
C55    C     0.93553   0.06080   0.80057   0.00000  Uiso   1.00
C56    C     0.41886   0.91859   0.87123   0.00000  Uiso   1.00
C57    C     0.51259   0.93660   0.85081   0.00000  Uiso   1.00
C58    C     0.57687   0.02669   0.86612   0.00000  Uiso   1.00
C59    C     0.70837   0.16129   0.87871   0.00000  Uiso   1.00
C60    C     0.28444   0.95309   0.92322   0.00000  Uiso   1.00
C61    C     0.29110   0.81908   0.93319   0.00000  Uiso   1.00
C62    C     0.27182   0.76702   0.97164   0.00000  Uiso   1.00
C63    C     0.28208   0.64283   0.97439   0.00000  Uiso   1.00
C64    C     0.20785   0.96438   0.88726   0.00000  Uiso   1.00
C65    C     0.11858   0.03451   0.88709   0.00000  Uiso   1.00
C66    C     0.05877   0.03266   0.85117   0.00000  Uiso   1.00
C67    C     0.39033   0.98810   0.90571   0.00000  Uiso   1.00
C68    C     0.45448   0.07819   0.92105   0.00000  Uiso   1.00
C69    C     0.54829   0.09633   0.90066   0.00000  Uiso   1.00
H70    H     0.35916   0.77099   0.83289   0.00000  Uiso   1.00
H71    H     0.35199   0.57166   0.87471   0.00000  Uiso   1.00
H72    H     0.19879   0.83912   0.79017   0.00000  Uiso   1.00
H73    H     0.53463   0.88279   0.82413   0.00000  Uiso   1.00
H74    H     0.33142   0.38132   0.93628   0.00000  Uiso   1.00
H75    H     0.00841   0.94531   0.75802   0.00000  Uiso   1.00
H76    H     0.71660   0.03739   0.82962   0.00000  Uiso   1.00
H77    H     0.26223   0.00721   0.95006   0.00000  Uiso   1.00
H78    H     0.24974   0.82084   0.99832   0.00000  Uiso   1.00
H79    H     0.09654   0.08830   0.91377   0.00000  Uiso   1.00
H80    H     0.43238   0.13196   0.94773   0.00000  Uiso   1.00
H81    H     0.24843   0.58356   0.03660   0.00000  Uiso   1.00
H82    H     0.92542   0.14755   0.85833   0.00000  Uiso   1.00
H83    H     0.63361   0.23963   0.92994   0.00000  Uiso   1.00
O84    O     0.28343   0.35557   0.01607   0.00000  Uiso   1.00
O85    O     0.85966   0.09552   0.78218   0.00000  Uiso   1.00
O86    O     0.78879   0.21632   0.87613   0.00000  Uiso   1.00
N87    N     0.31362   0.45450   0.95327   0.00000  Uiso   1.00
N88    N     0.01162   0.98178   0.78661   0.00000  Uiso   1.00
N89    N     0.67371   0.06788   0.85355   0.00000  Uiso   1.00
N90    N     0.26897   0.56332   0.00726   0.00000  Uiso   1.00
N91    N     0.96696   0.09060   0.84059   0.00000  Uiso   1.00
N92    N     0.62905   0.17671   0.90753   0.00000  Uiso   1.00
C93    C     0.48296   0.82444   0.13453   0.00000  Uiso   1.00
C94    C     0.50005   0.74899   0.09552   0.00000  Uiso   1.00
C95    C     0.48993   0.62483   0.09281   0.00000  Uiso   1.00
C96    C     0.50893   0.57269   0.05433   0.00000  Uiso   1.00
C97    C     0.53124   0.44493   0.99902   0.00000  Uiso   1.00
C98    C     0.58349   0.89441   0.14135   0.00000  Uiso   1.00
C99    C     0.64352   0.89254   0.17719   0.00000  Uiso   1.00
C100   C     0.73275   0.96283   0.17729   0.00000  Uiso   1.00
C101   C     0.88456   0.06091   0.19314   0.00000  Uiso   1.00
C102   C     0.40081   0.91776   0.12317   0.00000  Uiso   1.00
C103   C     0.30724   0.93554   0.14373   0.00000  Uiso   1.00
C104   C     0.24267   0.02552   0.12853   0.00000  Uiso   1.00
C105   C     0.11084   0.15985   0.11616   0.00000  Uiso   1.00
C106   C     0.53469   0.95262   0.07099   0.00000  Uiso   1.00
C107   C     0.52815   0.81861   0.06101   0.00000  Uiso   1.00
C108   C     0.54716   0.76665   0.02252   0.00000  Uiso   1.00
C109   C     0.53707   0.64243   0.01976   0.00000  Uiso   1.00
C110   C     0.61159   0.96403   0.10684   0.00000  Uiso   1.00
C111   C     0.70075   0.03435   0.10689   0.00000  Uiso   1.00
C112   C     0.76090   0.03257   0.14272   0.00000  Uiso   1.00
C113   C     0.42890   0.98738   0.08866   0.00000  Uiso   1.00
C114   C     0.36447   0.07735   0.07343   0.00000  Uiso   1.00
C115   C     0.27082   0.09526   0.09396   0.00000  Uiso   1.00
H116   H     0.46110   0.77024   0.16140   0.00000  Uiso   1.00
H117   H     0.46820   0.57098   0.11953   0.00000  Uiso   1.00
H118   H     0.62175   0.83866   0.20389   0.00000  Uiso   1.00
H119   H     0.28553   0.88165   0.17043   0.00000  Uiso   1.00
H120   H     0.48849   0.38077   0.05790   0.00000  Uiso   1.00
H121   H     0.81225   0.94520   0.23578   0.00000  Uiso   1.00
H122   H     0.10326   0.03587   0.16524   0.00000  Uiso   1.00
H123   H     0.55657   0.00683   0.04412   0.00000  Uiso   1.00
H124   H     0.56890   0.82055   0.99582   0.00000  Uiso   1.00
H125   H     0.72246   0.08822   0.08018   0.00000  Uiso   1.00
H126   H     0.38624   0.13121   0.04672   0.00000  Uiso   1.00
H127   H     0.57024   0.58332   0.95749   0.00000  Uiso   1.00
H128   H     0.89400   0.14776   0.13537   0.00000  Uiso   1.00
H129   H     0.18500   0.23842   0.06483   0.00000  Uiso   1.00
O130   O     0.53579   0.35523   0.97804   0.00000  Uiso   1.00
O131   O     0.96054   0.09576   0.21142   0.00000  Uiso   1.00
O132   O     0.03036   0.21471   0.11886   0.00000  Uiso   1.00
N133   N     0.50602   0.45401   0.04090   0.00000  Uiso   1.00
N134   N     0.80873   0.98170   0.20720   0.00000  Uiso   1.00
N135   N     0.14589   0.06649   0.14126   0.00000  Uiso   1.00
N136   N     0.55000   0.56300   0.98687   0.00000  Uiso   1.00
N137   N     0.85271   0.09070   0.15317   0.00000  Uiso   1.00
N138   N     0.18987   0.17548   0.08722   0.00000  Uiso   1.00
C139   C     0.66305   0.17489   0.35974   0.00000  Uiso   1.00
C140   C     0.68037   0.25044   0.39871   0.00000  Uiso   1.00
C141   C     0.67008   0.37457   0.40141   0.00000  Uiso   1.00
C142   C     0.68935   0.42681   0.43985   0.00000  Uiso   1.00
C143   C     0.71196   0.55469   0.49511   0.00000  Uiso   1.00
C144   C     0.76362   0.10513   0.35278   0.00000  Uiso   1.00
C145   C     0.82331   0.10708   0.31685   0.00000  Uiso   1.00
C146   C     0.91265   0.03698   0.31663   0.00000  Uiso   1.00
C147   C     0.06447   0.93920   0.30057   0.00000  Uiso   1.00
C148   C     0.58114   0.08141   0.37123   0.00000  Uiso   1.00
C149   C     0.48741   0.06340   0.35081   0.00000  Uiso   1.00
C150   C     0.42313   0.97331   0.36612   0.00000  Uiso   1.00
C151   C     0.29163   0.83871   0.37871   0.00000  Uiso   1.00
C152   C     0.71556   0.04691   0.42322   0.00000  Uiso   1.00
C153   C     0.70890   0.18092   0.43319   0.00000  Uiso   1.00
C154   C     0.72818   0.23298   0.47164   0.00000  Uiso   1.00
C155   C     0.71792   0.35717   0.47439   0.00000  Uiso   1.00
C156   C     0.79215   0.03562   0.38726   0.00000  Uiso   1.00
C157   C     0.88142   0.96549   0.38709   0.00000  Uiso   1.00
C158   C     0.94123   0.96734   0.35117   0.00000  Uiso   1.00
C159   C     0.60967   0.01190   0.40571   0.00000  Uiso   1.00
C160   C     0.54552   0.92181   0.42105   0.00000  Uiso   1.00
C161   C     0.45171   0.90367   0.40066   0.00000  Uiso   1.00
H162   H     0.64084   0.22901   0.33289   0.00000  Uiso   1.00
H163   H     0.64801   0.42834   0.37471   0.00000  Uiso   1.00
H164   H     0.80121   0.16088   0.29017   0.00000  Uiso   1.00
H165   H     0.46537   0.11721   0.32413   0.00000  Uiso   1.00
H166   H     0.66858   0.61868   0.43628   0.00000  Uiso   1.00
H167   H     0.99159   0.05469   0.25802   0.00000  Uiso   1.00
H168   H     0.28340   0.96261   0.32962   0.00000  Uiso   1.00
H169   H     0.73777   0.99279   0.45006   0.00000  Uiso   1.00
H170   H     0.75026   0.17916   0.49832   0.00000  Uiso   1.00
H171   H     0.90346   0.91170   0.41377   0.00000  Uiso   1.00
H172   H     0.56762   0.86804   0.44773   0.00000  Uiso   1.00
H173   H     0.75157   0.41644   0.53660   0.00000  Uiso   1.00
H174   H     0.07458   0.85245   0.35833   0.00000  Uiso   1.00
H175   H     0.36639   0.76037   0.42994   0.00000  Uiso   1.00
O176   O     0.71657   0.64443   0.51607   0.00000  Uiso   1.00
O177   O     0.14034   0.90448   0.28218   0.00000  Uiso   1.00
O178   O     0.21121   0.78368   0.37613   0.00000  Uiso   1.00
N179   N     0.68638   0.54550   0.45327   0.00000  Uiso   1.00
N180   N     0.98838   0.01822   0.28661   0.00000  Uiso   1.00
N181   N     0.32629   0.93212   0.35355   0.00000  Uiso   1.00
N182   N     0.73103   0.43668   0.50726   0.00000  Uiso   1.00
N183   N     0.03304   0.90940   0.34059   0.00000  Uiso   1.00
N184   N     0.37095   0.82329   0.40753   0.00000  Uiso   1.00
C185   C     0.01704   0.32444   0.63453   0.00000  Uiso   1.00
C186   C     0.99995   0.24899   0.59552   0.00000  Uiso   1.00
C187   C     0.01007   0.12483   0.59281   0.00000  Uiso   1.00
C188   C     0.99107   0.07269   0.55433   0.00000  Uiso   1.00
C189   C     0.96876   0.94493   0.49902   0.00000  Uiso   1.00
C190   C     0.91651   0.39441   0.64135   0.00000  Uiso   1.00
C191   C     0.85648   0.39254   0.67719   0.00000  Uiso   1.00
C192   C     0.76725   0.46283   0.67729   0.00000  Uiso   1.00
C193   C     0.61544   0.56091   0.69314   0.00000  Uiso   1.00
C194   C     0.09919   0.41776   0.62317   0.00000  Uiso   1.00
C195   C     0.19276   0.43554   0.64373   0.00000  Uiso   1.00
C196   C     0.25733   0.52552   0.62853   0.00000  Uiso   1.00
C197   C     0.38916   0.65985   0.61616   0.00000  Uiso   1.00
C198   C     0.96531   0.45262   0.57099   0.00000  Uiso   1.00
C199   C     0.97185   0.31861   0.56101   0.00000  Uiso   1.00
C200   C     0.95284   0.26665   0.52252   0.00000  Uiso   1.00
C201   C     0.96293   0.14243   0.51976   0.00000  Uiso   1.00
C202   C     0.88841   0.46403   0.60684   0.00000  Uiso   1.00
C203   C     0.79925   0.53435   0.60689   0.00000  Uiso   1.00
C204   C     0.73910   0.53257   0.64272   0.00000  Uiso   1.00
C205   C     0.07110   0.48738   0.58866   0.00000  Uiso   1.00
C206   C     0.13553   0.57735   0.57343   0.00000  Uiso   1.00
C207   C     0.22918   0.59526   0.59396   0.00000  Uiso   1.00
H208   H     0.03890   0.27024   0.66140   0.00000  Uiso   1.00
H209   H     0.03180   0.07098   0.61953   0.00000  Uiso   1.00
H210   H     0.87825   0.33866   0.70389   0.00000  Uiso   1.00
H211   H     0.21447   0.38165   0.67043   0.00000  Uiso   1.00
H212   H     0.01151   0.88077   0.55790   0.00000  Uiso   1.00
H213   H     0.68775   0.44520   0.73578   0.00000  Uiso   1.00
H214   H     0.39674   0.53587   0.66524   0.00000  Uiso   1.00
H215   H     0.94343   0.50683   0.54412   0.00000  Uiso   1.00
H216   H     0.93110   0.32055   0.49582   0.00000  Uiso   1.00
H217   H     0.77754   0.58822   0.58018   0.00000  Uiso   1.00
H218   H     0.11376   0.63121   0.54672   0.00000  Uiso   1.00
H219   H     0.92976   0.08332   0.45749   0.00000  Uiso   1.00
H220   H     0.60600   0.64776   0.63537   0.00000  Uiso   1.00
H221   H     0.31500   0.73842   0.56483   0.00000  Uiso   1.00
O222   O     0.96421   0.85523   0.47804   0.00000  Uiso   1.00
O223   O     0.53946   0.59576   0.71142   0.00000  Uiso   1.00
O224   O     0.46964   0.71471   0.61886   0.00000  Uiso   1.00
N225   N     0.99398   0.95401   0.54090   0.00000  Uiso   1.00
N226   N     0.69127   0.48170   0.70720   0.00000  Uiso   1.00
N227   N     0.35411   0.56649   0.64126   0.00000  Uiso   1.00
N228   N     0.95000   0.06300   0.48687   0.00000  Uiso   1.00
N229   N     0.64729   0.59070   0.65317   0.00000  Uiso   1.00
N230   N     0.31013   0.67548   0.58722   0.00000  Uiso   1.00
C231   C     0.83695   0.67489   0.85974   0.00000  Uiso   1.00
C232   C     0.81963   0.75044   0.89871   0.00000  Uiso   1.00
C233   C     0.82992   0.87457   0.90141   0.00000  Uiso   1.00
C234   C     0.81065   0.92681   0.93985   0.00000  Uiso   1.00
C235   C     0.78804   0.05469   0.99511   0.00000  Uiso   1.00
C236   C     0.73638   0.60513   0.85278   0.00000  Uiso   1.00
C237   C     0.67669   0.60708   0.81685   0.00000  Uiso   1.00
C238   C     0.58735   0.53698   0.81663   0.00000  Uiso   1.00
C239   C     0.43553   0.43920   0.80057   0.00000  Uiso   1.00
C240   C     0.91886   0.58141   0.87123   0.00000  Uiso   1.00
C241   C     0.01259   0.56340   0.85081   0.00000  Uiso   1.00
C242   C     0.07687   0.47331   0.86612   0.00000  Uiso   1.00
C243   C     0.20837   0.33871   0.87871   0.00000  Uiso   1.00
C244   C     0.78444   0.54691   0.92322   0.00000  Uiso   1.00
C245   C     0.79110   0.68092   0.93319   0.00000  Uiso   1.00
C246   C     0.77182   0.73298   0.97164   0.00000  Uiso   1.00
C247   C     0.78208   0.85717   0.97439   0.00000  Uiso   1.00
C248   C     0.70785   0.53562   0.88726   0.00000  Uiso   1.00
C249   C     0.61858   0.46549   0.88709   0.00000  Uiso   1.00
C250   C     0.55877   0.46734   0.85117   0.00000  Uiso   1.00
C251   C     0.89033   0.51190   0.90571   0.00000  Uiso   1.00
C252   C     0.95448   0.42181   0.92105   0.00000  Uiso   1.00
C253   C     0.04829   0.40367   0.90066   0.00000  Uiso   1.00
H254   H     0.85916   0.72901   0.83289   0.00000  Uiso   1.00
H255   H     0.85199   0.92834   0.87471   0.00000  Uiso   1.00
H256   H     0.69879   0.66088   0.79017   0.00000  Uiso   1.00
H257   H     0.03463   0.61721   0.82413   0.00000  Uiso   1.00
H258   H     0.83142   0.11868   0.93628   0.00000  Uiso   1.00
H259   H     0.50841   0.55469   0.75802   0.00000  Uiso   1.00
H260   H     0.21660   0.46261   0.82962   0.00000  Uiso   1.00
H261   H     0.76223   0.49279   0.95006   0.00000  Uiso   1.00
H262   H     0.74974   0.67916   0.99832   0.00000  Uiso   1.00
H263   H     0.59654   0.41170   0.91377   0.00000  Uiso   1.00
H264   H     0.93238   0.36804   0.94773   0.00000  Uiso   1.00
H265   H     0.74843   0.91644   0.03660   0.00000  Uiso   1.00
H266   H     0.42542   0.35245   0.85833   0.00000  Uiso   1.00
H267   H     0.13361   0.26037   0.92994   0.00000  Uiso   1.00
O268   O     0.78343   0.14443   0.01607   0.00000  Uiso   1.00
O269   O     0.35966   0.40448   0.78218   0.00000  Uiso   1.00
O270   O     0.28879   0.28368   0.87613   0.00000  Uiso   1.00
N271   N     0.81362   0.04550   0.95327   0.00000  Uiso   1.00
N272   N     0.51162   0.51822   0.78661   0.00000  Uiso   1.00
N273   N     0.17371   0.43212   0.85355   0.00000  Uiso   1.00
N274   N     0.76897   0.93668   0.00726   0.00000  Uiso   1.00
N275   N     0.46696   0.40940   0.84059   0.00000  Uiso   1.00
N276   N     0.12905   0.32329   0.90753   0.00000  Uiso   1.00
C277   C     0.98296   0.67556   0.13453   0.00000  Uiso   1.00
C278   C     0.00005   0.75101   0.09552   0.00000  Uiso   1.00
C279   C     0.98993   0.87517   0.09281   0.00000  Uiso   1.00
C280   C     0.00893   0.92731   0.05433   0.00000  Uiso   1.00
C281   C     0.03124   0.05507   0.99902   0.00000  Uiso   1.00
C282   C     0.08349   0.60559   0.14135   0.00000  Uiso   1.00
C283   C     0.14352   0.60746   0.17719   0.00000  Uiso   1.00
C284   C     0.23275   0.53717   0.17729   0.00000  Uiso   1.00
C285   C     0.38456   0.43909   0.19314   0.00000  Uiso   1.00
C286   C     0.90081   0.58224   0.12317   0.00000  Uiso   1.00
C287   C     0.80724   0.56446   0.14373   0.00000  Uiso   1.00
C288   C     0.74267   0.47448   0.12853   0.00000  Uiso   1.00
C289   C     0.61084   0.34015   0.11616   0.00000  Uiso   1.00
C290   C     0.03469   0.54738   0.07099   0.00000  Uiso   1.00
C291   C     0.02815   0.68139   0.06101   0.00000  Uiso   1.00
C292   C     0.04716   0.73335   0.02252   0.00000  Uiso   1.00
C293   C     0.03707   0.85757   0.01976   0.00000  Uiso   1.00
C294   C     0.11159   0.53597   0.10684   0.00000  Uiso   1.00
C295   C     0.20075   0.46565   0.10689   0.00000  Uiso   1.00
C296   C     0.26090   0.46743   0.14272   0.00000  Uiso   1.00
C297   C     0.92890   0.51262   0.08866   0.00000  Uiso   1.00
C298   C     0.86447   0.42265   0.07343   0.00000  Uiso   1.00
C299   C     0.77082   0.40474   0.09396   0.00000  Uiso   1.00
H300   H     0.96110   0.72976   0.16140   0.00000  Uiso   1.00
H301   H     0.96820   0.92902   0.11953   0.00000  Uiso   1.00
H302   H     0.12175   0.66134   0.20389   0.00000  Uiso   1.00
H303   H     0.78553   0.61835   0.17043   0.00000  Uiso   1.00
H304   H     0.98849   0.11923   0.05790   0.00000  Uiso   1.00
H305   H     0.31225   0.55480   0.23578   0.00000  Uiso   1.00
H306   H     0.60326   0.46413   0.16524   0.00000  Uiso   1.00
H307   H     0.05657   0.49317   0.04412   0.00000  Uiso   1.00
H308   H     0.06890   0.67945   0.99582   0.00000  Uiso   1.00
H309   H     0.22246   0.41178   0.08018   0.00000  Uiso   1.00
H310   H     0.88624   0.36879   0.04672   0.00000  Uiso   1.00
H311   H     0.07024   0.91668   0.95749   0.00000  Uiso   1.00
H312   H     0.39400   0.35224   0.13537   0.00000  Uiso   1.00
H313   H     0.68500   0.26158   0.06483   0.00000  Uiso   1.00
O314   O     0.03579   0.14477   0.97804   0.00000  Uiso   1.00
O315   O     0.46054   0.40424   0.21142   0.00000  Uiso   1.00
O316   O     0.53036   0.28529   0.11886   0.00000  Uiso   1.00
N317   N     0.00602   0.04599   0.04090   0.00000  Uiso   1.00
N318   N     0.30873   0.51830   0.20720   0.00000  Uiso   1.00
N319   N     0.64589   0.43351   0.14126   0.00000  Uiso   1.00
N320   N     0.05000   0.93700   0.98687   0.00000  Uiso   1.00
N321   N     0.35271   0.40930   0.15317   0.00000  Uiso   1.00
N322   N     0.68987   0.32452   0.08722   0.00000  Uiso   1.00
C323   C     0.16305   0.32511   0.35974   0.00000  Uiso   1.00
C324   C     0.18037   0.24956   0.39871   0.00000  Uiso   1.00
C325   C     0.17008   0.12543   0.40141   0.00000  Uiso   1.00
C326   C     0.18935   0.07319   0.43985   0.00000  Uiso   1.00
C327   C     0.21196   0.94531   0.49511   0.00000  Uiso   1.00
C328   C     0.26362   0.39487   0.35278   0.00000  Uiso   1.00
C329   C     0.32331   0.39292   0.31685   0.00000  Uiso   1.00
C330   C     0.41265   0.46302   0.31663   0.00000  Uiso   1.00
C331   C     0.56447   0.56080   0.30057   0.00000  Uiso   1.00
C332   C     0.08114   0.41859   0.37123   0.00000  Uiso   1.00
C333   C     0.98741   0.43660   0.35081   0.00000  Uiso   1.00
C334   C     0.92313   0.52669   0.36612   0.00000  Uiso   1.00
C335   C     0.79163   0.66129   0.37871   0.00000  Uiso   1.00
C336   C     0.21556   0.45309   0.42322   0.00000  Uiso   1.00
C337   C     0.20890   0.31908   0.43319   0.00000  Uiso   1.00
C338   C     0.22818   0.26702   0.47164   0.00000  Uiso   1.00
C339   C     0.21792   0.14283   0.47439   0.00000  Uiso   1.00
C340   C     0.29215   0.46438   0.38726   0.00000  Uiso   1.00
C341   C     0.38142   0.53451   0.38709   0.00000  Uiso   1.00
C342   C     0.44123   0.53266   0.35117   0.00000  Uiso   1.00
C343   C     0.10967   0.48810   0.40571   0.00000  Uiso   1.00
C344   C     0.04552   0.57819   0.42105   0.00000  Uiso   1.00
C345   C     0.95171   0.59633   0.40066   0.00000  Uiso   1.00
H346   H     0.14084   0.27099   0.33289   0.00000  Uiso   1.00
H347   H     0.14801   0.07166   0.37471   0.00000  Uiso   1.00
H348   H     0.30121   0.33912   0.29017   0.00000  Uiso   1.00
H349   H     0.96537   0.38279   0.32413   0.00000  Uiso   1.00
H350   H     0.16858   0.88132   0.43628   0.00000  Uiso   1.00
H351   H     0.49159   0.44531   0.25802   0.00000  Uiso   1.00
H352   H     0.78340   0.53739   0.32962   0.00000  Uiso   1.00
H353   H     0.23777   0.50721   0.45006   0.00000  Uiso   1.00
H354   H     0.25026   0.32084   0.49832   0.00000  Uiso   1.00
H355   H     0.40346   0.58830   0.41377   0.00000  Uiso   1.00
H356   H     0.06762   0.63196   0.44773   0.00000  Uiso   1.00
H357   H     0.25157   0.08356   0.53660   0.00000  Uiso   1.00
H358   H     0.57458   0.64755   0.35833   0.00000  Uiso   1.00
H359   H     0.86639   0.73963   0.42994   0.00000  Uiso   1.00
O360   O     0.21657   0.85557   0.51607   0.00000  Uiso   1.00
O361   O     0.64034   0.59552   0.28218   0.00000  Uiso   1.00
O362   O     0.71121   0.71632   0.37613   0.00000  Uiso   1.00
N363   N     0.18638   0.95450   0.45327   0.00000  Uiso   1.00
N364   N     0.48838   0.48178   0.28661   0.00000  Uiso   1.00
N365   N     0.82629   0.56788   0.35355   0.00000  Uiso   1.00
N366   N     0.23103   0.06332   0.50726   0.00000  Uiso   1.00
N367   N     0.53304   0.59060   0.34059   0.00000  Uiso   1.00
N368   N     0.87095   0.67671   0.40753   0.00000  Uiso   1.00
