data_job_02190
_audit_creation_date              2018-12-19
_audit_creation_method            'Materials Studio'
_symmetry_space_group_name_H-M    'P1'
_symmetry_Int_Tables_number       1
_symmetry_cell_setting            triclinic
loop_
_symmetry_equiv_pos_as_xyz
  x,y,z
_cell_length_a                    38.5818
_cell_length_b                    7.0037
_cell_length_c                    29.4012
_cell_angle_alpha                 90.0000
_cell_angle_beta                  134.7705
_cell_angle_gamma                 90.0000
loop_
_atom_site_label
_atom_site_type_symbol
_atom_site_fract_x
_atom_site_fract_y
_atom_site_fract_z
_atom_site_U_iso_or_equiv
_atom_site_adp_type
_atom_site_occupancy
C1     C     0.89791   0.99612   0.56908   0.00000  Uiso   1.00
C2     C     0.86121   0.07525   0.50102   0.00000  Uiso   1.00
C3     C     0.84227   0.97749   0.44644   0.00000  Uiso   1.00
C4     C     0.80914   0.07492   0.38865   0.00000  Uiso   1.00
C5     C     0.75424   0.16917   0.28343   0.00000  Uiso   1.00
C6     C     0.94107   0.13365   0.60854   0.00000  Uiso   1.00
C7     C     0.98929   0.08498   0.64438   0.00000  Uiso   1.00
C8     C     0.02339   0.23158   0.67711   0.00000  Uiso   1.00
C9     C     0.09249   0.41647   0.73887   0.00000  Uiso   1.00
C10    C     0.87422   0.01717   0.59384   0.00000  Uiso   1.00
C11    C     0.86623   0.87057   0.61733   0.00000  Uiso   1.00
C12    C     0.84405   0.91911   0.63770   0.00000  Uiso   1.00
C13    C     0.80935   0.92314   0.67663   0.00000  Uiso   1.00
C14    C     0.87274   0.34300   0.56348   0.00000  Uiso   1.00
C15    C     0.84753   0.26367   0.49798   0.00000  Uiso   1.00
C16    C     0.81442   0.36128   0.44025   0.00000  Uiso   1.00
C17    C     0.79544   0.26367   0.38560   0.00000  Uiso   1.00
C18    C     0.92740   0.32206   0.60550   0.00000  Uiso   1.00
C19    C     0.96143   0.46877   0.63819   0.00000  Uiso   1.00
C20    C     0.00969   0.42034   0.67406   0.00000  Uiso   1.00
C21    C     0.86054   0.20558   0.59080   0.00000  Uiso   1.00
C22    C     0.83838   0.25436   0.61114   0.00000  Uiso   1.00
C23    C     0.83036   0.10786   0.63465   0.00000  Uiso   1.00
H24    H     0.90856   0.84943   0.57145   0.00000  Uiso   1.00
H25    H     0.85287   0.83168   0.44882   0.00000  Uiso   1.00
H26    H     0.99986   0.93916   0.64673   0.00000  Uiso   1.00
H27    H     0.87682   0.72478   0.61968   0.00000  Uiso   1.00
H28    H     0.78510   0.89512   0.31152   0.00000  Uiso   1.00
H29    H     0.09505   0.12173   0.72885   0.00000  Uiso   1.00
H30    H     0.83559   0.66966   0.67181   0.00000  Uiso   1.00
H31    H     0.86209   0.48970   0.56111   0.00000  Uiso   1.00
H32    H     0.80384   0.50708   0.43791   0.00000  Uiso   1.00
H33    H     0.95084   0.61455   0.63583   0.00000  Uiso   1.00
H34    H     0.82780   0.40018   0.60878   0.00000  Uiso   1.00
H35    H     0.74531   0.44330   0.30267   0.00000  Uiso   1.00
H36    H     0.05526   0.66990   0.72000   0.00000  Uiso   1.00
H37    H     0.79581   0.21784   0.66296   0.00000  Uiso   1.00
O38    O     0.72774   0.16912   0.22624   0.00000  Uiso   1.00
O39    O     0.13438   0.46640   0.77377   0.00000  Uiso   1.00
O40    O     0.79398   0.87331   0.69893   0.00000  Uiso   1.00
N41    N     0.78372   0.02174   0.32634   0.00000  Uiso   1.00
N42    N     0.07350   0.23360   0.71651   0.00000  Uiso   1.00
N43    N     0.83095   0.81097   0.66320   0.00000  Uiso   1.00
N44    N     0.76231   0.31671   0.32158   0.00000  Uiso   1.00
N45    N     0.05209   0.52857   0.71175   0.00000  Uiso   1.00
N46    N     0.80954   0.10594   0.65844   0.00000  Uiso   1.00
C47    C     0.39791   0.49612   0.56908   0.00000  Uiso   1.00
C48    C     0.36121   0.57525   0.50102   0.00000  Uiso   1.00
C49    C     0.34227   0.47749   0.44644   0.00000  Uiso   1.00
C50    C     0.30914   0.57492   0.38865   0.00000  Uiso   1.00
C51    C     0.25424   0.66917   0.28343   0.00000  Uiso   1.00
C52    C     0.44107   0.63365   0.60854   0.00000  Uiso   1.00
C53    C     0.48929   0.58498   0.64438   0.00000  Uiso   1.00
C54    C     0.52339   0.73158   0.67711   0.00000  Uiso   1.00
C55    C     0.59249   0.91647   0.73887   0.00000  Uiso   1.00
C56    C     0.37422   0.51717   0.59384   0.00000  Uiso   1.00
C57    C     0.36623   0.37057   0.61733   0.00000  Uiso   1.00
C58    C     0.34405   0.41911   0.63770   0.00000  Uiso   1.00
C59    C     0.30935   0.42314   0.67663   0.00000  Uiso   1.00
C60    C     0.37274   0.84300   0.56348   0.00000  Uiso   1.00
C61    C     0.34753   0.76367   0.49798   0.00000  Uiso   1.00
C62    C     0.31442   0.86128   0.44025   0.00000  Uiso   1.00
C63    C     0.29544   0.76367   0.38560   0.00000  Uiso   1.00
C64    C     0.42740   0.82206   0.60550   0.00000  Uiso   1.00
C65    C     0.46143   0.96877   0.63819   0.00000  Uiso   1.00
C66    C     0.50969   0.92034   0.67406   0.00000  Uiso   1.00
C67    C     0.36054   0.70558   0.59080   0.00000  Uiso   1.00
C68    C     0.33838   0.75436   0.61114   0.00000  Uiso   1.00
C69    C     0.33036   0.60786   0.63465   0.00000  Uiso   1.00
H70    H     0.40856   0.34943   0.57145   0.00000  Uiso   1.00
H71    H     0.35287   0.33168   0.44882   0.00000  Uiso   1.00
H72    H     0.49986   0.43916   0.64673   0.00000  Uiso   1.00
H73    H     0.37682   0.22478   0.61968   0.00000  Uiso   1.00
H74    H     0.28510   0.39512   0.31152   0.00000  Uiso   1.00
H75    H     0.59505   0.62173   0.72885   0.00000  Uiso   1.00
H76    H     0.33559   0.16966   0.67181   0.00000  Uiso   1.00
H77    H     0.36209   0.98970   0.56111   0.00000  Uiso   1.00
H78    H     0.30384   0.00708   0.43791   0.00000  Uiso   1.00
H79    H     0.45084   0.11455   0.63583   0.00000  Uiso   1.00
H80    H     0.32780   0.90018   0.60878   0.00000  Uiso   1.00
H81    H     0.24531   0.94330   0.30267   0.00000  Uiso   1.00
H82    H     0.55526   0.16990   0.72000   0.00000  Uiso   1.00
H83    H     0.29581   0.71784   0.66296   0.00000  Uiso   1.00
O84    O     0.22774   0.66912   0.22624   0.00000  Uiso   1.00
O85    O     0.63438   0.96640   0.77377   0.00000  Uiso   1.00
O86    O     0.29398   0.37331   0.69893   0.00000  Uiso   1.00
N87    N     0.28372   0.52174   0.32634   0.00000  Uiso   1.00
N88    N     0.57350   0.73360   0.71651   0.00000  Uiso   1.00
N89    N     0.33095   0.31097   0.66320   0.00000  Uiso   1.00
N90    N     0.26231   0.81671   0.32158   0.00000  Uiso   1.00
N91    N     0.55209   0.02857   0.71175   0.00000  Uiso   1.00
N92    N     0.30954   0.60594   0.65844   0.00000  Uiso   1.00
C93    C     0.10209   0.99612   0.93092   0.00000  Uiso   1.00
C94    C     0.13879   0.07525   0.99898   0.00000  Uiso   1.00
C95    C     0.15773   0.97749   0.05356   0.00000  Uiso   1.00
C96    C     0.19086   0.07492   0.11135   0.00000  Uiso   1.00
C97    C     0.24576   0.16917   0.21657   0.00000  Uiso   1.00
C98    C     0.05893   0.13365   0.89146   0.00000  Uiso   1.00
C99    C     0.01071   0.08498   0.85562   0.00000  Uiso   1.00
C100   C     0.97661   0.23158   0.82289   0.00000  Uiso   1.00
C101   C     0.90751   0.41647   0.76113   0.00000  Uiso   1.00
C102   C     0.12578   0.01717   0.90616   0.00000  Uiso   1.00
C103   C     0.13377   0.87057   0.88267   0.00000  Uiso   1.00
C104   C     0.15595   0.91911   0.86230   0.00000  Uiso   1.00
C105   C     0.19065   0.92314   0.82337   0.00000  Uiso   1.00
C106   C     0.12726   0.34300   0.93652   0.00000  Uiso   1.00
C107   C     0.15247   0.26367   0.00202   0.00000  Uiso   1.00
C108   C     0.18558   0.36128   0.05975   0.00000  Uiso   1.00
C109   C     0.20456   0.26367   0.11440   0.00000  Uiso   1.00
C110   C     0.07260   0.32206   0.89450   0.00000  Uiso   1.00
C111   C     0.03857   0.46877   0.86181   0.00000  Uiso   1.00
C112   C     0.99031   0.42034   0.82594   0.00000  Uiso   1.00
C113   C     0.13946   0.20558   0.90920   0.00000  Uiso   1.00
C114   C     0.16162   0.25436   0.88886   0.00000  Uiso   1.00
C115   C     0.16964   0.10786   0.86535   0.00000  Uiso   1.00
H116   H     0.09144   0.84943   0.92855   0.00000  Uiso   1.00
H117   H     0.14713   0.83168   0.05118   0.00000  Uiso   1.00
H118   H     0.00014   0.93916   0.85327   0.00000  Uiso   1.00
H119   H     0.12318   0.72478   0.88032   0.00000  Uiso   1.00
H120   H     0.21490   0.89512   0.18848   0.00000  Uiso   1.00
H121   H     0.90495   0.12173   0.77115   0.00000  Uiso   1.00
H122   H     0.16441   0.66966   0.82819   0.00000  Uiso   1.00
H123   H     0.13791   0.48970   0.93889   0.00000  Uiso   1.00
H124   H     0.19616   0.50708   0.06209   0.00000  Uiso   1.00
H125   H     0.04916   0.61455   0.86417   0.00000  Uiso   1.00
H126   H     0.17220   0.40018   0.89122   0.00000  Uiso   1.00
H127   H     0.25469   0.44330   0.19733   0.00000  Uiso   1.00
H128   H     0.94474   0.66990   0.78000   0.00000  Uiso   1.00
H129   H     0.20419   0.21784   0.83704   0.00000  Uiso   1.00
O130   O     0.27226   0.16912   0.27376   0.00000  Uiso   1.00
O131   O     0.86562   0.46640   0.72623   0.00000  Uiso   1.00
O132   O     0.20602   0.87331   0.80107   0.00000  Uiso   1.00
N133   N     0.21628   0.02174   0.17366   0.00000  Uiso   1.00
N134   N     0.92650   0.23360   0.78349   0.00000  Uiso   1.00
N135   N     0.16905   0.81097   0.83680   0.00000  Uiso   1.00
N136   N     0.23769   0.31671   0.17842   0.00000  Uiso   1.00
N137   N     0.94791   0.52857   0.78825   0.00000  Uiso   1.00
N138   N     0.19046   0.10594   0.84156   0.00000  Uiso   1.00
C139   C     0.60209   0.49612   0.93092   0.00000  Uiso   1.00
C140   C     0.63879   0.57525   0.99898   0.00000  Uiso   1.00
C141   C     0.65773   0.47749   0.05356   0.00000  Uiso   1.00
C142   C     0.69086   0.57492   0.11135   0.00000  Uiso   1.00
C143   C     0.74576   0.66917   0.21657   0.00000  Uiso   1.00
C144   C     0.55893   0.63365   0.89146   0.00000  Uiso   1.00
C145   C     0.51071   0.58498   0.85562   0.00000  Uiso   1.00
C146   C     0.47661   0.73158   0.82289   0.00000  Uiso   1.00
C147   C     0.40751   0.91647   0.76113   0.00000  Uiso   1.00
C148   C     0.62578   0.51717   0.90616   0.00000  Uiso   1.00
C149   C     0.63377   0.37057   0.88267   0.00000  Uiso   1.00
C150   C     0.65595   0.41911   0.86230   0.00000  Uiso   1.00
C151   C     0.69065   0.42314   0.82337   0.00000  Uiso   1.00
C152   C     0.62726   0.84300   0.93652   0.00000  Uiso   1.00
C153   C     0.65247   0.76367   0.00202   0.00000  Uiso   1.00
C154   C     0.68558   0.86128   0.05975   0.00000  Uiso   1.00
C155   C     0.70456   0.76367   0.11440   0.00000  Uiso   1.00
C156   C     0.57260   0.82206   0.89450   0.00000  Uiso   1.00
C157   C     0.53857   0.96877   0.86181   0.00000  Uiso   1.00
C158   C     0.49031   0.92034   0.82594   0.00000  Uiso   1.00
C159   C     0.63946   0.70558   0.90920   0.00000  Uiso   1.00
C160   C     0.66162   0.75436   0.88886   0.00000  Uiso   1.00
C161   C     0.66964   0.60786   0.86535   0.00000  Uiso   1.00
H162   H     0.59144   0.34943   0.92855   0.00000  Uiso   1.00
H163   H     0.64713   0.33168   0.05118   0.00000  Uiso   1.00
H164   H     0.50014   0.43916   0.85327   0.00000  Uiso   1.00
H165   H     0.62318   0.22478   0.88032   0.00000  Uiso   1.00
H166   H     0.71490   0.39512   0.18848   0.00000  Uiso   1.00
H167   H     0.40495   0.62173   0.77115   0.00000  Uiso   1.00
H168   H     0.66441   0.16966   0.82819   0.00000  Uiso   1.00
H169   H     0.63791   0.98970   0.93889   0.00000  Uiso   1.00
H170   H     0.69616   0.00708   0.06209   0.00000  Uiso   1.00
H171   H     0.54916   0.11455   0.86417   0.00000  Uiso   1.00
H172   H     0.67220   0.90018   0.89122   0.00000  Uiso   1.00
H173   H     0.75469   0.94330   0.19733   0.00000  Uiso   1.00
H174   H     0.44474   0.16990   0.78000   0.00000  Uiso   1.00
H175   H     0.70419   0.71784   0.83704   0.00000  Uiso   1.00
O176   O     0.77226   0.66912   0.27376   0.00000  Uiso   1.00
O177   O     0.36562   0.96640   0.72623   0.00000  Uiso   1.00
O178   O     0.70602   0.37331   0.80107   0.00000  Uiso   1.00
N179   N     0.71628   0.52174   0.17366   0.00000  Uiso   1.00
N180   N     0.42650   0.73360   0.78349   0.00000  Uiso   1.00
N181   N     0.66905   0.31097   0.83680   0.00000  Uiso   1.00
N182   N     0.73769   0.81671   0.17842   0.00000  Uiso   1.00
N183   N     0.44791   0.02857   0.78825   0.00000  Uiso   1.00
N184   N     0.69046   0.60594   0.84156   0.00000  Uiso   1.00
C185   C     0.10209   0.00388   0.43092   0.00000  Uiso   1.00
C186   C     0.13879   0.92475   0.49898   0.00000  Uiso   1.00
C187   C     0.15773   0.02251   0.55356   0.00000  Uiso   1.00
C188   C     0.19086   0.92508   0.61135   0.00000  Uiso   1.00
C189   C     0.24576   0.83083   0.71657   0.00000  Uiso   1.00
C190   C     0.05893   0.86635   0.39146   0.00000  Uiso   1.00
C191   C     0.01071   0.91502   0.35562   0.00000  Uiso   1.00
C192   C     0.97661   0.76842   0.32289   0.00000  Uiso   1.00
C193   C     0.90751   0.58353   0.26113   0.00000  Uiso   1.00
C194   C     0.12578   0.98283   0.40616   0.00000  Uiso   1.00
C195   C     0.13377   0.12943   0.38267   0.00000  Uiso   1.00
C196   C     0.15595   0.08089   0.36230   0.00000  Uiso   1.00
C197   C     0.19065   0.07686   0.32337   0.00000  Uiso   1.00
C198   C     0.12726   0.65700   0.43652   0.00000  Uiso   1.00
C199   C     0.15247   0.73633   0.50202   0.00000  Uiso   1.00
C200   C     0.18558   0.63872   0.55975   0.00000  Uiso   1.00
C201   C     0.20456   0.73633   0.61440   0.00000  Uiso   1.00
C202   C     0.07260   0.67794   0.39450   0.00000  Uiso   1.00
C203   C     0.03857   0.53123   0.36181   0.00000  Uiso   1.00
C204   C     0.99031   0.57966   0.32594   0.00000  Uiso   1.00
C205   C     0.13946   0.79442   0.40920   0.00000  Uiso   1.00
C206   C     0.16162   0.74564   0.38886   0.00000  Uiso   1.00
C207   C     0.16964   0.89214   0.36535   0.00000  Uiso   1.00
H208   H     0.09144   0.15057   0.42855   0.00000  Uiso   1.00
H209   H     0.14713   0.16832   0.55118   0.00000  Uiso   1.00
H210   H     0.00014   0.06084   0.35327   0.00000  Uiso   1.00
H211   H     0.12318   0.27522   0.38032   0.00000  Uiso   1.00
H212   H     0.21490   0.10488   0.68848   0.00000  Uiso   1.00
H213   H     0.90495   0.87827   0.27115   0.00000  Uiso   1.00
H214   H     0.16441   0.33034   0.32819   0.00000  Uiso   1.00
H215   H     0.13791   0.51030   0.43889   0.00000  Uiso   1.00
H216   H     0.19616   0.49292   0.56209   0.00000  Uiso   1.00
H217   H     0.04916   0.38545   0.36417   0.00000  Uiso   1.00
H218   H     0.17220   0.59982   0.39122   0.00000  Uiso   1.00
H219   H     0.25469   0.55670   0.69733   0.00000  Uiso   1.00
H220   H     0.94474   0.33010   0.28000   0.00000  Uiso   1.00
H221   H     0.20419   0.78216   0.33704   0.00000  Uiso   1.00
O222   O     0.27226   0.83088   0.77376   0.00000  Uiso   1.00
O223   O     0.86562   0.53360   0.22623   0.00000  Uiso   1.00
O224   O     0.20602   0.12669   0.30107   0.00000  Uiso   1.00
N225   N     0.21628   0.97826   0.67366   0.00000  Uiso   1.00
N226   N     0.92650   0.76640   0.28349   0.00000  Uiso   1.00
N227   N     0.16905   0.18903   0.33680   0.00000  Uiso   1.00
N228   N     0.23769   0.68329   0.67842   0.00000  Uiso   1.00
N229   N     0.94791   0.47143   0.28825   0.00000  Uiso   1.00
N230   N     0.19046   0.89406   0.34156   0.00000  Uiso   1.00
C231   C     0.60209   0.50388   0.43092   0.00000  Uiso   1.00
C232   C     0.63879   0.42475   0.49898   0.00000  Uiso   1.00
C233   C     0.65773   0.52251   0.55356   0.00000  Uiso   1.00
C234   C     0.69086   0.42508   0.61135   0.00000  Uiso   1.00
C235   C     0.74576   0.33083   0.71657   0.00000  Uiso   1.00
C236   C     0.55893   0.36635   0.39146   0.00000  Uiso   1.00
C237   C     0.51071   0.41502   0.35562   0.00000  Uiso   1.00
C238   C     0.47661   0.26842   0.32289   0.00000  Uiso   1.00
C239   C     0.40751   0.08353   0.26113   0.00000  Uiso   1.00
C240   C     0.62578   0.48283   0.40616   0.00000  Uiso   1.00
C241   C     0.63377   0.62943   0.38267   0.00000  Uiso   1.00
C242   C     0.65595   0.58089   0.36230   0.00000  Uiso   1.00
C243   C     0.69065   0.57686   0.32337   0.00000  Uiso   1.00
C244   C     0.62726   0.15700   0.43652   0.00000  Uiso   1.00
C245   C     0.65247   0.23633   0.50202   0.00000  Uiso   1.00
C246   C     0.68558   0.13872   0.55975   0.00000  Uiso   1.00
C247   C     0.70456   0.23633   0.61440   0.00000  Uiso   1.00
C248   C     0.57260   0.17794   0.39450   0.00000  Uiso   1.00
C249   C     0.53857   0.03123   0.36181   0.00000  Uiso   1.00
C250   C     0.49031   0.07966   0.32594   0.00000  Uiso   1.00
C251   C     0.63946   0.29442   0.40920   0.00000  Uiso   1.00
C252   C     0.66162   0.24564   0.38886   0.00000  Uiso   1.00
C253   C     0.66964   0.39214   0.36535   0.00000  Uiso   1.00
H254   H     0.59144   0.65057   0.42855   0.00000  Uiso   1.00
H255   H     0.64713   0.66832   0.55118   0.00000  Uiso   1.00
H256   H     0.50014   0.56084   0.35327   0.00000  Uiso   1.00
H257   H     0.62318   0.77522   0.38032   0.00000  Uiso   1.00
H258   H     0.71490   0.60488   0.68848   0.00000  Uiso   1.00
H259   H     0.40495   0.37827   0.27115   0.00000  Uiso   1.00
H260   H     0.66441   0.83034   0.32819   0.00000  Uiso   1.00
H261   H     0.63791   0.01030   0.43889   0.00000  Uiso   1.00
H262   H     0.69616   0.99292   0.56209   0.00000  Uiso   1.00
H263   H     0.54916   0.88545   0.36417   0.00000  Uiso   1.00
H264   H     0.67220   0.09982   0.39122   0.00000  Uiso   1.00
H265   H     0.75469   0.05670   0.69733   0.00000  Uiso   1.00
H266   H     0.44474   0.83010   0.28000   0.00000  Uiso   1.00
H267   H     0.70419   0.28216   0.33704   0.00000  Uiso   1.00
O268   O     0.77226   0.33088   0.77376   0.00000  Uiso   1.00
O269   O     0.36562   0.03360   0.22623   0.00000  Uiso   1.00
O270   O     0.70602   0.62669   0.30107   0.00000  Uiso   1.00
N271   N     0.71628   0.47826   0.67366   0.00000  Uiso   1.00
N272   N     0.42650   0.26640   0.28349   0.00000  Uiso   1.00
N273   N     0.66905   0.68903   0.33680   0.00000  Uiso   1.00
N274   N     0.73769   0.18329   0.67842   0.00000  Uiso   1.00
N275   N     0.44791   0.97143   0.28825   0.00000  Uiso   1.00
N276   N     0.69046   0.39406   0.34156   0.00000  Uiso   1.00
C277   C     0.89791   0.00388   0.06908   0.00000  Uiso   1.00
C278   C     0.86121   0.92475   0.00102   0.00000  Uiso   1.00
C279   C     0.84227   0.02251   0.94644   0.00000  Uiso   1.00
C280   C     0.80914   0.92508   0.88865   0.00000  Uiso   1.00
C281   C     0.75424   0.83083   0.78343   0.00000  Uiso   1.00
C282   C     0.94107   0.86635   0.10854   0.00000  Uiso   1.00
C283   C     0.98929   0.91502   0.14438   0.00000  Uiso   1.00
C284   C     0.02339   0.76842   0.17711   0.00000  Uiso   1.00
C285   C     0.09249   0.58353   0.23887   0.00000  Uiso   1.00
C286   C     0.87422   0.98283   0.09384   0.00000  Uiso   1.00
C287   C     0.86623   0.12943   0.11733   0.00000  Uiso   1.00
C288   C     0.84405   0.08089   0.13770   0.00000  Uiso   1.00
C289   C     0.80935   0.07686   0.17663   0.00000  Uiso   1.00
C290   C     0.87274   0.65700   0.06348   0.00000  Uiso   1.00
C291   C     0.84753   0.73633   0.99798   0.00000  Uiso   1.00
C292   C     0.81442   0.63872   0.94025   0.00000  Uiso   1.00
C293   C     0.79544   0.73633   0.88560   0.00000  Uiso   1.00
C294   C     0.92740   0.67794   0.10550   0.00000  Uiso   1.00
C295   C     0.96143   0.53123   0.13819   0.00000  Uiso   1.00
C296   C     0.00969   0.57966   0.17406   0.00000  Uiso   1.00
C297   C     0.86054   0.79442   0.09080   0.00000  Uiso   1.00
C298   C     0.83838   0.74564   0.11114   0.00000  Uiso   1.00
C299   C     0.83036   0.89214   0.13465   0.00000  Uiso   1.00
H300   H     0.90856   0.15057   0.07145   0.00000  Uiso   1.00
H301   H     0.85287   0.16832   0.94882   0.00000  Uiso   1.00
H302   H     0.99986   0.06084   0.14673   0.00000  Uiso   1.00
H303   H     0.87682   0.27522   0.11968   0.00000  Uiso   1.00
H304   H     0.78510   0.10488   0.81152   0.00000  Uiso   1.00
H305   H     0.09505   0.87827   0.22885   0.00000  Uiso   1.00
H306   H     0.83559   0.33034   0.17181   0.00000  Uiso   1.00
H307   H     0.86209   0.51030   0.06111   0.00000  Uiso   1.00
H308   H     0.80384   0.49292   0.93791   0.00000  Uiso   1.00
H309   H     0.95084   0.38545   0.13583   0.00000  Uiso   1.00
H310   H     0.82780   0.59982   0.10878   0.00000  Uiso   1.00
H311   H     0.74531   0.55670   0.80267   0.00000  Uiso   1.00
H312   H     0.05526   0.33010   0.22000   0.00000  Uiso   1.00
H313   H     0.79581   0.78216   0.16296   0.00000  Uiso   1.00
O314   O     0.72774   0.83088   0.72624   0.00000  Uiso   1.00
O315   O     0.13438   0.53360   0.27377   0.00000  Uiso   1.00
O316   O     0.79398   0.12669   0.19893   0.00000  Uiso   1.00
N317   N     0.78372   0.97826   0.82634   0.00000  Uiso   1.00
N318   N     0.07350   0.76640   0.21651   0.00000  Uiso   1.00
N319   N     0.83095   0.18903   0.16320   0.00000  Uiso   1.00
N320   N     0.76231   0.68329   0.82158   0.00000  Uiso   1.00
N321   N     0.05209   0.47143   0.21175   0.00000  Uiso   1.00
N322   N     0.80954   0.89406   0.15844   0.00000  Uiso   1.00
C323   C     0.39791   0.50388   0.06908   0.00000  Uiso   1.00
C324   C     0.36121   0.42475   0.00102   0.00000  Uiso   1.00
C325   C     0.34227   0.52251   0.94644   0.00000  Uiso   1.00
C326   C     0.30914   0.42508   0.88865   0.00000  Uiso   1.00
C327   C     0.25424   0.33083   0.78343   0.00000  Uiso   1.00
C328   C     0.44107   0.36635   0.10854   0.00000  Uiso   1.00
C329   C     0.48929   0.41502   0.14438   0.00000  Uiso   1.00
C330   C     0.52339   0.26842   0.17711   0.00000  Uiso   1.00
C331   C     0.59249   0.08353   0.23887   0.00000  Uiso   1.00
C332   C     0.37422   0.48283   0.09384   0.00000  Uiso   1.00
C333   C     0.36623   0.62943   0.11733   0.00000  Uiso   1.00
C334   C     0.34405   0.58089   0.13770   0.00000  Uiso   1.00
C335   C     0.30935   0.57686   0.17663   0.00000  Uiso   1.00
C336   C     0.37274   0.15700   0.06348   0.00000  Uiso   1.00
C337   C     0.34753   0.23633   0.99798   0.00000  Uiso   1.00
C338   C     0.31442   0.13872   0.94025   0.00000  Uiso   1.00
C339   C     0.29544   0.23633   0.88560   0.00000  Uiso   1.00
C340   C     0.42740   0.17794   0.10550   0.00000  Uiso   1.00
C341   C     0.46143   0.03123   0.13819   0.00000  Uiso   1.00
C342   C     0.50969   0.07966   0.17406   0.00000  Uiso   1.00
C343   C     0.36054   0.29442   0.09080   0.00000  Uiso   1.00
C344   C     0.33838   0.24564   0.11114   0.00000  Uiso   1.00
C345   C     0.33036   0.39214   0.13465   0.00000  Uiso   1.00
H346   H     0.40856   0.65057   0.07145   0.00000  Uiso   1.00
H347   H     0.35287   0.66832   0.94882   0.00000  Uiso   1.00
H348   H     0.49986   0.56084   0.14673   0.00000  Uiso   1.00
H349   H     0.37682   0.77522   0.11968   0.00000  Uiso   1.00
H350   H     0.28510   0.60488   0.81152   0.00000  Uiso   1.00
H351   H     0.59505   0.37827   0.22885   0.00000  Uiso   1.00
H352   H     0.33559   0.83034   0.17181   0.00000  Uiso   1.00
H353   H     0.36209   0.01030   0.06111   0.00000  Uiso   1.00
H354   H     0.30384   0.99292   0.93791   0.00000  Uiso   1.00
H355   H     0.45084   0.88545   0.13583   0.00000  Uiso   1.00
H356   H     0.32780   0.09982   0.10878   0.00000  Uiso   1.00
H357   H     0.24531   0.05670   0.80267   0.00000  Uiso   1.00
H358   H     0.55526   0.83010   0.22000   0.00000  Uiso   1.00
H359   H     0.29581   0.28216   0.16296   0.00000  Uiso   1.00
O360   O     0.22774   0.33088   0.72624   0.00000  Uiso   1.00
O361   O     0.63438   0.03360   0.27377   0.00000  Uiso   1.00
O362   O     0.29398   0.62669   0.19893   0.00000  Uiso   1.00
N363   N     0.28372   0.47826   0.82634   0.00000  Uiso   1.00
N364   N     0.57350   0.26640   0.21651   0.00000  Uiso   1.00
N365   N     0.33095   0.68903   0.16320   0.00000  Uiso   1.00
N366   N     0.26231   0.18329   0.82158   0.00000  Uiso   1.00
N367   N     0.55209   0.97143   0.21175   0.00000  Uiso   1.00
N368   N     0.30954   0.39406   0.15844   0.00000  Uiso   1.00
