data_job_02678
_audit_creation_date              2018-12-19
_audit_creation_method            'Materials Studio'
_symmetry_space_group_name_H-M    'P1'
_symmetry_Int_Tables_number       1
_symmetry_cell_setting            triclinic
loop_
_symmetry_equiv_pos_as_xyz
  x,y,z
_cell_length_a                    19.3592
_cell_length_b                    19.3592
_cell_length_c                    12.9951
_cell_angle_alpha                 90.0000
_cell_angle_beta                  90.0000
_cell_angle_gamma                 90.0000
loop_
_atom_site_label
_atom_site_type_symbol
_atom_site_fract_x
_atom_site_fract_y
_atom_site_fract_z
_atom_site_U_iso_or_equiv
_atom_site_adp_type
_atom_site_occupancy
C1     C     0.93770   0.74201   0.90261   0.00000  Uiso   1.00
C2     C     0.94160   0.78857   0.99708   0.00000  Uiso   1.00
C3     C     0.91013   0.85261   0.00739   0.00000  Uiso   1.00
C4     C     0.91994   0.88715   0.09988   0.00000  Uiso   1.00
C5     C     0.91996   0.96380   0.23449   0.00000  Uiso   1.00
C6     C     0.01221   0.72850   0.87030   0.00000  Uiso   1.00
C7     C     0.04011   0.74203   0.77401   0.00000  Uiso   1.00
C8     C     0.10936   0.72599   0.75977   0.00000  Uiso   1.00
C9     C     0.21899   0.70934   0.69753   0.00000  Uiso   1.00
C10    C     0.90958   0.67295   0.94044   0.00000  Uiso   1.00
C11    C     0.85119   0.63976   0.90310   0.00000  Uiso   1.00
C12    C     0.83403   0.57695   0.94790   0.00000  Uiso   1.00
C13    C     0.78431   0.47405   0.99456   0.00000  Uiso   1.00
C14    C     0.01107   0.68947   0.04853   0.00000  Uiso   1.00
C15    C     0.98145   0.76003   0.07634   0.00000  Uiso   1.00
C16    C     0.99131   0.79448   0.16884   0.00000  Uiso   1.00
C17    C     0.95986   0.85856   0.17928   0.00000  Uiso   1.00
C18    C     0.05207   0.69997   0.94955   0.00000  Uiso   1.00
C19    C     0.12129   0.68390   0.93545   0.00000  Uiso   1.00
C20    C     0.14928   0.69740   0.83917   0.00000  Uiso   1.00
C21    C     0.94943   0.64442   0.01970   0.00000  Uiso   1.00
C22    C     0.93236   0.58164   0.06455   0.00000  Uiso   1.00
C23    C     0.87396   0.54836   0.02729   0.00000  Uiso   1.00
H24    H     0.90668   0.76422   0.84090   0.00000  Uiso   1.00
H25    H     0.87930   0.87467   0.94603   0.00000  Uiso   1.00
H26    H     0.00926   0.76410   0.71268   0.00000  Uiso   1.00
H27    H     0.82036   0.66186   0.84177   0.00000  Uiso   1.00
H28    H     0.86655   0.98456   0.09753   0.00000  Uiso   1.00
H29    H     0.14056   0.75139   0.60549   0.00000  Uiso   1.00
H30    H     0.74224   0.53579   0.87768   0.00000  Uiso   1.00
H31    H     0.04210   0.66725   0.11024   0.00000  Uiso   1.00
H32    H     0.02215   0.77239   0.23016   0.00000  Uiso   1.00
H33    H     0.15211   0.66182   0.99680   0.00000  Uiso   1.00
H34    H     0.96321   0.55957   0.12588   0.00000  Uiso   1.00
H35    H     0.98249   0.90154   0.32813   0.00000  Uiso   1.00
H36    H     0.25650   0.66837   0.83609   0.00000  Uiso   1.00
H37    H     0.85818   0.45277   0.10828   0.00000  Uiso   1.00
O38    O     0.90897   0.01397   0.28685   0.00000  Uiso   1.00
O39    O     0.26846   0.70805   0.64130   0.00000  Uiso   1.00
O40    O     0.74587   0.42519   0.99841   0.00000  Uiso   1.00
N41    N     0.89656   0.95058   0.13535   0.00000  Uiso   1.00
N42    N     0.15275   0.73260   0.67533   0.00000  Uiso   1.00
N43    N     0.78036   0.53102   0.92978   0.00000  Uiso   1.00
N44    N     0.95895   0.90591   0.25944   0.00000  Uiso   1.00
N45    N     0.21514   0.68793   0.79942   0.00000  Uiso   1.00
N46    N     0.84275   0.48634   0.05387   0.00000  Uiso   1.00
C47    C     0.06230   0.25799   0.90261   0.00000  Uiso   1.00
C48    C     0.05840   0.21143   0.99708   0.00000  Uiso   1.00
C49    C     0.08987   0.14739   0.00739   0.00000  Uiso   1.00
C50    C     0.08006   0.11285   0.09988   0.00000  Uiso   1.00
C51    C     0.08004   0.03620   0.23449   0.00000  Uiso   1.00
C52    C     0.98779   0.27150   0.87030   0.00000  Uiso   1.00
C53    C     0.95989   0.25797   0.77401   0.00000  Uiso   1.00
C54    C     0.89064   0.27401   0.75977   0.00000  Uiso   1.00
C55    C     0.78101   0.29066   0.69753   0.00000  Uiso   1.00
C56    C     0.09042   0.32705   0.94044   0.00000  Uiso   1.00
C57    C     0.14881   0.36024   0.90310   0.00000  Uiso   1.00
C58    C     0.16597   0.42305   0.94790   0.00000  Uiso   1.00
C59    C     0.21569   0.52595   0.99456   0.00000  Uiso   1.00
C60    C     0.98893   0.31053   0.04853   0.00000  Uiso   1.00
C61    C     0.01855   0.23997   0.07634   0.00000  Uiso   1.00
C62    C     0.00869   0.20552   0.16884   0.00000  Uiso   1.00
C63    C     0.04014   0.14144   0.17928   0.00000  Uiso   1.00
C64    C     0.94793   0.30003   0.94955   0.00000  Uiso   1.00
C65    C     0.87871   0.31610   0.93545   0.00000  Uiso   1.00
C66    C     0.85072   0.30260   0.83917   0.00000  Uiso   1.00
C67    C     0.05057   0.35558   0.01970   0.00000  Uiso   1.00
C68    C     0.06764   0.41836   0.06455   0.00000  Uiso   1.00
C69    C     0.12604   0.45164   0.02729   0.00000  Uiso   1.00
H70    H     0.09332   0.23578   0.84090   0.00000  Uiso   1.00
H71    H     0.12070   0.12533   0.94603   0.00000  Uiso   1.00
H72    H     0.99074   0.23590   0.71268   0.00000  Uiso   1.00
H73    H     0.17964   0.33814   0.84177   0.00000  Uiso   1.00
H74    H     0.13345   0.01544   0.09753   0.00000  Uiso   1.00
H75    H     0.85944   0.24861   0.60549   0.00000  Uiso   1.00
H76    H     0.25776   0.46421   0.87768   0.00000  Uiso   1.00
H77    H     0.95790   0.33275   0.11024   0.00000  Uiso   1.00
H78    H     0.97785   0.22761   0.23016   0.00000  Uiso   1.00
H79    H     0.84789   0.33818   0.99680   0.00000  Uiso   1.00
H80    H     0.03679   0.44043   0.12588   0.00000  Uiso   1.00
H81    H     0.01751   0.09846   0.32813   0.00000  Uiso   1.00
H82    H     0.74350   0.33163   0.83609   0.00000  Uiso   1.00
H83    H     0.14182   0.54723   0.10828   0.00000  Uiso   1.00
O84    O     0.09103   0.98603   0.28685   0.00000  Uiso   1.00
O85    O     0.73154   0.29195   0.64130   0.00000  Uiso   1.00
O86    O     0.25413   0.57481   0.99841   0.00000  Uiso   1.00
N87    N     0.10344   0.04942   0.13535   0.00000  Uiso   1.00
N88    N     0.84725   0.26740   0.67533   0.00000  Uiso   1.00
N89    N     0.21964   0.46898   0.92978   0.00000  Uiso   1.00
N90    N     0.04105   0.09409   0.25944   0.00000  Uiso   1.00
N91    N     0.78486   0.31207   0.79942   0.00000  Uiso   1.00
N92    N     0.15725   0.51366   0.05387   0.00000  Uiso   1.00
C93    C     0.74201   0.06230   0.09739   0.00000  Uiso   1.00
C94    C     0.78857   0.05840   0.00292   0.00000  Uiso   1.00
C95    C     0.85261   0.08987   0.99261   0.00000  Uiso   1.00
C96    C     0.88715   0.08006   0.90012   0.00000  Uiso   1.00
C97    C     0.96380   0.08004   0.76551   0.00000  Uiso   1.00
C98    C     0.72850   0.98779   0.12970   0.00000  Uiso   1.00
C99    C     0.74203   0.95989   0.22599   0.00000  Uiso   1.00
C100   C     0.72599   0.89064   0.24023   0.00000  Uiso   1.00
C101   C     0.70934   0.78101   0.30247   0.00000  Uiso   1.00
C102   C     0.67295   0.09042   0.05956   0.00000  Uiso   1.00
C103   C     0.63976   0.14881   0.09690   0.00000  Uiso   1.00
C104   C     0.57695   0.16597   0.05210   0.00000  Uiso   1.00
C105   C     0.47405   0.21569   0.00544   0.00000  Uiso   1.00
C106   C     0.68947   0.98893   0.95147   0.00000  Uiso   1.00
C107   C     0.76003   0.01855   0.92366   0.00000  Uiso   1.00
C108   C     0.79448   0.00869   0.83116   0.00000  Uiso   1.00
C109   C     0.85856   0.04014   0.82072   0.00000  Uiso   1.00
C110   C     0.69997   0.94793   0.05045   0.00000  Uiso   1.00
C111   C     0.68390   0.87871   0.06455   0.00000  Uiso   1.00
C112   C     0.69740   0.85072   0.16083   0.00000  Uiso   1.00
C113   C     0.64442   0.05057   0.98030   0.00000  Uiso   1.00
C114   C     0.58164   0.06764   0.93545   0.00000  Uiso   1.00
C115   C     0.54836   0.12604   0.97271   0.00000  Uiso   1.00
H116   H     0.76422   0.09332   0.15910   0.00000  Uiso   1.00
H117   H     0.87467   0.12070   0.05397   0.00000  Uiso   1.00
H118   H     0.76410   0.99074   0.28732   0.00000  Uiso   1.00
H119   H     0.66186   0.17964   0.15823   0.00000  Uiso   1.00
H120   H     0.98456   0.13345   0.90247   0.00000  Uiso   1.00
H121   H     0.75139   0.85944   0.39451   0.00000  Uiso   1.00
H122   H     0.53579   0.25776   0.12232   0.00000  Uiso   1.00
H123   H     0.66725   0.95790   0.88976   0.00000  Uiso   1.00
H124   H     0.77239   0.97785   0.76984   0.00000  Uiso   1.00
H125   H     0.66182   0.84789   0.00320   0.00000  Uiso   1.00
H126   H     0.55957   0.03679   0.87412   0.00000  Uiso   1.00
H127   H     0.90154   0.01751   0.67187   0.00000  Uiso   1.00
H128   H     0.66837   0.74350   0.16391   0.00000  Uiso   1.00
H129   H     0.45277   0.14182   0.89172   0.00000  Uiso   1.00
O130   O     0.01397   0.09103   0.71315   0.00000  Uiso   1.00
O131   O     0.70805   0.73154   0.35870   0.00000  Uiso   1.00
O132   O     0.42519   0.25413   0.00159   0.00000  Uiso   1.00
N133   N     0.95058   0.10344   0.86465   0.00000  Uiso   1.00
N134   N     0.73260   0.84725   0.32467   0.00000  Uiso   1.00
N135   N     0.53102   0.21964   0.07022   0.00000  Uiso   1.00
N136   N     0.90591   0.04105   0.74056   0.00000  Uiso   1.00
N137   N     0.68793   0.78486   0.20058   0.00000  Uiso   1.00
N138   N     0.48634   0.15725   0.94613   0.00000  Uiso   1.00
C139   C     0.25799   0.93770   0.09739   0.00000  Uiso   1.00
C140   C     0.21143   0.94160   0.00292   0.00000  Uiso   1.00
C141   C     0.14739   0.91013   0.99261   0.00000  Uiso   1.00
C142   C     0.11285   0.91994   0.90012   0.00000  Uiso   1.00
C143   C     0.03620   0.91996   0.76551   0.00000  Uiso   1.00
C144   C     0.27150   0.01221   0.12970   0.00000  Uiso   1.00
C145   C     0.25797   0.04011   0.22599   0.00000  Uiso   1.00
C146   C     0.27401   0.10936   0.24023   0.00000  Uiso   1.00
C147   C     0.29066   0.21899   0.30247   0.00000  Uiso   1.00
C148   C     0.32705   0.90958   0.05956   0.00000  Uiso   1.00
C149   C     0.36024   0.85119   0.09690   0.00000  Uiso   1.00
C150   C     0.42305   0.83403   0.05210   0.00000  Uiso   1.00
C151   C     0.52595   0.78431   0.00544   0.00000  Uiso   1.00
C152   C     0.31053   0.01107   0.95147   0.00000  Uiso   1.00
C153   C     0.23997   0.98145   0.92366   0.00000  Uiso   1.00
C154   C     0.20552   0.99131   0.83116   0.00000  Uiso   1.00
C155   C     0.14144   0.95986   0.82072   0.00000  Uiso   1.00
C156   C     0.30003   0.05207   0.05045   0.00000  Uiso   1.00
C157   C     0.31610   0.12129   0.06455   0.00000  Uiso   1.00
C158   C     0.30260   0.14928   0.16083   0.00000  Uiso   1.00
C159   C     0.35558   0.94943   0.98030   0.00000  Uiso   1.00
C160   C     0.41836   0.93236   0.93545   0.00000  Uiso   1.00
C161   C     0.45164   0.87396   0.97271   0.00000  Uiso   1.00
H162   H     0.23578   0.90668   0.15910   0.00000  Uiso   1.00
H163   H     0.12533   0.87930   0.05397   0.00000  Uiso   1.00
H164   H     0.23590   0.00926   0.28732   0.00000  Uiso   1.00
H165   H     0.33814   0.82036   0.15823   0.00000  Uiso   1.00
H166   H     0.01544   0.86655   0.90247   0.00000  Uiso   1.00
H167   H     0.24861   0.14056   0.39451   0.00000  Uiso   1.00
H168   H     0.46421   0.74224   0.12232   0.00000  Uiso   1.00
H169   H     0.33275   0.04210   0.88976   0.00000  Uiso   1.00
H170   H     0.22761   0.02215   0.76984   0.00000  Uiso   1.00
H171   H     0.33818   0.15211   0.00320   0.00000  Uiso   1.00
H172   H     0.44043   0.96321   0.87412   0.00000  Uiso   1.00
H173   H     0.09846   0.98249   0.67187   0.00000  Uiso   1.00
H174   H     0.33163   0.25650   0.16391   0.00000  Uiso   1.00
H175   H     0.54723   0.85818   0.89172   0.00000  Uiso   1.00
O176   O     0.98603   0.90897   0.71315   0.00000  Uiso   1.00
O177   O     0.29195   0.26846   0.35870   0.00000  Uiso   1.00
O178   O     0.57481   0.74587   0.00159   0.00000  Uiso   1.00
N179   N     0.04942   0.89656   0.86465   0.00000  Uiso   1.00
N180   N     0.26740   0.15275   0.32467   0.00000  Uiso   1.00
N181   N     0.46898   0.78036   0.07022   0.00000  Uiso   1.00
N182   N     0.09409   0.95895   0.74056   0.00000  Uiso   1.00
N183   N     0.31207   0.21514   0.20058   0.00000  Uiso   1.00
N184   N     0.51366   0.84275   0.94613   0.00000  Uiso   1.00
C185   C     0.56230   0.24201   0.59739   0.00000  Uiso   1.00
C186   C     0.55840   0.28857   0.50292   0.00000  Uiso   1.00
C187   C     0.58987   0.35261   0.49261   0.00000  Uiso   1.00
C188   C     0.58006   0.38715   0.40012   0.00000  Uiso   1.00
C189   C     0.58004   0.46380   0.26551   0.00000  Uiso   1.00
C190   C     0.48779   0.22850   0.62970   0.00000  Uiso   1.00
C191   C     0.45989   0.24203   0.72599   0.00000  Uiso   1.00
C192   C     0.39064   0.22599   0.74023   0.00000  Uiso   1.00
C193   C     0.28101   0.20934   0.80247   0.00000  Uiso   1.00
C194   C     0.59042   0.17295   0.55956   0.00000  Uiso   1.00
C195   C     0.64881   0.13976   0.59690   0.00000  Uiso   1.00
C196   C     0.66597   0.07695   0.55210   0.00000  Uiso   1.00
C197   C     0.71569   0.97405   0.50544   0.00000  Uiso   1.00
C198   C     0.48893   0.18947   0.45147   0.00000  Uiso   1.00
C199   C     0.51855   0.26003   0.42366   0.00000  Uiso   1.00
C200   C     0.50869   0.29448   0.33116   0.00000  Uiso   1.00
C201   C     0.54014   0.35856   0.32072   0.00000  Uiso   1.00
C202   C     0.44793   0.19997   0.55045   0.00000  Uiso   1.00
C203   C     0.37871   0.18390   0.56455   0.00000  Uiso   1.00
C204   C     0.35072   0.19740   0.66083   0.00000  Uiso   1.00
C205   C     0.55057   0.14442   0.48030   0.00000  Uiso   1.00
C206   C     0.56764   0.08164   0.43545   0.00000  Uiso   1.00
C207   C     0.62604   0.04836   0.47271   0.00000  Uiso   1.00
H208   H     0.59332   0.26422   0.65910   0.00000  Uiso   1.00
H209   H     0.62070   0.37467   0.55397   0.00000  Uiso   1.00
H210   H     0.49074   0.26410   0.78732   0.00000  Uiso   1.00
H211   H     0.67964   0.16186   0.65823   0.00000  Uiso   1.00
H212   H     0.63345   0.48456   0.40247   0.00000  Uiso   1.00
H213   H     0.35944   0.25139   0.89451   0.00000  Uiso   1.00
H214   H     0.75776   0.03579   0.62232   0.00000  Uiso   1.00
H215   H     0.45790   0.16725   0.38976   0.00000  Uiso   1.00
H216   H     0.47785   0.27239   0.26984   0.00000  Uiso   1.00
H217   H     0.34789   0.16182   0.50320   0.00000  Uiso   1.00
H218   H     0.53679   0.05957   0.37412   0.00000  Uiso   1.00
H219   H     0.51751   0.40154   0.17187   0.00000  Uiso   1.00
H220   H     0.24350   0.16837   0.66391   0.00000  Uiso   1.00
H221   H     0.64182   0.95277   0.39172   0.00000  Uiso   1.00
O222   O     0.59103   0.51397   0.21315   0.00000  Uiso   1.00
O223   O     0.23154   0.20805   0.85870   0.00000  Uiso   1.00
O224   O     0.75413   0.92519   0.50159   0.00000  Uiso   1.00
N225   N     0.60344   0.45058   0.36465   0.00000  Uiso   1.00
N226   N     0.34725   0.23260   0.82467   0.00000  Uiso   1.00
N227   N     0.71964   0.03102   0.57022   0.00000  Uiso   1.00
N228   N     0.54105   0.40591   0.24056   0.00000  Uiso   1.00
N229   N     0.28486   0.18793   0.70058   0.00000  Uiso   1.00
N230   N     0.65725   0.98634   0.44613   0.00000  Uiso   1.00
C231   C     0.43770   0.75799   0.59739   0.00000  Uiso   1.00
C232   C     0.44160   0.71143   0.50292   0.00000  Uiso   1.00
C233   C     0.41013   0.64739   0.49261   0.00000  Uiso   1.00
C234   C     0.41994   0.61285   0.40012   0.00000  Uiso   1.00
C235   C     0.41996   0.53620   0.26551   0.00000  Uiso   1.00
C236   C     0.51221   0.77150   0.62970   0.00000  Uiso   1.00
C237   C     0.54011   0.75797   0.72599   0.00000  Uiso   1.00
C238   C     0.60936   0.77401   0.74023   0.00000  Uiso   1.00
C239   C     0.71899   0.79066   0.80247   0.00000  Uiso   1.00
C240   C     0.40958   0.82705   0.55956   0.00000  Uiso   1.00
C241   C     0.35119   0.86024   0.59690   0.00000  Uiso   1.00
C242   C     0.33403   0.92305   0.55210   0.00000  Uiso   1.00
C243   C     0.28431   0.02595   0.50544   0.00000  Uiso   1.00
C244   C     0.51107   0.81053   0.45147   0.00000  Uiso   1.00
C245   C     0.48145   0.73997   0.42366   0.00000  Uiso   1.00
C246   C     0.49131   0.70552   0.33116   0.00000  Uiso   1.00
C247   C     0.45986   0.64144   0.32072   0.00000  Uiso   1.00
C248   C     0.55207   0.80003   0.55045   0.00000  Uiso   1.00
C249   C     0.62129   0.81610   0.56455   0.00000  Uiso   1.00
C250   C     0.64928   0.80260   0.66083   0.00000  Uiso   1.00
C251   C     0.44943   0.85558   0.48030   0.00000  Uiso   1.00
C252   C     0.43236   0.91836   0.43545   0.00000  Uiso   1.00
C253   C     0.37396   0.95164   0.47271   0.00000  Uiso   1.00
H254   H     0.40668   0.73578   0.65910   0.00000  Uiso   1.00
H255   H     0.37930   0.62533   0.55397   0.00000  Uiso   1.00
H256   H     0.50926   0.73590   0.78732   0.00000  Uiso   1.00
H257   H     0.32036   0.83814   0.65823   0.00000  Uiso   1.00
H258   H     0.36655   0.51544   0.40247   0.00000  Uiso   1.00
H259   H     0.64056   0.74861   0.89451   0.00000  Uiso   1.00
H260   H     0.24224   0.96421   0.62232   0.00000  Uiso   1.00
H261   H     0.54210   0.83275   0.38976   0.00000  Uiso   1.00
H262   H     0.52215   0.72761   0.26984   0.00000  Uiso   1.00
H263   H     0.65211   0.83818   0.50320   0.00000  Uiso   1.00
H264   H     0.46321   0.94043   0.37412   0.00000  Uiso   1.00
H265   H     0.48249   0.59846   0.17187   0.00000  Uiso   1.00
H266   H     0.75650   0.83163   0.66391   0.00000  Uiso   1.00
H267   H     0.35818   0.04723   0.39172   0.00000  Uiso   1.00
O268   O     0.40897   0.48603   0.21315   0.00000  Uiso   1.00
O269   O     0.76846   0.79195   0.85870   0.00000  Uiso   1.00
O270   O     0.24587   0.07481   0.50159   0.00000  Uiso   1.00
N271   N     0.39656   0.54942   0.36465   0.00000  Uiso   1.00
N272   N     0.65275   0.76740   0.82467   0.00000  Uiso   1.00
N273   N     0.28036   0.96898   0.57022   0.00000  Uiso   1.00
N274   N     0.45895   0.59409   0.24056   0.00000  Uiso   1.00
N275   N     0.71514   0.81207   0.70058   0.00000  Uiso   1.00
N276   N     0.34275   0.01366   0.44613   0.00000  Uiso   1.00
C277   C     0.75799   0.56230   0.40261   0.00000  Uiso   1.00
C278   C     0.71143   0.55840   0.49708   0.00000  Uiso   1.00
C279   C     0.64739   0.58987   0.50739   0.00000  Uiso   1.00
C280   C     0.61285   0.58006   0.59988   0.00000  Uiso   1.00
C281   C     0.53620   0.58004   0.73449   0.00000  Uiso   1.00
C282   C     0.77150   0.48779   0.37030   0.00000  Uiso   1.00
C283   C     0.75797   0.45989   0.27401   0.00000  Uiso   1.00
C284   C     0.77401   0.39064   0.25977   0.00000  Uiso   1.00
C285   C     0.79066   0.28101   0.19753   0.00000  Uiso   1.00
C286   C     0.82705   0.59042   0.44044   0.00000  Uiso   1.00
C287   C     0.86024   0.64881   0.40310   0.00000  Uiso   1.00
C288   C     0.92305   0.66597   0.44790   0.00000  Uiso   1.00
C289   C     0.02595   0.71569   0.49456   0.00000  Uiso   1.00
C290   C     0.81053   0.48893   0.54853   0.00000  Uiso   1.00
C291   C     0.73997   0.51855   0.57634   0.00000  Uiso   1.00
C292   C     0.70552   0.50869   0.66884   0.00000  Uiso   1.00
C293   C     0.64144   0.54014   0.67928   0.00000  Uiso   1.00
C294   C     0.80003   0.44793   0.44955   0.00000  Uiso   1.00
C295   C     0.81610   0.37871   0.43545   0.00000  Uiso   1.00
C296   C     0.80260   0.35072   0.33917   0.00000  Uiso   1.00
C297   C     0.85558   0.55057   0.51970   0.00000  Uiso   1.00
C298   C     0.91836   0.56764   0.56455   0.00000  Uiso   1.00
C299   C     0.95164   0.62604   0.52729   0.00000  Uiso   1.00
H300   H     0.73578   0.59332   0.34090   0.00000  Uiso   1.00
H301   H     0.62533   0.62070   0.44603   0.00000  Uiso   1.00
H302   H     0.73590   0.49074   0.21268   0.00000  Uiso   1.00
H303   H     0.83814   0.67964   0.34177   0.00000  Uiso   1.00
H304   H     0.51544   0.63345   0.59753   0.00000  Uiso   1.00
H305   H     0.74861   0.35944   0.10549   0.00000  Uiso   1.00
H306   H     0.96421   0.75776   0.37768   0.00000  Uiso   1.00
H307   H     0.83275   0.45790   0.61024   0.00000  Uiso   1.00
H308   H     0.72761   0.47785   0.73016   0.00000  Uiso   1.00
H309   H     0.83818   0.34789   0.49680   0.00000  Uiso   1.00
H310   H     0.94043   0.53679   0.62588   0.00000  Uiso   1.00
H311   H     0.59846   0.51751   0.82813   0.00000  Uiso   1.00
H312   H     0.83163   0.24350   0.33609   0.00000  Uiso   1.00
H313   H     0.04723   0.64182   0.60828   0.00000  Uiso   1.00
O314   O     0.48603   0.59103   0.78685   0.00000  Uiso   1.00
O315   O     0.79195   0.23154   0.14130   0.00000  Uiso   1.00
O316   O     0.07481   0.75413   0.49841   0.00000  Uiso   1.00
N317   N     0.54942   0.60344   0.63535   0.00000  Uiso   1.00
N318   N     0.76740   0.34725   0.17533   0.00000  Uiso   1.00
N319   N     0.96898   0.71964   0.42978   0.00000  Uiso   1.00
N320   N     0.59409   0.54105   0.75944   0.00000  Uiso   1.00
N321   N     0.81207   0.28486   0.29942   0.00000  Uiso   1.00
N322   N     0.01366   0.65725   0.55387   0.00000  Uiso   1.00
C323   C     0.24201   0.43770   0.40261   0.00000  Uiso   1.00
C324   C     0.28857   0.44160   0.49708   0.00000  Uiso   1.00
C325   C     0.35261   0.41013   0.50739   0.00000  Uiso   1.00
C326   C     0.38715   0.41994   0.59988   0.00000  Uiso   1.00
C327   C     0.46380   0.41996   0.73449   0.00000  Uiso   1.00
C328   C     0.22850   0.51221   0.37030   0.00000  Uiso   1.00
C329   C     0.24203   0.54011   0.27401   0.00000  Uiso   1.00
C330   C     0.22599   0.60936   0.25977   0.00000  Uiso   1.00
C331   C     0.20934   0.71899   0.19753   0.00000  Uiso   1.00
C332   C     0.17295   0.40958   0.44044   0.00000  Uiso   1.00
C333   C     0.13976   0.35119   0.40310   0.00000  Uiso   1.00
C334   C     0.07695   0.33403   0.44790   0.00000  Uiso   1.00
C335   C     0.97405   0.28431   0.49456   0.00000  Uiso   1.00
C336   C     0.18947   0.51107   0.54853   0.00000  Uiso   1.00
C337   C     0.26003   0.48145   0.57634   0.00000  Uiso   1.00
C338   C     0.29448   0.49131   0.66884   0.00000  Uiso   1.00
C339   C     0.35856   0.45986   0.67928   0.00000  Uiso   1.00
C340   C     0.19997   0.55207   0.44955   0.00000  Uiso   1.00
C341   C     0.18390   0.62129   0.43545   0.00000  Uiso   1.00
C342   C     0.19740   0.64928   0.33917   0.00000  Uiso   1.00
C343   C     0.14442   0.44943   0.51970   0.00000  Uiso   1.00
C344   C     0.08164   0.43236   0.56455   0.00000  Uiso   1.00
C345   C     0.04836   0.37396   0.52729   0.00000  Uiso   1.00
H346   H     0.26422   0.40668   0.34090   0.00000  Uiso   1.00
H347   H     0.37467   0.37930   0.44603   0.00000  Uiso   1.00
H348   H     0.26410   0.50926   0.21268   0.00000  Uiso   1.00
H349   H     0.16186   0.32036   0.34177   0.00000  Uiso   1.00
H350   H     0.48456   0.36655   0.59753   0.00000  Uiso   1.00
H351   H     0.25139   0.64056   0.10549   0.00000  Uiso   1.00
H352   H     0.03579   0.24224   0.37768   0.00000  Uiso   1.00
H353   H     0.16725   0.54210   0.61024   0.00000  Uiso   1.00
H354   H     0.27239   0.52215   0.73016   0.00000  Uiso   1.00
H355   H     0.16182   0.65211   0.49680   0.00000  Uiso   1.00
H356   H     0.05957   0.46321   0.62588   0.00000  Uiso   1.00
H357   H     0.40154   0.48249   0.82813   0.00000  Uiso   1.00
H358   H     0.16837   0.75650   0.33609   0.00000  Uiso   1.00
H359   H     0.95277   0.35818   0.60828   0.00000  Uiso   1.00
O360   O     0.51397   0.40897   0.78685   0.00000  Uiso   1.00
O361   O     0.20805   0.76846   0.14130   0.00000  Uiso   1.00
O362   O     0.92519   0.24587   0.49841   0.00000  Uiso   1.00
N363   N     0.45058   0.39656   0.63535   0.00000  Uiso   1.00
N364   N     0.23260   0.65275   0.17533   0.00000  Uiso   1.00
N365   N     0.03102   0.28036   0.42978   0.00000  Uiso   1.00
N366   N     0.40591   0.45895   0.75944   0.00000  Uiso   1.00
N367   N     0.18793   0.71514   0.29942   0.00000  Uiso   1.00
N368   N     0.98634   0.34275   0.55387   0.00000  Uiso   1.00
