data_job_06294
_audit_creation_date              2018-12-19
_audit_creation_method            'Materials Studio'
_symmetry_space_group_name_H-M    'P1'
_symmetry_Int_Tables_number       1
_symmetry_cell_setting            triclinic
loop_
_symmetry_equiv_pos_as_xyz
  x,y,z
_cell_length_a                    15.3832
_cell_length_b                    15.1335
_cell_length_c                    14.6096
_cell_angle_alpha                 91.6961
_cell_angle_beta                  91.8598
_cell_angle_gamma                 91.2585
loop_
_atom_site_label
_atom_site_type_symbol
_atom_site_fract_x
_atom_site_fract_y
_atom_site_fract_z
_atom_site_U_iso_or_equiv
_atom_site_adp_type
_atom_site_occupancy
C1     C     0.45804   0.80690   0.64552   0.00000  Uiso   1.00
C2     C     0.50144   0.86811   0.71906   0.00000  Uiso   1.00
C3     C     0.59017   0.88535   0.73044   0.00000  Uiso   1.00
C4     C     0.61692   0.94328   0.80182   0.00000  Uiso   1.00
C5     C     0.69343   0.03231   0.90724   0.00000  Uiso   1.00
C6     C     0.40463   0.73919   0.69641   0.00000  Uiso   1.00
C7     C     0.41196   0.64806   0.68872   0.00000  Uiso   1.00
C8     C     0.35720   0.59747   0.74103   0.00000  Uiso   1.00
C9     C     0.28336   0.48636   0.81123   0.00000  Uiso   1.00
C10    C     0.39247   0.86288   0.59411   0.00000  Uiso   1.00
C11    C     0.38955   0.87572   0.50041   0.00000  Uiso   1.00
C12    C     0.32454   0.92925   0.46658   0.00000  Uiso   1.00
C13    C     0.23182   0.01019   0.37794   0.00000  Uiso   1.00
C14    C     0.34775   0.87911   0.75207   0.00000  Uiso   1.00
C15    C     0.44154   0.90732   0.77694   0.00000  Uiso   1.00
C16    C     0.46815   0.96524   0.84832   0.00000  Uiso   1.00
C17    C     0.55691   0.98257   0.85980   0.00000  Uiso   1.00
C18    C     0.34473   0.77841   0.75428   0.00000  Uiso   1.00
C19    C     0.28994   0.72795   0.80661   0.00000  Uiso   1.00
C20    C     0.29719   0.63676   0.79901   0.00000  Uiso   1.00
C21    C     0.33257   0.90210   0.65198   0.00000  Uiso   1.00
C22    C     0.26754   0.95562   0.61829   0.00000  Uiso   1.00
C23    C     0.26453   0.96854   0.52456   0.00000  Uiso   1.00
H24    H     0.50467   0.77636   0.60046   0.00000  Uiso   1.00
H25    H     0.63651   0.85498   0.68564   0.00000  Uiso   1.00
H26    H     0.45831   0.61772   0.64393   0.00000  Uiso   1.00
H27    H     0.43592   0.84536   0.45564   0.00000  Uiso   1.00
H28    H     0.75626   0.95941   0.80561   0.00000  Uiso   1.00
H29    H     0.38051   0.45915   0.71764   0.00000  Uiso   1.00
H30    H     0.33328   0.93915   0.32060   0.00000  Uiso   1.00
H31    H     0.30111   0.90964   0.79713   0.00000  Uiso   1.00
H32    H     0.42178   0.99558   0.89310   0.00000  Uiso   1.00
H33    H     0.24359   0.75832   0.85138   0.00000  Uiso   1.00
H34    H     0.22120   0.98596   0.66310   0.00000  Uiso   1.00
H35    H     0.58198   0.07353   0.97400   0.00000  Uiso   1.00
H36    H     0.20623   0.57326   0.88602   0.00000  Uiso   1.00
H37    H     0.15900   0.05327   0.48898   0.00000  Uiso   1.00
O38    O     0.75217   0.07058   0.94940   0.00000  Uiso   1.00
O39    O     0.25920   0.41424   0.83397   0.00000  Uiso   1.00
O40    O     0.19723   0.04400   0.31307   0.00000  Uiso   1.00
N41    N     0.69868   0.97449   0.83206   0.00000  Uiso   1.00
N42    N     0.34739   0.50677   0.74982   0.00000  Uiso   1.00
N43    N     0.30321   0.95552   0.37862   0.00000  Uiso   1.00
N44    N     0.60490   0.03590   0.92266   0.00000  Uiso   1.00
N45    N     0.25361   0.56817   0.84042   0.00000  Uiso   1.00
N46    N     0.20944   0.01692   0.46922   0.00000  Uiso   1.00
C47    C     0.64971   0.45902   0.80427   0.00000  Uiso   1.00
C48    C     0.71896   0.50318   0.86838   0.00000  Uiso   1.00
C49    C     0.72891   0.59339   0.88678   0.00000  Uiso   1.00
C50    C     0.79626   0.62062   0.94739   0.00000  Uiso   1.00
C51    C     0.89538   0.69846   0.04071   0.00000  Uiso   1.00
C52    C     0.69878   0.40452   0.73419   0.00000  Uiso   1.00
C53    C     0.69175   0.41177   0.63978   0.00000  Uiso   1.00
C54    C     0.74211   0.35594   0.58744   0.00000  Uiso   1.00
C55    C     0.80986   0.28056   0.47244   0.00000  Uiso   1.00
C56    C     0.60126   0.39256   0.86156   0.00000  Uiso   1.00
C57    C     0.51223   0.38974   0.87423   0.00000  Uiso   1.00
C58    C     0.48048   0.32383   0.92911   0.00000  Uiso   1.00
C59    C     0.39681   0.22988   0.01187   0.00000  Uiso   1.00
C60    C     0.75164   0.34696   0.87919   0.00000  Uiso   1.00
C61    C     0.77432   0.44231   0.90907   0.00000  Uiso   1.00
C62    C     0.84167   0.46941   0.96968   0.00000  Uiso   1.00
C63    C     0.85172   0.55965   0.98817   0.00000  Uiso   1.00
C64    C     0.75414   0.34366   0.77489   0.00000  Uiso   1.00
C65    C     0.80452   0.28779   0.72268   0.00000  Uiso   1.00
C66    C     0.79757   0.29496   0.62821   0.00000  Uiso   1.00
C67    C     0.65662   0.33170   0.90226   0.00000  Uiso   1.00
C68    C     0.62500   0.26577   0.95713   0.00000  Uiso   1.00
C69    C     0.53594   0.26285   0.96987   0.00000  Uiso   1.00
H70    H     0.60662   0.50640   0.77258   0.00000  Uiso   1.00
H71    H     0.68605   0.64047   0.85526   0.00000  Uiso   1.00
H72    H     0.64890   0.45887   0.60831   0.00000  Uiso   1.00
H73    H     0.46941   0.43685   0.84272   0.00000  Uiso   1.00
H74    H     0.79856   0.76228   0.96486   0.00000  Uiso   1.00
H75    H     0.72020   0.37935   0.44414   0.00000  Uiso   1.00
H76    H     0.34170   0.33291   0.93844   0.00000  Uiso   1.00
H77    H     0.79474   0.29957   0.91087   0.00000  Uiso   1.00
H78    H     0.88450   0.42230   0.00116   0.00000  Uiso   1.00
H79    H     0.84735   0.24070   0.75419   0.00000  Uiso   1.00
H80    H     0.66786   0.21868   0.98861   0.00000  Uiso   1.00
H81    H     0.95963   0.58520   0.08327   0.00000  Uiso   1.00
H82    H     0.88126   0.20226   0.56254   0.00000  Uiso   1.00
H83    H     0.50277   0.15582   0.05685   0.00000  Uiso   1.00
O84    O     0.93477   0.75820   0.08093   0.00000  Uiso   1.00
O85    O     0.83194   0.25580   0.39776   0.00000  Uiso   1.00
O86    O     0.33537   0.19488   0.04628   0.00000  Uiso   1.00
N87    N     0.82414   0.70376   0.98035   0.00000  Uiso   1.00
N88    N     0.75088   0.34575   0.49350   0.00000  Uiso   1.00
N89    N     0.39702   0.30232   0.95562   0.00000  Uiso   1.00
N90    N     0.91081   0.60847   0.04407   0.00000  Uiso   1.00
N91    N     0.83755   0.25046   0.55722   0.00000  Uiso   1.00
N92    N     0.48369   0.20703   0.01933   0.00000  Uiso   1.00
C93    C     0.80813   0.64848   0.46052   0.00000  Uiso   1.00
C94    C     0.86824   0.71888   0.50705   0.00000  Uiso   1.00
C95    C     0.88530   0.72917   0.60066   0.00000  Uiso   1.00
C96    C     0.94217   0.79762   0.62962   0.00000  Uiso   1.00
C97    C     0.02964   0.89843   0.71138   0.00000  Uiso   1.00
C98    C     0.74133   0.69831   0.40386   0.00000  Uiso   1.00
C99    C     0.65169   0.69130   0.41070   0.00000  Uiso   1.00
C100   C     0.60173   0.74242   0.35279   0.00000  Uiso   1.00
C101   C     0.49217   0.81125   0.27430   0.00000  Uiso   1.00
C102   C     0.86323   0.59901   0.39181   0.00000  Uiso   1.00
C103   C     0.87606   0.50850   0.38850   0.00000  Uiso   1.00
C104   C     0.92872   0.47601   0.32043   0.00000  Uiso   1.00
C105   C     0.00842   0.39066   0.22323   0.00000  Uiso   1.00
C106   C     0.87880   0.75173   0.34548   0.00000  Uiso   1.00
C107   C     0.90663   0.77496   0.44456   0.00000  Uiso   1.00
C108   C     0.96350   0.84340   0.47338   0.00000  Uiso   1.00
C109   C     0.98064   0.85379   0.56702   0.00000  Uiso   1.00
C110   C     0.77972   0.75439   0.34137   0.00000  Uiso   1.00
C111   C     0.72989   0.80553   0.28343   0.00000  Uiso   1.00
C112   C     0.64019   0.79860   0.29019   0.00000  Uiso   1.00
C113   C     0.90162   0.65509   0.32932   0.00000  Uiso   1.00
C114   C     0.95426   0.62273   0.26123   0.00000  Uiso   1.00
C115   C     0.96718   0.53219   0.25783   0.00000  Uiso   1.00
H116   H     0.77823   0.60482   0.50916   0.00000  Uiso   1.00
H117   H     0.85557   0.68576   0.64900   0.00000  Uiso   1.00
H118   H     0.62200   0.64789   0.45906   0.00000  Uiso   1.00
H119   H     0.84634   0.46512   0.43687   0.00000  Uiso   1.00
H120   H     0.95822   0.80025   0.77648   0.00000  Uiso   1.00
H121   H     0.46572   0.72037   0.37597   0.00000  Uiso   1.00
H122   H     0.93879   0.33497   0.32917   0.00000  Uiso   1.00
H123   H     0.90869   0.79539   0.29683   0.00000  Uiso   1.00
H124   H     0.99319   0.88679   0.42501   0.00000  Uiso   1.00
H125   H     0.75962   0.84892   0.23508   0.00000  Uiso   1.00
H126   H     0.98396   0.66615   0.21289   0.00000  Uiso   1.00
H127   H     0.06991   0.96342   0.59469   0.00000  Uiso   1.00
H128   H     0.57741   0.88354   0.19417   0.00000  Uiso   1.00
H129   H     0.05048   0.49814   0.14738   0.00000  Uiso   1.00
O130   O     0.06728   0.93854   0.77374   0.00000  Uiso   1.00
O131   O     0.42114   0.83373   0.24827   0.00000  Uiso   1.00
O132   O     0.04179   0.32809   0.18689   0.00000  Uiso   1.00
N133   N     0.97292   0.82610   0.71610   0.00000  Uiso   1.00
N134   N     0.51247   0.75143   0.34165   0.00000  Uiso   1.00
N135   N     0.95472   0.39110   0.29789   0.00000  Uiso   1.00
N136   N     0.03303   0.91390   0.61828   0.00000  Uiso   1.00
N137   N     0.57257   0.83923   0.24383   0.00000  Uiso   1.00
N138   N     0.01483   0.47890   0.20007   0.00000  Uiso   1.00
C139   C     0.54196   0.19310   0.35448   0.00000  Uiso   1.00
C140   C     0.49856   0.13189   0.28094   0.00000  Uiso   1.00
C141   C     0.40983   0.11465   0.26956   0.00000  Uiso   1.00
C142   C     0.38308   0.05672   0.19818   0.00000  Uiso   1.00
C143   C     0.30657   0.96769   0.09276   0.00000  Uiso   1.00
C144   C     0.59537   0.26081   0.30359   0.00000  Uiso   1.00
C145   C     0.58804   0.35194   0.31128   0.00000  Uiso   1.00
C146   C     0.64280   0.40253   0.25897   0.00000  Uiso   1.00
C147   C     0.71664   0.51364   0.18877   0.00000  Uiso   1.00
C148   C     0.60753   0.13712   0.40589   0.00000  Uiso   1.00
C149   C     0.61045   0.12428   0.49959   0.00000  Uiso   1.00
C150   C     0.67546   0.07075   0.53342   0.00000  Uiso   1.00
C151   C     0.76818   0.98982   0.62206   0.00000  Uiso   1.00
C152   C     0.65225   0.12089   0.24793   0.00000  Uiso   1.00
C153   C     0.55846   0.09268   0.22306   0.00000  Uiso   1.00
C154   C     0.53185   0.03476   0.15168   0.00000  Uiso   1.00
C155   C     0.44309   0.01743   0.14020   0.00000  Uiso   1.00
C156   C     0.65527   0.22159   0.24572   0.00000  Uiso   1.00
C157   C     0.71006   0.27205   0.19339   0.00000  Uiso   1.00
C158   C     0.70281   0.36324   0.20099   0.00000  Uiso   1.00
C159   C     0.66743   0.09790   0.34802   0.00000  Uiso   1.00
C160   C     0.73246   0.04438   0.38171   0.00000  Uiso   1.00
C161   C     0.73547   0.03146   0.47544   0.00000  Uiso   1.00
H162   H     0.49533   0.22364   0.39954   0.00000  Uiso   1.00
H163   H     0.36349   0.14502   0.31436   0.00000  Uiso   1.00
H164   H     0.54169   0.38228   0.35607   0.00000  Uiso   1.00
H165   H     0.56408   0.15464   0.54436   0.00000  Uiso   1.00
H166   H     0.24374   0.04059   0.19439   0.00000  Uiso   1.00
H167   H     0.61949   0.54085   0.28236   0.00000  Uiso   1.00
H168   H     0.66672   0.06085   0.67940   0.00000  Uiso   1.00
H169   H     0.69889   0.09036   0.20287   0.00000  Uiso   1.00
H170   H     0.57822   0.00442   0.10690   0.00000  Uiso   1.00
H171   H     0.75641   0.24168   0.14862   0.00000  Uiso   1.00
H172   H     0.77880   0.01404   0.33690   0.00000  Uiso   1.00
H173   H     0.41802   0.92647   0.02600   0.00000  Uiso   1.00
H174   H     0.79377   0.42674   0.11398   0.00000  Uiso   1.00
H175   H     0.84100   0.94673   0.51102   0.00000  Uiso   1.00
O176   O     0.24783   0.92943   0.05060   0.00000  Uiso   1.00
O177   O     0.74080   0.58576   0.16603   0.00000  Uiso   1.00
O178   O     0.80277   0.95600   0.68693   0.00000  Uiso   1.00
N179   N     0.30132   0.02551   0.16794   0.00000  Uiso   1.00
N180   N     0.65261   0.49323   0.25018   0.00000  Uiso   1.00
N181   N     0.69678   0.04448   0.62138   0.00000  Uiso   1.00
N182   N     0.39510   0.96410   0.07734   0.00000  Uiso   1.00
N183   N     0.74639   0.43183   0.15958   0.00000  Uiso   1.00
N184   N     0.79056   0.98308   0.53078   0.00000  Uiso   1.00
C185   C     0.35029   0.54098   0.19573   0.00000  Uiso   1.00
C186   C     0.28104   0.49682   0.13162   0.00000  Uiso   1.00
C187   C     0.27109   0.40661   0.11322   0.00000  Uiso   1.00
C188   C     0.20374   0.37938   0.05261   0.00000  Uiso   1.00
C189   C     0.10462   0.30154   0.95929   0.00000  Uiso   1.00
C190   C     0.30122   0.59548   0.26581   0.00000  Uiso   1.00
C191   C     0.30825   0.58823   0.36022   0.00000  Uiso   1.00
C192   C     0.25789   0.64406   0.41256   0.00000  Uiso   1.00
C193   C     0.19014   0.71945   0.52756   0.00000  Uiso   1.00
C194   C     0.39874   0.60744   0.13844   0.00000  Uiso   1.00
C195   C     0.48777   0.61026   0.12577   0.00000  Uiso   1.00
C196   C     0.51952   0.67618   0.07089   0.00000  Uiso   1.00
C197   C     0.60319   0.77012   0.98813   0.00000  Uiso   1.00
C198   C     0.24836   0.65304   0.12081   0.00000  Uiso   1.00
C199   C     0.22568   0.55769   0.09093   0.00000  Uiso   1.00
C200   C     0.15833   0.53059   0.03032   0.00000  Uiso   1.00
C201   C     0.14828   0.44035   0.01183   0.00000  Uiso   1.00
C202   C     0.24586   0.65634   0.22511   0.00000  Uiso   1.00
C203   C     0.19548   0.71221   0.27732   0.00000  Uiso   1.00
C204   C     0.20243   0.70504   0.37179   0.00000  Uiso   1.00
C205   C     0.34338   0.66830   0.09774   0.00000  Uiso   1.00
C206   C     0.37500   0.73423   0.04287   0.00000  Uiso   1.00
C207   C     0.46406   0.73715   0.03013   0.00000  Uiso   1.00
H208   H     0.39338   0.49360   0.22742   0.00000  Uiso   1.00
H209   H     0.31395   0.35953   0.14474   0.00000  Uiso   1.00
H210   H     0.35110   0.54113   0.39169   0.00000  Uiso   1.00
H211   H     0.53059   0.56315   0.15728   0.00000  Uiso   1.00
H212   H     0.20144   0.23772   0.03514   0.00000  Uiso   1.00
H213   H     0.27980   0.62066   0.55586   0.00000  Uiso   1.00
H214   H     0.65830   0.66709   0.06156   0.00000  Uiso   1.00
H215   H     0.20526   0.70043   0.08913   0.00000  Uiso   1.00
H216   H     0.11550   0.57770   0.99884   0.00000  Uiso   1.00
H217   H     0.15265   0.75930   0.24581   0.00000  Uiso   1.00
H218   H     0.33214   0.78132   0.01139   0.00000  Uiso   1.00
H219   H     0.04037   0.41480   0.91673   0.00000  Uiso   1.00
H220   H     0.11874   0.79774   0.43746   0.00000  Uiso   1.00
H221   H     0.49723   0.84418   0.94315   0.00000  Uiso   1.00
O222   O     0.06523   0.24180   0.91907   0.00000  Uiso   1.00
O223   O     0.16806   0.74420   0.60224   0.00000  Uiso   1.00
O224   O     0.66463   0.80512   0.95372   0.00000  Uiso   1.00
N225   N     0.17586   0.29624   0.01965   0.00000  Uiso   1.00
N226   N     0.24912   0.65425   0.50650   0.00000  Uiso   1.00
N227   N     0.60298   0.69768   0.04438   0.00000  Uiso   1.00
N228   N     0.08919   0.39153   0.95593   0.00000  Uiso   1.00
N229   N     0.16245   0.74954   0.44278   0.00000  Uiso   1.00
N230   N     0.51631   0.79297   0.98067   0.00000  Uiso   1.00
C231   C     0.19187   0.35152   0.53949   0.00000  Uiso   1.00
C232   C     0.13176   0.28112   0.49295   0.00000  Uiso   1.00
C233   C     0.11470   0.27083   0.39934   0.00000  Uiso   1.00
C234   C     0.05783   0.20238   0.37038   0.00000  Uiso   1.00
C235   C     0.97036   0.10157   0.28862   0.00000  Uiso   1.00
C236   C     0.25867   0.30169   0.59614   0.00000  Uiso   1.00
C237   C     0.34831   0.30870   0.58930   0.00000  Uiso   1.00
C238   C     0.39827   0.25758   0.64721   0.00000  Uiso   1.00
C239   C     0.50782   0.18875   0.72570   0.00000  Uiso   1.00
C240   C     0.13677   0.40099   0.60819   0.00000  Uiso   1.00
C241   C     0.12394   0.49150   0.61150   0.00000  Uiso   1.00
C242   C     0.07128   0.52399   0.67957   0.00000  Uiso   1.00
C243   C     0.99158   0.60934   0.77677   0.00000  Uiso   1.00
C244   C     0.12120   0.24827   0.65452   0.00000  Uiso   1.00
C245   C     0.09337   0.22504   0.55544   0.00000  Uiso   1.00
C246   C     0.03650   0.15660   0.52662   0.00000  Uiso   1.00
C247   C     0.01936   0.14620   0.43298   0.00000  Uiso   1.00
C248   C     0.22028   0.24561   0.65863   0.00000  Uiso   1.00
C249   C     0.27011   0.19447   0.71657   0.00000  Uiso   1.00
C250   C     0.35981   0.20140   0.70981   0.00000  Uiso   1.00
C251   C     0.09838   0.34491   0.67068   0.00000  Uiso   1.00
C252   C     0.04574   0.37727   0.73877   0.00000  Uiso   1.00
C253   C     0.03282   0.46781   0.74217   0.00000  Uiso   1.00
H254   H     0.22176   0.39518   0.49084   0.00000  Uiso   1.00
H255   H     0.14443   0.31424   0.35100   0.00000  Uiso   1.00
H256   H     0.37800   0.35211   0.54094   0.00000  Uiso   1.00
H257   H     0.15366   0.53488   0.56313   0.00000  Uiso   1.00
H258   H     0.04178   0.19975   0.22352   0.00000  Uiso   1.00
H259   H     0.53428   0.27963   0.62403   0.00000  Uiso   1.00
H260   H     0.06121   0.66503   0.67083   0.00000  Uiso   1.00
H261   H     0.09131   0.20461   0.70317   0.00000  Uiso   1.00
H262   H     0.00681   0.11321   0.57499   0.00000  Uiso   1.00
H263   H     0.24038   0.15108   0.76492   0.00000  Uiso   1.00
H264   H     0.01604   0.33385   0.78711   0.00000  Uiso   1.00
H265   H     0.93009   0.03658   0.40531   0.00000  Uiso   1.00
H266   H     0.42259   0.11646   0.80583   0.00000  Uiso   1.00
H267   H     0.94952   0.50186   0.85262   0.00000  Uiso   1.00
O268   O     0.93272   0.06146   0.22626   0.00000  Uiso   1.00
O269   O     0.57886   0.16627   0.75173   0.00000  Uiso   1.00
O270   O     0.95821   0.67191   0.81311   0.00000  Uiso   1.00
N271   N     0.02708   0.17390   0.28390   0.00000  Uiso   1.00
N272   N     0.48753   0.24857   0.65835   0.00000  Uiso   1.00
N273   N     0.04528   0.60890   0.70211   0.00000  Uiso   1.00
N274   N     0.96697   0.08610   0.38172   0.00000  Uiso   1.00
N275   N     0.42743   0.16077   0.75617   0.00000  Uiso   1.00
N276   N     0.98517   0.52110   0.79993   0.00000  Uiso   1.00
