data_job_05747
_audit_creation_date              2018-12-19
_audit_creation_method            'Materials Studio'
_symmetry_space_group_name_H-M    'P1'
_symmetry_Int_Tables_number       1
_symmetry_cell_setting            triclinic
loop_
_symmetry_equiv_pos_as_xyz
  x,y,z
_cell_length_a                    33.2422
_cell_length_b                    14.5683
_cell_length_c                    12.1183
_cell_angle_alpha                 90.0000
_cell_angle_beta                  102.1160
_cell_angle_gamma                 90.0000
loop_
_atom_site_label
_atom_site_type_symbol
_atom_site_fract_x
_atom_site_fract_y
_atom_site_fract_z
_atom_site_U_iso_or_equiv
_atom_site_adp_type
_atom_site_occupancy
C1     C     0.90625   0.16751   0.44266   0.00000  Uiso   1.00
C2     C     0.90855   0.22073   0.55217   0.00000  Uiso   1.00
C3     C     0.89547   0.18920   0.64684   0.00000  Uiso   1.00
C4     C     0.90021   0.24831   0.73854   0.00000  Uiso   1.00
C5     C     0.90114   0.31766   0.90901   0.00000  Uiso   1.00
C6     C     0.88187   0.22771   0.34912   0.00000  Uiso   1.00
C7     C     0.84635   0.20205   0.27307   0.00000  Uiso   1.00
C8     C     0.82864   0.26703   0.19383   0.00000  Uiso   1.00
C9     C     0.78816   0.34720   0.04902   0.00000  Uiso   1.00
C10    C     0.95005   0.16445   0.42291   0.00000  Uiso   1.00
C11    C     0.97186   0.08560   0.40887   0.00000  Uiso   1.00
C12    C     0.01154   0.09732   0.39173   0.00000  Uiso   1.00
C13    C     0.07693   0.07926   0.36148   0.00000  Uiso   1.00
C14    C     0.93794   0.32855   0.43714   0.00000  Uiso   1.00
C15    C     0.92576   0.30820   0.54917   0.00000  Uiso   1.00
C16    C     0.93053   0.36737   0.64074   0.00000  Uiso   1.00
C17    C     0.91746   0.33594   0.73554   0.00000  Uiso   1.00
C18    C     0.89908   0.31518   0.34612   0.00000  Uiso   1.00
C19    C     0.88141   0.38022   0.26697   0.00000  Uiso   1.00
C20    C     0.84588   0.35466   0.19083   0.00000  Uiso   1.00
C21    C     0.96726   0.25192   0.41992   0.00000  Uiso   1.00
C22    C     0.00692   0.26377   0.40278   0.00000  Uiso   1.00
C23    C     0.02879   0.18495   0.38872   0.00000  Uiso   1.00
H24    H     0.89285   0.09941   0.44498   0.00000  Uiso   1.00
H25    H     0.88214   0.12151   0.64912   0.00000  Uiso   1.00
H26    H     0.83304   0.13435   0.27540   0.00000  Uiso   1.00
H27    H     0.95853   0.01792   0.41119   0.00000  Uiso   1.00
H28    H     0.87786   0.18460   0.87411   0.00000  Uiso   1.00
H29    H     0.77432   0.21166   0.08608   0.00000  Uiso   1.00
H30    H     0.03894   0.96614   0.37241   0.00000  Uiso   1.00
H31    H     0.95134   0.39665   0.43481   0.00000  Uiso   1.00
H32    H     0.94385   0.43506   0.63840   0.00000  Uiso   1.00
H33    H     0.89474   0.44790   0.26468   0.00000  Uiso   1.00
H34    H     0.02023   0.33146   0.40047   0.00000  Uiso   1.00
H35    H     0.92794   0.43909   0.86541   0.00000  Uiso   1.00
H36    H     0.82441   0.46614   0.07737   0.00000  Uiso   1.00
H37    H     0.08902   0.22063   0.36371   0.00000  Uiso   1.00
O38    O     0.89690   0.33176   0.00386   0.00000  Uiso   1.00
O39    O     0.76108   0.36725   0.96997   0.00000  Uiso   1.00
O40    O     0.10824   0.04514   0.34564   0.00000  Uiso   1.00
N41    N     0.89068   0.23921   0.84413   0.00000  Uiso   1.00
N42    N     0.79388   0.26452   0.10738   0.00000  Uiso   1.00
N43    N     0.04127   0.03498   0.37504   0.00000  Uiso   1.00
N44    N     0.91763   0.37615   0.83945   0.00000  Uiso   1.00
N45    N     0.82083   0.40145   0.10270   0.00000  Uiso   1.00
N46    N     0.06821   0.17192   0.37036   0.00000  Uiso   1.00
C47    C     0.40625   0.66751   0.44266   0.00000  Uiso   1.00
C48    C     0.40855   0.72073   0.55217   0.00000  Uiso   1.00
C49    C     0.39547   0.68920   0.64684   0.00000  Uiso   1.00
C50    C     0.40021   0.74831   0.73854   0.00000  Uiso   1.00
C51    C     0.40114   0.81766   0.90901   0.00000  Uiso   1.00
C52    C     0.38187   0.72771   0.34912   0.00000  Uiso   1.00
C53    C     0.34635   0.70205   0.27307   0.00000  Uiso   1.00
C54    C     0.32864   0.76703   0.19383   0.00000  Uiso   1.00
C55    C     0.28816   0.84720   0.04902   0.00000  Uiso   1.00
C56    C     0.45005   0.66445   0.42291   0.00000  Uiso   1.00
C57    C     0.47186   0.58560   0.40887   0.00000  Uiso   1.00
C58    C     0.51154   0.59732   0.39173   0.00000  Uiso   1.00
C59    C     0.57693   0.57926   0.36148   0.00000  Uiso   1.00
C60    C     0.43794   0.82855   0.43714   0.00000  Uiso   1.00
C61    C     0.42576   0.80820   0.54917   0.00000  Uiso   1.00
C62    C     0.43053   0.86737   0.64074   0.00000  Uiso   1.00
C63    C     0.41746   0.83594   0.73554   0.00000  Uiso   1.00
C64    C     0.39908   0.81518   0.34612   0.00000  Uiso   1.00
C65    C     0.38141   0.88022   0.26697   0.00000  Uiso   1.00
C66    C     0.34588   0.85466   0.19083   0.00000  Uiso   1.00
C67    C     0.46726   0.75192   0.41992   0.00000  Uiso   1.00
C68    C     0.50692   0.76377   0.40278   0.00000  Uiso   1.00
C69    C     0.52879   0.68495   0.38872   0.00000  Uiso   1.00
H70    H     0.39285   0.59941   0.44498   0.00000  Uiso   1.00
H71    H     0.38214   0.62151   0.64912   0.00000  Uiso   1.00
H72    H     0.33304   0.63435   0.27540   0.00000  Uiso   1.00
H73    H     0.45853   0.51792   0.41119   0.00000  Uiso   1.00
H74    H     0.37786   0.68460   0.87411   0.00000  Uiso   1.00
H75    H     0.27432   0.71166   0.08608   0.00000  Uiso   1.00
H76    H     0.53894   0.46614   0.37241   0.00000  Uiso   1.00
H77    H     0.45134   0.89665   0.43481   0.00000  Uiso   1.00
H78    H     0.44385   0.93506   0.63840   0.00000  Uiso   1.00
H79    H     0.39474   0.94790   0.26468   0.00000  Uiso   1.00
H80    H     0.52023   0.83146   0.40047   0.00000  Uiso   1.00
H81    H     0.42794   0.93909   0.86541   0.00000  Uiso   1.00
H82    H     0.32441   0.96614   0.07737   0.00000  Uiso   1.00
H83    H     0.58902   0.72063   0.36371   0.00000  Uiso   1.00
O84    O     0.39690   0.83176   0.00386   0.00000  Uiso   1.00
O85    O     0.26108   0.86725   0.96997   0.00000  Uiso   1.00
O86    O     0.60824   0.54514   0.34564   0.00000  Uiso   1.00
N87    N     0.39068   0.73921   0.84413   0.00000  Uiso   1.00
N88    N     0.29388   0.76452   0.10738   0.00000  Uiso   1.00
N89    N     0.54127   0.53498   0.37504   0.00000  Uiso   1.00
N90    N     0.41763   0.87615   0.83945   0.00000  Uiso   1.00
N91    N     0.32083   0.90145   0.10270   0.00000  Uiso   1.00
N92    N     0.56821   0.67192   0.37036   0.00000  Uiso   1.00
C93    C     0.09375   0.16751   0.05734   0.00000  Uiso   1.00
C94    C     0.09145   0.22073   0.94783   0.00000  Uiso   1.00
C95    C     0.10453   0.18920   0.85316   0.00000  Uiso   1.00
C96    C     0.09979   0.24831   0.76146   0.00000  Uiso   1.00
C97    C     0.09886   0.31766   0.59099   0.00000  Uiso   1.00
C98    C     0.11813   0.22771   0.15088   0.00000  Uiso   1.00
C99    C     0.15365   0.20205   0.22693   0.00000  Uiso   1.00
C100   C     0.17136   0.26703   0.30617   0.00000  Uiso   1.00
C101   C     0.21184   0.34720   0.45098   0.00000  Uiso   1.00
C102   C     0.04995   0.16445   0.07709   0.00000  Uiso   1.00
C103   C     0.02814   0.08560   0.09113   0.00000  Uiso   1.00
C104   C     0.98846   0.09732   0.10827   0.00000  Uiso   1.00
C105   C     0.92307   0.07926   0.13852   0.00000  Uiso   1.00
C106   C     0.06206   0.32855   0.06286   0.00000  Uiso   1.00
C107   C     0.07424   0.30820   0.95083   0.00000  Uiso   1.00
C108   C     0.06947   0.36737   0.85926   0.00000  Uiso   1.00
C109   C     0.08254   0.33594   0.76446   0.00000  Uiso   1.00
C110   C     0.10092   0.31518   0.15388   0.00000  Uiso   1.00
C111   C     0.11859   0.38022   0.23303   0.00000  Uiso   1.00
C112   C     0.15412   0.35466   0.30917   0.00000  Uiso   1.00
C113   C     0.03274   0.25192   0.08008   0.00000  Uiso   1.00
C114   C     0.99308   0.26377   0.09722   0.00000  Uiso   1.00
C115   C     0.97121   0.18495   0.11128   0.00000  Uiso   1.00
H116   H     0.10715   0.09941   0.05502   0.00000  Uiso   1.00
H117   H     0.11786   0.12151   0.85088   0.00000  Uiso   1.00
H118   H     0.16696   0.13435   0.22460   0.00000  Uiso   1.00
H119   H     0.04147   0.01792   0.08881   0.00000  Uiso   1.00
H120   H     0.12214   0.18460   0.62589   0.00000  Uiso   1.00
H121   H     0.22568   0.21166   0.41392   0.00000  Uiso   1.00
H122   H     0.96106   0.96614   0.12759   0.00000  Uiso   1.00
H123   H     0.04866   0.39665   0.06519   0.00000  Uiso   1.00
H124   H     0.05615   0.43506   0.86160   0.00000  Uiso   1.00
H125   H     0.10526   0.44790   0.23532   0.00000  Uiso   1.00
H126   H     0.97977   0.33146   0.09953   0.00000  Uiso   1.00
H127   H     0.07206   0.43909   0.63459   0.00000  Uiso   1.00
H128   H     0.17559   0.46614   0.42263   0.00000  Uiso   1.00
H129   H     0.91098   0.22063   0.13629   0.00000  Uiso   1.00
O130   O     0.10310   0.33176   0.49614   0.00000  Uiso   1.00
O131   O     0.23892   0.36725   0.53003   0.00000  Uiso   1.00
O132   O     0.89176   0.04514   0.15436   0.00000  Uiso   1.00
N133   N     0.10932   0.23921   0.65587   0.00000  Uiso   1.00
N134   N     0.20612   0.26452   0.39262   0.00000  Uiso   1.00
N135   N     0.95873   0.03498   0.12496   0.00000  Uiso   1.00
N136   N     0.08237   0.37615   0.66055   0.00000  Uiso   1.00
N137   N     0.17917   0.40145   0.39730   0.00000  Uiso   1.00
N138   N     0.93179   0.17192   0.12964   0.00000  Uiso   1.00
C139   C     0.59375   0.66751   0.05734   0.00000  Uiso   1.00
C140   C     0.59145   0.72073   0.94783   0.00000  Uiso   1.00
C141   C     0.60453   0.68920   0.85316   0.00000  Uiso   1.00
C142   C     0.59979   0.74831   0.76146   0.00000  Uiso   1.00
C143   C     0.59886   0.81766   0.59099   0.00000  Uiso   1.00
C144   C     0.61813   0.72771   0.15088   0.00000  Uiso   1.00
C145   C     0.65365   0.70205   0.22693   0.00000  Uiso   1.00
C146   C     0.67136   0.76703   0.30617   0.00000  Uiso   1.00
C147   C     0.71184   0.84720   0.45098   0.00000  Uiso   1.00
C148   C     0.54995   0.66445   0.07709   0.00000  Uiso   1.00
C149   C     0.52814   0.58560   0.09113   0.00000  Uiso   1.00
C150   C     0.48846   0.59732   0.10827   0.00000  Uiso   1.00
C151   C     0.42307   0.57926   0.13852   0.00000  Uiso   1.00
C152   C     0.56206   0.82855   0.06286   0.00000  Uiso   1.00
C153   C     0.57424   0.80820   0.95083   0.00000  Uiso   1.00
C154   C     0.56947   0.86737   0.85926   0.00000  Uiso   1.00
C155   C     0.58254   0.83594   0.76446   0.00000  Uiso   1.00
C156   C     0.60092   0.81518   0.15388   0.00000  Uiso   1.00
C157   C     0.61859   0.88022   0.23303   0.00000  Uiso   1.00
C158   C     0.65412   0.85466   0.30917   0.00000  Uiso   1.00
C159   C     0.53274   0.75192   0.08008   0.00000  Uiso   1.00
C160   C     0.49308   0.76377   0.09722   0.00000  Uiso   1.00
C161   C     0.47121   0.68495   0.11128   0.00000  Uiso   1.00
H162   H     0.60715   0.59941   0.05502   0.00000  Uiso   1.00
H163   H     0.61786   0.62151   0.85088   0.00000  Uiso   1.00
H164   H     0.66696   0.63435   0.22460   0.00000  Uiso   1.00
H165   H     0.54147   0.51792   0.08881   0.00000  Uiso   1.00
H166   H     0.62214   0.68460   0.62589   0.00000  Uiso   1.00
H167   H     0.72568   0.71166   0.41392   0.00000  Uiso   1.00
H168   H     0.46106   0.46614   0.12759   0.00000  Uiso   1.00
H169   H     0.54866   0.89665   0.06519   0.00000  Uiso   1.00
H170   H     0.55615   0.93506   0.86160   0.00000  Uiso   1.00
H171   H     0.60526   0.94790   0.23532   0.00000  Uiso   1.00
H172   H     0.47977   0.83146   0.09953   0.00000  Uiso   1.00
H173   H     0.57206   0.93909   0.63459   0.00000  Uiso   1.00
H174   H     0.67559   0.96614   0.42263   0.00000  Uiso   1.00
H175   H     0.41098   0.72063   0.13629   0.00000  Uiso   1.00
O176   O     0.60310   0.83176   0.49614   0.00000  Uiso   1.00
O177   O     0.73892   0.86725   0.53003   0.00000  Uiso   1.00
O178   O     0.39176   0.54514   0.15436   0.00000  Uiso   1.00
N179   N     0.60932   0.73921   0.65587   0.00000  Uiso   1.00
N180   N     0.70612   0.76452   0.39262   0.00000  Uiso   1.00
N181   N     0.45873   0.53498   0.12496   0.00000  Uiso   1.00
N182   N     0.58237   0.87615   0.66055   0.00000  Uiso   1.00
N183   N     0.67917   0.90145   0.39730   0.00000  Uiso   1.00
N184   N     0.43179   0.67192   0.12964   0.00000  Uiso   1.00
C185   C     0.09375   0.83249   0.55734   0.00000  Uiso   1.00
C186   C     0.09145   0.77927   0.44783   0.00000  Uiso   1.00
C187   C     0.10453   0.81080   0.35316   0.00000  Uiso   1.00
C188   C     0.09979   0.75169   0.26146   0.00000  Uiso   1.00
C189   C     0.09886   0.68234   0.09099   0.00000  Uiso   1.00
C190   C     0.11813   0.77229   0.65088   0.00000  Uiso   1.00
C191   C     0.15365   0.79795   0.72693   0.00000  Uiso   1.00
C192   C     0.17136   0.73297   0.80617   0.00000  Uiso   1.00
C193   C     0.21184   0.65280   0.95098   0.00000  Uiso   1.00
C194   C     0.04995   0.83555   0.57709   0.00000  Uiso   1.00
C195   C     0.02814   0.91440   0.59113   0.00000  Uiso   1.00
C196   C     0.98846   0.90268   0.60827   0.00000  Uiso   1.00
C197   C     0.92307   0.92074   0.63852   0.00000  Uiso   1.00
C198   C     0.06206   0.67145   0.56286   0.00000  Uiso   1.00
C199   C     0.07424   0.69180   0.45083   0.00000  Uiso   1.00
C200   C     0.06947   0.63263   0.35926   0.00000  Uiso   1.00
C201   C     0.08254   0.66406   0.26446   0.00000  Uiso   1.00
C202   C     0.10092   0.68482   0.65388   0.00000  Uiso   1.00
C203   C     0.11859   0.61978   0.73303   0.00000  Uiso   1.00
C204   C     0.15412   0.64534   0.80917   0.00000  Uiso   1.00
C205   C     0.03274   0.74808   0.58008   0.00000  Uiso   1.00
C206   C     0.99308   0.73623   0.59722   0.00000  Uiso   1.00
C207   C     0.97121   0.81505   0.61128   0.00000  Uiso   1.00
H208   H     0.10715   0.90059   0.55502   0.00000  Uiso   1.00
H209   H     0.11786   0.87849   0.35088   0.00000  Uiso   1.00
H210   H     0.16696   0.86565   0.72460   0.00000  Uiso   1.00
H211   H     0.04147   0.98208   0.58881   0.00000  Uiso   1.00
H212   H     0.12214   0.81540   0.12589   0.00000  Uiso   1.00
H213   H     0.22568   0.78834   0.91392   0.00000  Uiso   1.00
H214   H     0.96106   0.03386   0.62759   0.00000  Uiso   1.00
H215   H     0.04866   0.60335   0.56519   0.00000  Uiso   1.00
H216   H     0.05615   0.56494   0.36160   0.00000  Uiso   1.00
H217   H     0.10526   0.55210   0.73532   0.00000  Uiso   1.00
H218   H     0.97977   0.66854   0.59953   0.00000  Uiso   1.00
H219   H     0.07206   0.56091   0.13459   0.00000  Uiso   1.00
H220   H     0.17559   0.53386   0.92263   0.00000  Uiso   1.00
H221   H     0.91098   0.77937   0.63629   0.00000  Uiso   1.00
O222   O     0.10310   0.66824   0.99614   0.00000  Uiso   1.00
O223   O     0.23892   0.63275   0.03003   0.00000  Uiso   1.00
O224   O     0.89176   0.95486   0.65436   0.00000  Uiso   1.00
N225   N     0.10932   0.76079   0.15587   0.00000  Uiso   1.00
N226   N     0.20612   0.73548   0.89262   0.00000  Uiso   1.00
N227   N     0.95873   0.96502   0.62496   0.00000  Uiso   1.00
N228   N     0.08237   0.62385   0.16055   0.00000  Uiso   1.00
N229   N     0.17917   0.59855   0.89730   0.00000  Uiso   1.00
N230   N     0.93179   0.82808   0.62964   0.00000  Uiso   1.00
C231   C     0.59375   0.33249   0.55734   0.00000  Uiso   1.00
C232   C     0.59145   0.27927   0.44783   0.00000  Uiso   1.00
C233   C     0.60453   0.31080   0.35316   0.00000  Uiso   1.00
C234   C     0.59979   0.25169   0.26146   0.00000  Uiso   1.00
C235   C     0.59886   0.18234   0.09099   0.00000  Uiso   1.00
C236   C     0.61813   0.27229   0.65088   0.00000  Uiso   1.00
C237   C     0.65365   0.29795   0.72693   0.00000  Uiso   1.00
C238   C     0.67136   0.23297   0.80617   0.00000  Uiso   1.00
C239   C     0.71184   0.15280   0.95098   0.00000  Uiso   1.00
C240   C     0.54995   0.33555   0.57709   0.00000  Uiso   1.00
C241   C     0.52814   0.41440   0.59113   0.00000  Uiso   1.00
C242   C     0.48846   0.40268   0.60827   0.00000  Uiso   1.00
C243   C     0.42307   0.42074   0.63852   0.00000  Uiso   1.00
C244   C     0.56206   0.17145   0.56286   0.00000  Uiso   1.00
C245   C     0.57424   0.19180   0.45083   0.00000  Uiso   1.00
C246   C     0.56947   0.13263   0.35926   0.00000  Uiso   1.00
C247   C     0.58254   0.16406   0.26446   0.00000  Uiso   1.00
C248   C     0.60092   0.18482   0.65388   0.00000  Uiso   1.00
C249   C     0.61859   0.11978   0.73303   0.00000  Uiso   1.00
C250   C     0.65412   0.14534   0.80917   0.00000  Uiso   1.00
C251   C     0.53274   0.24808   0.58008   0.00000  Uiso   1.00
C252   C     0.49308   0.23623   0.59722   0.00000  Uiso   1.00
C253   C     0.47121   0.31505   0.61128   0.00000  Uiso   1.00
H254   H     0.60715   0.40059   0.55502   0.00000  Uiso   1.00
H255   H     0.61786   0.37849   0.35088   0.00000  Uiso   1.00
H256   H     0.66696   0.36565   0.72460   0.00000  Uiso   1.00
H257   H     0.54147   0.48208   0.58881   0.00000  Uiso   1.00
H258   H     0.62214   0.31540   0.12589   0.00000  Uiso   1.00
H259   H     0.72568   0.28834   0.91392   0.00000  Uiso   1.00
H260   H     0.46106   0.53386   0.62759   0.00000  Uiso   1.00
H261   H     0.54866   0.10335   0.56519   0.00000  Uiso   1.00
H262   H     0.55615   0.06494   0.36160   0.00000  Uiso   1.00
H263   H     0.60526   0.05210   0.73532   0.00000  Uiso   1.00
H264   H     0.47977   0.16854   0.59953   0.00000  Uiso   1.00
H265   H     0.57206   0.06091   0.13459   0.00000  Uiso   1.00
H266   H     0.67559   0.03386   0.92263   0.00000  Uiso   1.00
H267   H     0.41098   0.27937   0.63629   0.00000  Uiso   1.00
O268   O     0.60310   0.16824   0.99614   0.00000  Uiso   1.00
O269   O     0.73892   0.13275   0.03003   0.00000  Uiso   1.00
O270   O     0.39176   0.45486   0.65436   0.00000  Uiso   1.00
N271   N     0.60932   0.26079   0.15587   0.00000  Uiso   1.00
N272   N     0.70612   0.23548   0.89262   0.00000  Uiso   1.00
N273   N     0.45873   0.46502   0.62496   0.00000  Uiso   1.00
N274   N     0.58237   0.12385   0.16055   0.00000  Uiso   1.00
N275   N     0.67917   0.09855   0.89730   0.00000  Uiso   1.00
N276   N     0.43179   0.32808   0.62964   0.00000  Uiso   1.00
C277   C     0.90625   0.83249   0.94266   0.00000  Uiso   1.00
C278   C     0.90855   0.77927   0.05217   0.00000  Uiso   1.00
C279   C     0.89547   0.81080   0.14684   0.00000  Uiso   1.00
C280   C     0.90021   0.75169   0.23854   0.00000  Uiso   1.00
C281   C     0.90114   0.68234   0.40901   0.00000  Uiso   1.00
C282   C     0.88187   0.77229   0.84912   0.00000  Uiso   1.00
C283   C     0.84635   0.79795   0.77307   0.00000  Uiso   1.00
C284   C     0.82864   0.73297   0.69383   0.00000  Uiso   1.00
C285   C     0.78816   0.65280   0.54902   0.00000  Uiso   1.00
C286   C     0.95005   0.83555   0.92291   0.00000  Uiso   1.00
C287   C     0.97186   0.91440   0.90887   0.00000  Uiso   1.00
C288   C     0.01154   0.90268   0.89173   0.00000  Uiso   1.00
C289   C     0.07693   0.92074   0.86148   0.00000  Uiso   1.00
C290   C     0.93794   0.67145   0.93714   0.00000  Uiso   1.00
C291   C     0.92576   0.69180   0.04917   0.00000  Uiso   1.00
C292   C     0.93053   0.63263   0.14074   0.00000  Uiso   1.00
C293   C     0.91746   0.66406   0.23554   0.00000  Uiso   1.00
C294   C     0.89908   0.68482   0.84612   0.00000  Uiso   1.00
C295   C     0.88141   0.61978   0.76697   0.00000  Uiso   1.00
C296   C     0.84588   0.64534   0.69083   0.00000  Uiso   1.00
C297   C     0.96726   0.74808   0.91992   0.00000  Uiso   1.00
C298   C     0.00692   0.73623   0.90278   0.00000  Uiso   1.00
C299   C     0.02879   0.81505   0.88872   0.00000  Uiso   1.00
H300   H     0.89285   0.90059   0.94498   0.00000  Uiso   1.00
H301   H     0.88214   0.87849   0.14912   0.00000  Uiso   1.00
H302   H     0.83304   0.86565   0.77540   0.00000  Uiso   1.00
H303   H     0.95853   0.98208   0.91119   0.00000  Uiso   1.00
H304   H     0.87786   0.81540   0.37411   0.00000  Uiso   1.00
H305   H     0.77432   0.78834   0.58608   0.00000  Uiso   1.00
H306   H     0.03894   0.03386   0.87241   0.00000  Uiso   1.00
H307   H     0.95134   0.60335   0.93481   0.00000  Uiso   1.00
H308   H     0.94385   0.56494   0.13840   0.00000  Uiso   1.00
H309   H     0.89474   0.55210   0.76468   0.00000  Uiso   1.00
H310   H     0.02023   0.66854   0.90047   0.00000  Uiso   1.00
H311   H     0.92794   0.56091   0.36541   0.00000  Uiso   1.00
H312   H     0.82441   0.53386   0.57737   0.00000  Uiso   1.00
H313   H     0.08902   0.77937   0.86371   0.00000  Uiso   1.00
O314   O     0.89690   0.66824   0.50386   0.00000  Uiso   1.00
O315   O     0.76108   0.63275   0.46997   0.00000  Uiso   1.00
O316   O     0.10824   0.95486   0.84564   0.00000  Uiso   1.00
N317   N     0.89068   0.76079   0.34413   0.00000  Uiso   1.00
N318   N     0.79388   0.73548   0.60738   0.00000  Uiso   1.00
N319   N     0.04127   0.96502   0.87504   0.00000  Uiso   1.00
N320   N     0.91763   0.62385   0.33945   0.00000  Uiso   1.00
N321   N     0.82083   0.59855   0.60270   0.00000  Uiso   1.00
N322   N     0.06821   0.82808   0.87036   0.00000  Uiso   1.00
C323   C     0.40625   0.33249   0.94266   0.00000  Uiso   1.00
C324   C     0.40855   0.27927   0.05217   0.00000  Uiso   1.00
C325   C     0.39547   0.31080   0.14684   0.00000  Uiso   1.00
C326   C     0.40021   0.25169   0.23854   0.00000  Uiso   1.00
C327   C     0.40114   0.18234   0.40901   0.00000  Uiso   1.00
C328   C     0.38187   0.27229   0.84912   0.00000  Uiso   1.00
C329   C     0.34635   0.29795   0.77307   0.00000  Uiso   1.00
C330   C     0.32864   0.23297   0.69383   0.00000  Uiso   1.00
C331   C     0.28816   0.15280   0.54902   0.00000  Uiso   1.00
C332   C     0.45005   0.33555   0.92291   0.00000  Uiso   1.00
C333   C     0.47186   0.41440   0.90887   0.00000  Uiso   1.00
C334   C     0.51154   0.40268   0.89173   0.00000  Uiso   1.00
C335   C     0.57693   0.42074   0.86148   0.00000  Uiso   1.00
C336   C     0.43794   0.17145   0.93714   0.00000  Uiso   1.00
C337   C     0.42576   0.19180   0.04917   0.00000  Uiso   1.00
C338   C     0.43053   0.13263   0.14074   0.00000  Uiso   1.00
C339   C     0.41746   0.16406   0.23554   0.00000  Uiso   1.00
C340   C     0.39908   0.18482   0.84612   0.00000  Uiso   1.00
C341   C     0.38141   0.11978   0.76697   0.00000  Uiso   1.00
C342   C     0.34588   0.14534   0.69083   0.00000  Uiso   1.00
C343   C     0.46726   0.24808   0.91992   0.00000  Uiso   1.00
C344   C     0.50692   0.23623   0.90278   0.00000  Uiso   1.00
C345   C     0.52879   0.31505   0.88872   0.00000  Uiso   1.00
H346   H     0.39285   0.40059   0.94498   0.00000  Uiso   1.00
H347   H     0.38214   0.37849   0.14912   0.00000  Uiso   1.00
H348   H     0.33304   0.36565   0.77540   0.00000  Uiso   1.00
H349   H     0.45853   0.48208   0.91119   0.00000  Uiso   1.00
H350   H     0.37786   0.31540   0.37411   0.00000  Uiso   1.00
H351   H     0.27432   0.28834   0.58608   0.00000  Uiso   1.00
H352   H     0.53894   0.53386   0.87241   0.00000  Uiso   1.00
H353   H     0.45134   0.10335   0.93481   0.00000  Uiso   1.00
H354   H     0.44385   0.06494   0.13840   0.00000  Uiso   1.00
H355   H     0.39474   0.05210   0.76468   0.00000  Uiso   1.00
H356   H     0.52023   0.16854   0.90047   0.00000  Uiso   1.00
H357   H     0.42794   0.06091   0.36541   0.00000  Uiso   1.00
H358   H     0.32441   0.03386   0.57737   0.00000  Uiso   1.00
H359   H     0.58902   0.27937   0.86371   0.00000  Uiso   1.00
O360   O     0.39690   0.16824   0.50386   0.00000  Uiso   1.00
O361   O     0.26108   0.13275   0.46997   0.00000  Uiso   1.00
O362   O     0.60824   0.45486   0.84564   0.00000  Uiso   1.00
N363   N     0.39068   0.26079   0.34413   0.00000  Uiso   1.00
N364   N     0.29388   0.23548   0.60738   0.00000  Uiso   1.00
N365   N     0.54127   0.46502   0.87504   0.00000  Uiso   1.00
N366   N     0.41763   0.12385   0.33945   0.00000  Uiso   1.00
N367   N     0.32083   0.09855   0.60270   0.00000  Uiso   1.00
N368   N     0.56821   0.32808   0.87036   0.00000  Uiso   1.00
