data_job_00193
_audit_creation_date              2018-12-19
_audit_creation_method            'Materials Studio'
_symmetry_space_group_name_H-M    'P1'
_symmetry_Int_Tables_number       1
_symmetry_cell_setting            triclinic
loop_
_symmetry_equiv_pos_as_xyz
  x,y,z
_cell_length_a                    37.3276
_cell_length_b                    7.0287
_cell_length_c                    23.8589
_cell_angle_alpha                 90.0000
_cell_angle_beta                  146.2096
_cell_angle_gamma                 90.0000
loop_
_atom_site_label
_atom_site_type_symbol
_atom_site_fract_x
_atom_site_fract_y
_atom_site_fract_z
_atom_site_U_iso_or_equiv
_atom_site_adp_type
_atom_site_occupancy
C1     C     0.31623   0.59625   0.90125   0.00000  Uiso   1.00
C2     C     0.35739   0.52329   0.00314   0.00000  Uiso   1.00
C3     C     0.38164   0.63269   0.07826   0.00000  Uiso   1.00
C4     C     0.41823   0.53924   0.16601   0.00000  Uiso   1.00
C5     C     0.48031   0.45571   0.32237   0.00000  Uiso   1.00
C6     C     0.25461   0.47822   0.82205   0.00000  Uiso   1.00
C7     C     0.19244   0.54974   0.74489   0.00000  Uiso   1.00
C8     C     0.14250   0.41835   0.68019   0.00000  Uiso   1.00
C9     C     0.04500   0.26486   0.55534   0.00000  Uiso   1.00
C10    C     0.35166   0.54020   0.89382   0.00000  Uiso   1.00
C11    C     0.37108   0.66382   0.87698   0.00000  Uiso   1.00
C12    C     0.40284   0.58461   0.87268   0.00000  Uiso   1.00
C13    C     0.45603   0.52735   0.85928   0.00000  Uiso   1.00
C14    C     0.33808   0.23575   0.92353   0.00000  Uiso   1.00
C15    C     0.36926   0.32747   0.01524   0.00000  Uiso   1.00
C16    C     0.40582   0.23383   0.10291   0.00000  Uiso   1.00
C17    C     0.43012   0.34308   0.17814   0.00000  Uiso   1.00
C18    C     0.26647   0.28241   0.83415   0.00000  Uiso   1.00
C19    C     0.21661   0.15088   0.76954   0.00000  Uiso   1.00
C20    C     0.15438   0.22218   0.69231   0.00000  Uiso   1.00
C21    C     0.36353   0.34439   0.90592   0.00000  Uiso   1.00
C22    C     0.39526   0.26496   0.90164   0.00000  Uiso   1.00
C23    C     0.41473   0.38844   0.88481   0.00000  Uiso   1.00
H24    H     0.30699   0.74870   0.89182   0.00000  Uiso   1.00
H25    H     0.37244   0.78422   0.06886   0.00000  Uiso   1.00
H26    H     0.18327   0.70128   0.73553   0.00000  Uiso   1.00
H27    H     0.36189   0.81534   0.86762   0.00000  Uiso   1.00
H28    H     0.45023   0.73724   0.27046   0.00000  Uiso   1.00
H29    H     0.05134   0.56236   0.56761   0.00000  Uiso   1.00
H30    H     0.42799   0.80289   0.84612   0.00000  Uiso   1.00
H31    H     0.34732   0.08329   0.93295   0.00000  Uiso   1.00
H32    H     0.41499   0.08230   0.11226   0.00000  Uiso   1.00
H33    H     0.22581   0.99936   0.77893   0.00000  Uiso   1.00
H34    H     0.40443   0.11343   0.91101   0.00000  Uiso   1.00
H35    H     0.48476   0.16753   0.30568   0.00000  Uiso   1.00
H36    H     0.08587   0.99266   0.60282   0.00000  Uiso   1.00
H37    H     0.46252   0.23318   0.88135   0.00000  Uiso   1.00
O38    O     0.51127   0.46373   0.40527   0.00000  Uiso   1.00
O39    O     0.98794   0.23430   0.48314   0.00000  Uiso   1.00
O40    O     0.48210   0.54987   0.84855   0.00000  Uiso   1.00
N41    N     0.44908   0.60330   0.25415   0.00000  Uiso   1.00
N42    N     0.07614   0.43980   0.59704   0.00000  Uiso   1.00
N43    N     0.42826   0.66467   0.85740   0.00000  Uiso   1.00
N44    N     0.46766   0.29675   0.27311   0.00000  Uiso   1.00
N45    N     0.09472   0.13325   0.61599   0.00000  Uiso   1.00
N46    N     0.44685   0.35811   0.87635   0.00000  Uiso   1.00
C47    C     0.68377   0.09625   0.59875   0.00000  Uiso   1.00
C48    C     0.64261   0.02329   0.49686   0.00000  Uiso   1.00
C49    C     0.61836   0.13269   0.42174   0.00000  Uiso   1.00
C50    C     0.58177   0.03924   0.33399   0.00000  Uiso   1.00
C51    C     0.51969   0.95571   0.17763   0.00000  Uiso   1.00
C52    C     0.74539   0.97822   0.67795   0.00000  Uiso   1.00
C53    C     0.80756   0.04974   0.75511   0.00000  Uiso   1.00
C54    C     0.85750   0.91835   0.81981   0.00000  Uiso   1.00
C55    C     0.95500   0.76486   0.94466   0.00000  Uiso   1.00
C56    C     0.64834   0.04020   0.60618   0.00000  Uiso   1.00
C57    C     0.62892   0.16382   0.62302   0.00000  Uiso   1.00
C58    C     0.59716   0.08461   0.62732   0.00000  Uiso   1.00
C59    C     0.54397   0.02735   0.64072   0.00000  Uiso   1.00
C60    C     0.66192   0.73575   0.57647   0.00000  Uiso   1.00
C61    C     0.63074   0.82747   0.48476   0.00000  Uiso   1.00
C62    C     0.59418   0.73383   0.39709   0.00000  Uiso   1.00
C63    C     0.56988   0.84308   0.32186   0.00000  Uiso   1.00
C64    C     0.73353   0.78241   0.66585   0.00000  Uiso   1.00
C65    C     0.78339   0.65088   0.73046   0.00000  Uiso   1.00
C66    C     0.84562   0.72218   0.80769   0.00000  Uiso   1.00
C67    C     0.63647   0.84439   0.59408   0.00000  Uiso   1.00
C68    C     0.60474   0.76496   0.59836   0.00000  Uiso   1.00
C69    C     0.58527   0.88844   0.61519   0.00000  Uiso   1.00
H70    H     0.69301   0.24870   0.60818   0.00000  Uiso   1.00
H71    H     0.62756   0.28422   0.43114   0.00000  Uiso   1.00
H72    H     0.81673   0.20128   0.76447   0.00000  Uiso   1.00
H73    H     0.63811   0.31534   0.63238   0.00000  Uiso   1.00
H74    H     0.54977   0.23724   0.22954   0.00000  Uiso   1.00
H75    H     0.94866   0.06236   0.93239   0.00000  Uiso   1.00
H76    H     0.57201   0.30289   0.65388   0.00000  Uiso   1.00
H77    H     0.65268   0.58329   0.56705   0.00000  Uiso   1.00
H78    H     0.58501   0.58230   0.38774   0.00000  Uiso   1.00
H79    H     0.77419   0.49936   0.72107   0.00000  Uiso   1.00
H80    H     0.59557   0.61343   0.58899   0.00000  Uiso   1.00
H81    H     0.51524   0.66753   0.19432   0.00000  Uiso   1.00
H82    H     0.91413   0.49266   0.89718   0.00000  Uiso   1.00
H83    H     0.53748   0.73318   0.61865   0.00000  Uiso   1.00
O84    O     0.48873   0.96373   0.09473   0.00000  Uiso   1.00
O85    O     0.01206   0.73430   0.01686   0.00000  Uiso   1.00
O86    O     0.51790   0.04987   0.65145   0.00000  Uiso   1.00
N87    N     0.55092   0.10330   0.24585   0.00000  Uiso   1.00
N88    N     0.92386   0.93980   0.90296   0.00000  Uiso   1.00
N89    N     0.57174   0.16467   0.64260   0.00000  Uiso   1.00
N90    N     0.53234   0.79675   0.22689   0.00000  Uiso   1.00
N91    N     0.90528   0.63325   0.88401   0.00000  Uiso   1.00
N92    N     0.55315   0.85811   0.62365   0.00000  Uiso   1.00
C93    C     0.68377   0.40375   0.09875   0.00000  Uiso   1.00
C94    C     0.64261   0.47671   0.99686   0.00000  Uiso   1.00
C95    C     0.61836   0.36731   0.92174   0.00000  Uiso   1.00
C96    C     0.58177   0.46076   0.83399   0.00000  Uiso   1.00
C97    C     0.51969   0.54429   0.67763   0.00000  Uiso   1.00
C98    C     0.74539   0.52178   0.17795   0.00000  Uiso   1.00
C99    C     0.80756   0.45026   0.25511   0.00000  Uiso   1.00
C100   C     0.85750   0.58165   0.31981   0.00000  Uiso   1.00
C101   C     0.95500   0.73514   0.44466   0.00000  Uiso   1.00
C102   C     0.64834   0.45980   0.10618   0.00000  Uiso   1.00
C103   C     0.62892   0.33618   0.12302   0.00000  Uiso   1.00
C104   C     0.59716   0.41539   0.12732   0.00000  Uiso   1.00
C105   C     0.54397   0.47265   0.14072   0.00000  Uiso   1.00
C106   C     0.66192   0.76425   0.07647   0.00000  Uiso   1.00
C107   C     0.63074   0.67253   0.98476   0.00000  Uiso   1.00
C108   C     0.59418   0.76617   0.89709   0.00000  Uiso   1.00
C109   C     0.56988   0.65692   0.82186   0.00000  Uiso   1.00
C110   C     0.73353   0.71759   0.16585   0.00000  Uiso   1.00
C111   C     0.78339   0.84912   0.23046   0.00000  Uiso   1.00
C112   C     0.84562   0.77782   0.30769   0.00000  Uiso   1.00
C113   C     0.63647   0.65561   0.09408   0.00000  Uiso   1.00
C114   C     0.60474   0.73504   0.09836   0.00000  Uiso   1.00
C115   C     0.58527   0.61156   0.11519   0.00000  Uiso   1.00
H116   H     0.69301   0.25130   0.10818   0.00000  Uiso   1.00
H117   H     0.62756   0.21578   0.93114   0.00000  Uiso   1.00
H118   H     0.81673   0.29872   0.26447   0.00000  Uiso   1.00
H119   H     0.63811   0.18466   0.13238   0.00000  Uiso   1.00
H120   H     0.54977   0.26276   0.72954   0.00000  Uiso   1.00
H121   H     0.94866   0.43764   0.43239   0.00000  Uiso   1.00
H122   H     0.57201   0.19711   0.15388   0.00000  Uiso   1.00
H123   H     0.65268   0.91671   0.06705   0.00000  Uiso   1.00
H124   H     0.58501   0.91770   0.88774   0.00000  Uiso   1.00
H125   H     0.77419   0.00064   0.22107   0.00000  Uiso   1.00
H126   H     0.59557   0.88657   0.08899   0.00000  Uiso   1.00
H127   H     0.51524   0.83247   0.69432   0.00000  Uiso   1.00
H128   H     0.91413   0.00734   0.39718   0.00000  Uiso   1.00
H129   H     0.53748   0.76682   0.11865   0.00000  Uiso   1.00
O130   O     0.48873   0.53627   0.59473   0.00000  Uiso   1.00
O131   O     0.01206   0.76570   0.51686   0.00000  Uiso   1.00
O132   O     0.51790   0.45013   0.15145   0.00000  Uiso   1.00
N133   N     0.55092   0.39670   0.74585   0.00000  Uiso   1.00
N134   N     0.92386   0.56020   0.40296   0.00000  Uiso   1.00
N135   N     0.57174   0.33533   0.14260   0.00000  Uiso   1.00
N136   N     0.53234   0.70325   0.72689   0.00000  Uiso   1.00
N137   N     0.90528   0.86675   0.38401   0.00000  Uiso   1.00
N138   N     0.55315   0.64189   0.12365   0.00000  Uiso   1.00
C139   C     0.31623   0.90375   0.40125   0.00000  Uiso   1.00
C140   C     0.35739   0.97671   0.50314   0.00000  Uiso   1.00
C141   C     0.38164   0.86731   0.57826   0.00000  Uiso   1.00
C142   C     0.41823   0.96076   0.66601   0.00000  Uiso   1.00
C143   C     0.48031   0.04429   0.82237   0.00000  Uiso   1.00
C144   C     0.25461   0.02178   0.32205   0.00000  Uiso   1.00
C145   C     0.19244   0.95026   0.24489   0.00000  Uiso   1.00
C146   C     0.14250   0.08165   0.18019   0.00000  Uiso   1.00
C147   C     0.04500   0.23514   0.05534   0.00000  Uiso   1.00
C148   C     0.35166   0.95980   0.39382   0.00000  Uiso   1.00
C149   C     0.37108   0.83618   0.37698   0.00000  Uiso   1.00
C150   C     0.40284   0.91539   0.37268   0.00000  Uiso   1.00
C151   C     0.45603   0.97265   0.35928   0.00000  Uiso   1.00
C152   C     0.33808   0.26425   0.42353   0.00000  Uiso   1.00
C153   C     0.36926   0.17253   0.51524   0.00000  Uiso   1.00
C154   C     0.40582   0.26617   0.60291   0.00000  Uiso   1.00
C155   C     0.43012   0.15692   0.67814   0.00000  Uiso   1.00
C156   C     0.26647   0.21759   0.33415   0.00000  Uiso   1.00
C157   C     0.21661   0.34912   0.26954   0.00000  Uiso   1.00
C158   C     0.15438   0.27782   0.19231   0.00000  Uiso   1.00
C159   C     0.36353   0.15561   0.40592   0.00000  Uiso   1.00
C160   C     0.39526   0.23504   0.40164   0.00000  Uiso   1.00
C161   C     0.41473   0.11156   0.38481   0.00000  Uiso   1.00
H162   H     0.30699   0.75130   0.39182   0.00000  Uiso   1.00
H163   H     0.37244   0.71578   0.56886   0.00000  Uiso   1.00
H164   H     0.18327   0.79872   0.23553   0.00000  Uiso   1.00
H165   H     0.36189   0.68466   0.36762   0.00000  Uiso   1.00
H166   H     0.45023   0.76276   0.77046   0.00000  Uiso   1.00
H167   H     0.05134   0.93764   0.06761   0.00000  Uiso   1.00
H168   H     0.42799   0.69711   0.34612   0.00000  Uiso   1.00
H169   H     0.34732   0.41671   0.43295   0.00000  Uiso   1.00
H170   H     0.41499   0.41770   0.61226   0.00000  Uiso   1.00
H171   H     0.22581   0.50064   0.27893   0.00000  Uiso   1.00
H172   H     0.40443   0.38657   0.41101   0.00000  Uiso   1.00
H173   H     0.48476   0.33247   0.80568   0.00000  Uiso   1.00
H174   H     0.08587   0.50734   0.10282   0.00000  Uiso   1.00
H175   H     0.46252   0.26682   0.38135   0.00000  Uiso   1.00
O176   O     0.51127   0.03627   0.90527   0.00000  Uiso   1.00
O177   O     0.98794   0.26570   0.98314   0.00000  Uiso   1.00
O178   O     0.48210   0.95013   0.34855   0.00000  Uiso   1.00
N179   N     0.44908   0.89670   0.75415   0.00000  Uiso   1.00
N180   N     0.07614   0.06020   0.09704   0.00000  Uiso   1.00
N181   N     0.42826   0.83533   0.35740   0.00000  Uiso   1.00
N182   N     0.46766   0.20325   0.77311   0.00000  Uiso   1.00
N183   N     0.09472   0.36675   0.11599   0.00000  Uiso   1.00
N184   N     0.44685   0.14189   0.37635   0.00000  Uiso   1.00
