data_job_02534
_audit_creation_date              2018-12-19
_audit_creation_method            'Materials Studio'
_symmetry_space_group_name_H-M    'P1'
_symmetry_Int_Tables_number       1
_symmetry_cell_setting            triclinic
loop_
_symmetry_equiv_pos_as_xyz
  x,y,z
_cell_length_a                    20.6509
_cell_length_b                    20.6509
_cell_length_c                    12.4105
_cell_angle_alpha                 90.0000
_cell_angle_beta                  90.0000
_cell_angle_gamma                 90.0000
loop_
_atom_site_label
_atom_site_type_symbol
_atom_site_fract_x
_atom_site_fract_y
_atom_site_fract_z
_atom_site_U_iso_or_equiv
_atom_site_adp_type
_atom_site_occupancy
C1     C     0.84090   0.43870   0.30385   0.00000  Uiso   1.00
C2     C     0.82489   0.47403   0.19928   0.00000  Uiso   1.00
C3     C     0.86765   0.51126   0.13925   0.00000  Uiso   1.00
C4     C     0.84363   0.53960   0.04600   0.00000  Uiso   1.00
C5     C     0.82857   0.59578   0.88853   0.00000  Uiso   1.00
C6     C     0.79264   0.46340   0.38728   0.00000  Uiso   1.00
C7     C     0.80828   0.49170   0.48532   0.00000  Uiso   1.00
C8     C     0.75712   0.51108   0.55034   0.00000  Uiso   1.00
C9     C     0.69199   0.55073   0.68477   0.00000  Uiso   1.00
C10    C     0.82383   0.36780   0.28466   0.00000  Uiso   1.00
C11    C     0.86569   0.31570   0.29644   0.00000  Uiso   1.00
C12    C     0.84078   0.25458   0.27507   0.00000  Uiso   1.00
C13    C     0.82408   0.14579   0.25017   0.00000  Uiso   1.00
C14    C     0.72222   0.42281   0.24500   0.00000  Uiso   1.00
C15    C     0.76043   0.46539   0.16732   0.00000  Uiso   1.00
C16    C     0.73634   0.49368   0.07414   0.00000  Uiso   1.00
C17    C     0.77905   0.53095   0.01397   0.00000  Uiso   1.00
C18    C     0.72818   0.45477   0.35532   0.00000  Uiso   1.00
C19    C     0.67698   0.47411   0.42021   0.00000  Uiso   1.00
C20    C     0.69254   0.50243   0.51832   0.00000  Uiso   1.00
C21    C     0.75937   0.35916   0.25269   0.00000  Uiso   1.00
C22    C     0.73439   0.29811   0.23132   0.00000  Uiso   1.00
C23    C     0.77620   0.24593   0.24305   0.00000  Uiso   1.00
H24    H     0.89108   0.44543   0.32874   0.00000  Uiso   1.00
H25    H     0.91753   0.51794   0.16402   0.00000  Uiso   1.00
H26    H     0.85817   0.49837   0.51004   0.00000  Uiso   1.00
H27    H     0.91557   0.32240   0.32117   0.00000  Uiso   1.00
H28    H     0.91841   0.59454   0.96732   0.00000  Uiso   1.00
H29    H     0.79326   0.55326   0.69694   0.00000  Uiso   1.00
H30    H     0.91429   0.18219   0.29869   0.00000  Uiso   1.00
H31    H     0.67203   0.41608   0.22011   0.00000  Uiso   1.00
H32    H     0.68646   0.48699   0.04942   0.00000  Uiso   1.00
H33    H     0.62710   0.46742   0.39545   0.00000  Uiso   1.00
H34    H     0.68450   0.29145   0.20658   0.00000  Uiso   1.00
H35    H     0.73087   0.56942   0.87431   0.00000  Uiso   1.00
H36    H     0.60571   0.52813   0.60394   0.00000  Uiso   1.00
H37    H     0.72675   0.15707   0.20568   0.00000  Uiso   1.00
O38    O     0.83807   0.62917   0.81051   0.00000  Uiso   1.00
O39    O     0.67388   0.57499   0.76775   0.00000  Uiso   1.00
O40    O     0.83267   0.08816   0.24525   0.00000  Uiso   1.00
N41    N     0.87230   0.57889   0.96884   0.00000  Uiso   1.00
N42    N     0.75529   0.54030   0.65099   0.00000  Uiso   1.00
N43    N     0.86844   0.19338   0.27868   0.00000  Uiso   1.00
N44    N     0.77138   0.56537   0.91879   0.00000  Uiso   1.00
N45    N     0.65437   0.52678   0.60094   0.00000  Uiso   1.00
N46    N     0.76752   0.17986   0.22863   0.00000  Uiso   1.00
C47    C     0.15910   0.56130   0.30385   0.00000  Uiso   1.00
C48    C     0.17511   0.52597   0.19928   0.00000  Uiso   1.00
C49    C     0.13235   0.48874   0.13925   0.00000  Uiso   1.00
C50    C     0.15637   0.46040   0.04600   0.00000  Uiso   1.00
C51    C     0.17143   0.40422   0.88853   0.00000  Uiso   1.00
C52    C     0.20736   0.53660   0.38728   0.00000  Uiso   1.00
C53    C     0.19172   0.50830   0.48532   0.00000  Uiso   1.00
C54    C     0.24288   0.48892   0.55034   0.00000  Uiso   1.00
C55    C     0.30801   0.44927   0.68477   0.00000  Uiso   1.00
C56    C     0.17617   0.63220   0.28466   0.00000  Uiso   1.00
C57    C     0.13431   0.68430   0.29644   0.00000  Uiso   1.00
C58    C     0.15922   0.74542   0.27507   0.00000  Uiso   1.00
C59    C     0.17592   0.85421   0.25017   0.00000  Uiso   1.00
C60    C     0.27778   0.57719   0.24500   0.00000  Uiso   1.00
C61    C     0.23957   0.53461   0.16732   0.00000  Uiso   1.00
C62    C     0.26366   0.50632   0.07414   0.00000  Uiso   1.00
C63    C     0.22095   0.46905   0.01397   0.00000  Uiso   1.00
C64    C     0.27182   0.54523   0.35532   0.00000  Uiso   1.00
C65    C     0.32302   0.52589   0.42021   0.00000  Uiso   1.00
C66    C     0.30746   0.49757   0.51832   0.00000  Uiso   1.00
C67    C     0.24063   0.64084   0.25269   0.00000  Uiso   1.00
C68    C     0.26561   0.70189   0.23132   0.00000  Uiso   1.00
C69    C     0.22380   0.75407   0.24305   0.00000  Uiso   1.00
H70    H     0.10892   0.55457   0.32874   0.00000  Uiso   1.00
H71    H     0.08247   0.48206   0.16402   0.00000  Uiso   1.00
H72    H     0.14183   0.50163   0.51004   0.00000  Uiso   1.00
H73    H     0.08443   0.67760   0.32117   0.00000  Uiso   1.00
H74    H     0.08159   0.40546   0.96732   0.00000  Uiso   1.00
H75    H     0.20674   0.44674   0.69694   0.00000  Uiso   1.00
H76    H     0.08571   0.81781   0.29869   0.00000  Uiso   1.00
H77    H     0.32797   0.58392   0.22011   0.00000  Uiso   1.00
H78    H     0.31354   0.51301   0.04942   0.00000  Uiso   1.00
H79    H     0.37290   0.53258   0.39545   0.00000  Uiso   1.00
H80    H     0.31550   0.70855   0.20658   0.00000  Uiso   1.00
H81    H     0.26913   0.43058   0.87431   0.00000  Uiso   1.00
H82    H     0.39429   0.47187   0.60394   0.00000  Uiso   1.00
H83    H     0.27325   0.84293   0.20568   0.00000  Uiso   1.00
O84    O     0.16193   0.37083   0.81051   0.00000  Uiso   1.00
O85    O     0.32612   0.42501   0.76775   0.00000  Uiso   1.00
O86    O     0.16733   0.91184   0.24525   0.00000  Uiso   1.00
N87    N     0.12770   0.42111   0.96884   0.00000  Uiso   1.00
N88    N     0.24471   0.45970   0.65099   0.00000  Uiso   1.00
N89    N     0.13156   0.80662   0.27868   0.00000  Uiso   1.00
N90    N     0.22862   0.43463   0.91879   0.00000  Uiso   1.00
N91    N     0.34563   0.47322   0.60094   0.00000  Uiso   1.00
N92    N     0.23248   0.82014   0.22863   0.00000  Uiso   1.00
C93    C     0.06130   0.34090   0.30385   0.00000  Uiso   1.00
C94    C     0.02597   0.32489   0.19928   0.00000  Uiso   1.00
C95    C     0.98874   0.36765   0.13925   0.00000  Uiso   1.00
C96    C     0.96040   0.34363   0.04600   0.00000  Uiso   1.00
C97    C     0.90422   0.32857   0.88853   0.00000  Uiso   1.00
C98    C     0.03660   0.29264   0.38728   0.00000  Uiso   1.00
C99    C     0.00830   0.30828   0.48532   0.00000  Uiso   1.00
C100   C     0.98892   0.25712   0.55034   0.00000  Uiso   1.00
C101   C     0.94927   0.19199   0.68477   0.00000  Uiso   1.00
C102   C     0.13220   0.32383   0.28466   0.00000  Uiso   1.00
C103   C     0.18430   0.36569   0.29644   0.00000  Uiso   1.00
C104   C     0.24542   0.34078   0.27507   0.00000  Uiso   1.00
C105   C     0.35421   0.32408   0.25017   0.00000  Uiso   1.00
C106   C     0.07719   0.22222   0.24500   0.00000  Uiso   1.00
C107   C     0.03461   0.26043   0.16732   0.00000  Uiso   1.00
C108   C     0.00632   0.23634   0.07414   0.00000  Uiso   1.00
C109   C     0.96905   0.27905   0.01397   0.00000  Uiso   1.00
C110   C     0.04523   0.22818   0.35532   0.00000  Uiso   1.00
C111   C     0.02589   0.17698   0.42021   0.00000  Uiso   1.00
C112   C     0.99757   0.19254   0.51832   0.00000  Uiso   1.00
C113   C     0.14084   0.25937   0.25269   0.00000  Uiso   1.00
C114   C     0.20189   0.23439   0.23132   0.00000  Uiso   1.00
C115   C     0.25407   0.27620   0.24305   0.00000  Uiso   1.00
H116   H     0.05457   0.39108   0.32874   0.00000  Uiso   1.00
H117   H     0.98206   0.41753   0.16402   0.00000  Uiso   1.00
H118   H     0.00163   0.35817   0.51004   0.00000  Uiso   1.00
H119   H     0.17760   0.41557   0.32117   0.00000  Uiso   1.00
H120   H     0.90546   0.41841   0.96732   0.00000  Uiso   1.00
H121   H     0.94674   0.29326   0.69694   0.00000  Uiso   1.00
H122   H     0.31781   0.41429   0.29869   0.00000  Uiso   1.00
H123   H     0.08392   0.17203   0.22011   0.00000  Uiso   1.00
H124   H     0.01301   0.18646   0.04942   0.00000  Uiso   1.00
H125   H     0.03258   0.12710   0.39545   0.00000  Uiso   1.00
H126   H     0.20855   0.18450   0.20658   0.00000  Uiso   1.00
H127   H     0.93058   0.23087   0.87431   0.00000  Uiso   1.00
H128   H     0.97187   0.10571   0.60394   0.00000  Uiso   1.00
H129   H     0.34293   0.22675   0.20568   0.00000  Uiso   1.00
O130   O     0.87083   0.33807   0.81051   0.00000  Uiso   1.00
O131   O     0.92501   0.17388   0.76775   0.00000  Uiso   1.00
O132   O     0.41184   0.33267   0.24525   0.00000  Uiso   1.00
N133   N     0.92111   0.37230   0.96884   0.00000  Uiso   1.00
N134   N     0.95970   0.25529   0.65099   0.00000  Uiso   1.00
N135   N     0.30662   0.36844   0.27868   0.00000  Uiso   1.00
N136   N     0.93463   0.27138   0.91879   0.00000  Uiso   1.00
N137   N     0.97322   0.15437   0.60094   0.00000  Uiso   1.00
N138   N     0.32014   0.26752   0.22863   0.00000  Uiso   1.00
C139   C     0.93870   0.65910   0.30385   0.00000  Uiso   1.00
C140   C     0.97403   0.67511   0.19928   0.00000  Uiso   1.00
C141   C     0.01126   0.63235   0.13925   0.00000  Uiso   1.00
C142   C     0.03960   0.65637   0.04600   0.00000  Uiso   1.00
C143   C     0.09578   0.67143   0.88853   0.00000  Uiso   1.00
C144   C     0.96340   0.70736   0.38728   0.00000  Uiso   1.00
C145   C     0.99170   0.69172   0.48532   0.00000  Uiso   1.00
C146   C     0.01108   0.74288   0.55034   0.00000  Uiso   1.00
C147   C     0.05073   0.80801   0.68477   0.00000  Uiso   1.00
C148   C     0.86780   0.67617   0.28466   0.00000  Uiso   1.00
C149   C     0.81570   0.63431   0.29644   0.00000  Uiso   1.00
C150   C     0.75458   0.65922   0.27507   0.00000  Uiso   1.00
C151   C     0.64579   0.67592   0.25017   0.00000  Uiso   1.00
C152   C     0.92281   0.77778   0.24500   0.00000  Uiso   1.00
C153   C     0.96539   0.73957   0.16732   0.00000  Uiso   1.00
C154   C     0.99368   0.76366   0.07414   0.00000  Uiso   1.00
C155   C     0.03095   0.72095   0.01397   0.00000  Uiso   1.00
C156   C     0.95477   0.77182   0.35532   0.00000  Uiso   1.00
C157   C     0.97411   0.82302   0.42021   0.00000  Uiso   1.00
C158   C     0.00243   0.80746   0.51832   0.00000  Uiso   1.00
C159   C     0.85916   0.74063   0.25269   0.00000  Uiso   1.00
C160   C     0.79811   0.76561   0.23132   0.00000  Uiso   1.00
C161   C     0.74593   0.72380   0.24305   0.00000  Uiso   1.00
H162   H     0.94543   0.60892   0.32874   0.00000  Uiso   1.00
H163   H     0.01794   0.58247   0.16402   0.00000  Uiso   1.00
H164   H     0.99837   0.64183   0.51004   0.00000  Uiso   1.00
H165   H     0.82240   0.58443   0.32117   0.00000  Uiso   1.00
H166   H     0.09454   0.58159   0.96732   0.00000  Uiso   1.00
H167   H     0.05326   0.70674   0.69694   0.00000  Uiso   1.00
H168   H     0.68219   0.58571   0.29869   0.00000  Uiso   1.00
H169   H     0.91608   0.82797   0.22011   0.00000  Uiso   1.00
H170   H     0.98699   0.81354   0.04942   0.00000  Uiso   1.00
H171   H     0.96742   0.87290   0.39545   0.00000  Uiso   1.00
H172   H     0.79145   0.81550   0.20658   0.00000  Uiso   1.00
H173   H     0.06942   0.76913   0.87431   0.00000  Uiso   1.00
H174   H     0.02813   0.89429   0.60394   0.00000  Uiso   1.00
H175   H     0.65707   0.77325   0.20568   0.00000  Uiso   1.00
O176   O     0.12917   0.66193   0.81051   0.00000  Uiso   1.00
O177   O     0.07499   0.82612   0.76775   0.00000  Uiso   1.00
O178   O     0.58816   0.66733   0.24525   0.00000  Uiso   1.00
N179   N     0.07889   0.62770   0.96884   0.00000  Uiso   1.00
N180   N     0.04030   0.74471   0.65099   0.00000  Uiso   1.00
N181   N     0.69338   0.63156   0.27868   0.00000  Uiso   1.00
N182   N     0.06537   0.72862   0.91879   0.00000  Uiso   1.00
N183   N     0.02678   0.84563   0.60094   0.00000  Uiso   1.00
N184   N     0.67986   0.73248   0.22863   0.00000  Uiso   1.00
C185   C     0.65910   0.06130   0.69615   0.00000  Uiso   1.00
C186   C     0.67511   0.02597   0.80072   0.00000  Uiso   1.00
C187   C     0.63235   0.98874   0.86075   0.00000  Uiso   1.00
C188   C     0.65637   0.96040   0.95400   0.00000  Uiso   1.00
C189   C     0.67143   0.90422   0.11147   0.00000  Uiso   1.00
C190   C     0.70736   0.03660   0.61272   0.00000  Uiso   1.00
C191   C     0.69172   0.00830   0.51468   0.00000  Uiso   1.00
C192   C     0.74288   0.98892   0.44966   0.00000  Uiso   1.00
C193   C     0.80801   0.94927   0.31523   0.00000  Uiso   1.00
C194   C     0.67617   0.13220   0.71534   0.00000  Uiso   1.00
C195   C     0.63431   0.18430   0.70356   0.00000  Uiso   1.00
C196   C     0.65922   0.24542   0.72493   0.00000  Uiso   1.00
C197   C     0.67592   0.35421   0.74983   0.00000  Uiso   1.00
C198   C     0.77778   0.07719   0.75500   0.00000  Uiso   1.00
C199   C     0.73957   0.03461   0.83268   0.00000  Uiso   1.00
C200   C     0.76366   0.00632   0.92586   0.00000  Uiso   1.00
C201   C     0.72095   0.96905   0.98603   0.00000  Uiso   1.00
C202   C     0.77182   0.04523   0.64468   0.00000  Uiso   1.00
C203   C     0.82302   0.02589   0.57979   0.00000  Uiso   1.00
C204   C     0.80746   0.99757   0.48168   0.00000  Uiso   1.00
C205   C     0.74063   0.14084   0.74731   0.00000  Uiso   1.00
C206   C     0.76561   0.20189   0.76868   0.00000  Uiso   1.00
C207   C     0.72380   0.25407   0.75695   0.00000  Uiso   1.00
H208   H     0.60892   0.05457   0.67126   0.00000  Uiso   1.00
H209   H     0.58247   0.98206   0.83598   0.00000  Uiso   1.00
H210   H     0.64183   0.00163   0.48996   0.00000  Uiso   1.00
H211   H     0.58443   0.17760   0.67883   0.00000  Uiso   1.00
H212   H     0.58159   0.90546   0.03268   0.00000  Uiso   1.00
H213   H     0.70674   0.94674   0.30306   0.00000  Uiso   1.00
H214   H     0.58571   0.31781   0.70131   0.00000  Uiso   1.00
H215   H     0.82797   0.08392   0.77989   0.00000  Uiso   1.00
H216   H     0.81354   0.01301   0.95058   0.00000  Uiso   1.00
H217   H     0.87290   0.03258   0.60455   0.00000  Uiso   1.00
H218   H     0.81550   0.20855   0.79342   0.00000  Uiso   1.00
H219   H     0.76913   0.93058   0.12569   0.00000  Uiso   1.00
H220   H     0.89429   0.97187   0.39606   0.00000  Uiso   1.00
H221   H     0.77325   0.34293   0.79432   0.00000  Uiso   1.00
O222   O     0.66193   0.87083   0.18949   0.00000  Uiso   1.00
O223   O     0.82612   0.92501   0.23225   0.00000  Uiso   1.00
O224   O     0.66733   0.41184   0.75475   0.00000  Uiso   1.00
N225   N     0.62770   0.92111   0.03116   0.00000  Uiso   1.00
N226   N     0.74471   0.95970   0.34901   0.00000  Uiso   1.00
N227   N     0.63156   0.30662   0.72132   0.00000  Uiso   1.00
N228   N     0.72862   0.93463   0.08121   0.00000  Uiso   1.00
N229   N     0.84563   0.97322   0.39906   0.00000  Uiso   1.00
N230   N     0.73248   0.32014   0.77137   0.00000  Uiso   1.00
C231   C     0.34090   0.93870   0.69615   0.00000  Uiso   1.00
C232   C     0.32489   0.97403   0.80072   0.00000  Uiso   1.00
C233   C     0.36765   0.01126   0.86075   0.00000  Uiso   1.00
C234   C     0.34363   0.03960   0.95400   0.00000  Uiso   1.00
C235   C     0.32857   0.09578   0.11147   0.00000  Uiso   1.00
C236   C     0.29264   0.96340   0.61272   0.00000  Uiso   1.00
C237   C     0.30828   0.99170   0.51468   0.00000  Uiso   1.00
C238   C     0.25712   0.01108   0.44966   0.00000  Uiso   1.00
C239   C     0.19199   0.05073   0.31523   0.00000  Uiso   1.00
C240   C     0.32383   0.86780   0.71534   0.00000  Uiso   1.00
C241   C     0.36569   0.81570   0.70356   0.00000  Uiso   1.00
C242   C     0.34078   0.75458   0.72493   0.00000  Uiso   1.00
C243   C     0.32408   0.64579   0.74983   0.00000  Uiso   1.00
C244   C     0.22222   0.92281   0.75500   0.00000  Uiso   1.00
C245   C     0.26043   0.96539   0.83268   0.00000  Uiso   1.00
C246   C     0.23634   0.99368   0.92586   0.00000  Uiso   1.00
C247   C     0.27905   0.03095   0.98603   0.00000  Uiso   1.00
C248   C     0.22818   0.95477   0.64468   0.00000  Uiso   1.00
C249   C     0.17698   0.97411   0.57979   0.00000  Uiso   1.00
C250   C     0.19254   0.00243   0.48168   0.00000  Uiso   1.00
C251   C     0.25937   0.85916   0.74731   0.00000  Uiso   1.00
C252   C     0.23439   0.79811   0.76868   0.00000  Uiso   1.00
C253   C     0.27620   0.74593   0.75695   0.00000  Uiso   1.00
H254   H     0.39108   0.94543   0.67126   0.00000  Uiso   1.00
H255   H     0.41753   0.01794   0.83598   0.00000  Uiso   1.00
H256   H     0.35817   0.99837   0.48996   0.00000  Uiso   1.00
H257   H     0.41557   0.82240   0.67883   0.00000  Uiso   1.00
H258   H     0.41841   0.09454   0.03268   0.00000  Uiso   1.00
H259   H     0.29326   0.05326   0.30306   0.00000  Uiso   1.00
H260   H     0.41429   0.68219   0.70131   0.00000  Uiso   1.00
H261   H     0.17203   0.91608   0.77989   0.00000  Uiso   1.00
H262   H     0.18646   0.98699   0.95058   0.00000  Uiso   1.00
H263   H     0.12710   0.96742   0.60455   0.00000  Uiso   1.00
H264   H     0.18450   0.79145   0.79342   0.00000  Uiso   1.00
H265   H     0.23087   0.06942   0.12569   0.00000  Uiso   1.00
H266   H     0.10571   0.02813   0.39606   0.00000  Uiso   1.00
H267   H     0.22675   0.65707   0.79432   0.00000  Uiso   1.00
O268   O     0.33807   0.12917   0.18949   0.00000  Uiso   1.00
O269   O     0.17388   0.07499   0.23225   0.00000  Uiso   1.00
O270   O     0.33267   0.58816   0.75475   0.00000  Uiso   1.00
N271   N     0.37230   0.07889   0.03116   0.00000  Uiso   1.00
N272   N     0.25529   0.04030   0.34901   0.00000  Uiso   1.00
N273   N     0.36844   0.69338   0.72132   0.00000  Uiso   1.00
N274   N     0.27138   0.06537   0.08121   0.00000  Uiso   1.00
N275   N     0.15437   0.02678   0.39906   0.00000  Uiso   1.00
N276   N     0.26752   0.67986   0.77137   0.00000  Uiso   1.00
C277   C     0.43870   0.15910   0.69615   0.00000  Uiso   1.00
C278   C     0.47403   0.17511   0.80072   0.00000  Uiso   1.00
C279   C     0.51126   0.13235   0.86075   0.00000  Uiso   1.00
C280   C     0.53960   0.15637   0.95400   0.00000  Uiso   1.00
C281   C     0.59578   0.17143   0.11147   0.00000  Uiso   1.00
C282   C     0.46340   0.20736   0.61272   0.00000  Uiso   1.00
C283   C     0.49170   0.19172   0.51468   0.00000  Uiso   1.00
C284   C     0.51108   0.24288   0.44966   0.00000  Uiso   1.00
C285   C     0.55073   0.30801   0.31523   0.00000  Uiso   1.00
C286   C     0.36780   0.17617   0.71534   0.00000  Uiso   1.00
C287   C     0.31570   0.13431   0.70356   0.00000  Uiso   1.00
C288   C     0.25458   0.15922   0.72493   0.00000  Uiso   1.00
C289   C     0.14579   0.17592   0.74983   0.00000  Uiso   1.00
C290   C     0.42281   0.27778   0.75500   0.00000  Uiso   1.00
C291   C     0.46539   0.23957   0.83268   0.00000  Uiso   1.00
C292   C     0.49368   0.26366   0.92586   0.00000  Uiso   1.00
C293   C     0.53095   0.22095   0.98603   0.00000  Uiso   1.00
C294   C     0.45477   0.27182   0.64468   0.00000  Uiso   1.00
C295   C     0.47411   0.32302   0.57979   0.00000  Uiso   1.00
C296   C     0.50243   0.30746   0.48168   0.00000  Uiso   1.00
C297   C     0.35916   0.24063   0.74731   0.00000  Uiso   1.00
C298   C     0.29811   0.26561   0.76868   0.00000  Uiso   1.00
C299   C     0.24593   0.22380   0.75695   0.00000  Uiso   1.00
H300   H     0.44543   0.10892   0.67126   0.00000  Uiso   1.00
H301   H     0.51794   0.08247   0.83598   0.00000  Uiso   1.00
H302   H     0.49837   0.14183   0.48996   0.00000  Uiso   1.00
H303   H     0.32240   0.08443   0.67883   0.00000  Uiso   1.00
H304   H     0.59454   0.08159   0.03268   0.00000  Uiso   1.00
H305   H     0.55326   0.20674   0.30306   0.00000  Uiso   1.00
H306   H     0.18219   0.08571   0.70131   0.00000  Uiso   1.00
H307   H     0.41608   0.32797   0.77989   0.00000  Uiso   1.00
H308   H     0.48699   0.31354   0.95058   0.00000  Uiso   1.00
H309   H     0.46742   0.37290   0.60455   0.00000  Uiso   1.00
H310   H     0.29145   0.31550   0.79342   0.00000  Uiso   1.00
H311   H     0.56942   0.26913   0.12569   0.00000  Uiso   1.00
H312   H     0.52813   0.39429   0.39606   0.00000  Uiso   1.00
H313   H     0.15707   0.27325   0.79432   0.00000  Uiso   1.00
O314   O     0.62917   0.16193   0.18949   0.00000  Uiso   1.00
O315   O     0.57499   0.32612   0.23225   0.00000  Uiso   1.00
O316   O     0.08816   0.16733   0.75475   0.00000  Uiso   1.00
N317   N     0.57889   0.12770   0.03116   0.00000  Uiso   1.00
N318   N     0.54030   0.24471   0.34901   0.00000  Uiso   1.00
N319   N     0.19338   0.13156   0.72132   0.00000  Uiso   1.00
N320   N     0.56537   0.22862   0.08121   0.00000  Uiso   1.00
N321   N     0.52678   0.34563   0.39906   0.00000  Uiso   1.00
N322   N     0.17986   0.23248   0.77137   0.00000  Uiso   1.00
C323   C     0.56130   0.84090   0.69615   0.00000  Uiso   1.00
C324   C     0.52597   0.82489   0.80072   0.00000  Uiso   1.00
C325   C     0.48874   0.86765   0.86075   0.00000  Uiso   1.00
C326   C     0.46040   0.84363   0.95400   0.00000  Uiso   1.00
C327   C     0.40422   0.82857   0.11147   0.00000  Uiso   1.00
C328   C     0.53660   0.79264   0.61272   0.00000  Uiso   1.00
C329   C     0.50830   0.80828   0.51468   0.00000  Uiso   1.00
C330   C     0.48892   0.75712   0.44966   0.00000  Uiso   1.00
C331   C     0.44927   0.69199   0.31523   0.00000  Uiso   1.00
C332   C     0.63220   0.82383   0.71534   0.00000  Uiso   1.00
C333   C     0.68430   0.86569   0.70356   0.00000  Uiso   1.00
C334   C     0.74542   0.84078   0.72493   0.00000  Uiso   1.00
C335   C     0.85421   0.82408   0.74983   0.00000  Uiso   1.00
C336   C     0.57719   0.72222   0.75500   0.00000  Uiso   1.00
C337   C     0.53461   0.76043   0.83268   0.00000  Uiso   1.00
C338   C     0.50632   0.73634   0.92586   0.00000  Uiso   1.00
C339   C     0.46905   0.77905   0.98603   0.00000  Uiso   1.00
C340   C     0.54523   0.72818   0.64468   0.00000  Uiso   1.00
C341   C     0.52589   0.67698   0.57979   0.00000  Uiso   1.00
C342   C     0.49757   0.69254   0.48168   0.00000  Uiso   1.00
C343   C     0.64084   0.75937   0.74731   0.00000  Uiso   1.00
C344   C     0.70189   0.73439   0.76868   0.00000  Uiso   1.00
C345   C     0.75407   0.77620   0.75695   0.00000  Uiso   1.00
H346   H     0.55457   0.89108   0.67126   0.00000  Uiso   1.00
H347   H     0.48206   0.91753   0.83598   0.00000  Uiso   1.00
H348   H     0.50163   0.85817   0.48996   0.00000  Uiso   1.00
H349   H     0.67760   0.91557   0.67883   0.00000  Uiso   1.00
H350   H     0.40546   0.91841   0.03268   0.00000  Uiso   1.00
H351   H     0.44674   0.79326   0.30306   0.00000  Uiso   1.00
H352   H     0.81781   0.91429   0.70131   0.00000  Uiso   1.00
H353   H     0.58392   0.67203   0.77989   0.00000  Uiso   1.00
H354   H     0.51301   0.68646   0.95058   0.00000  Uiso   1.00
H355   H     0.53258   0.62710   0.60455   0.00000  Uiso   1.00
H356   H     0.70855   0.68450   0.79342   0.00000  Uiso   1.00
H357   H     0.43058   0.73087   0.12569   0.00000  Uiso   1.00
H358   H     0.47187   0.60571   0.39606   0.00000  Uiso   1.00
H359   H     0.84293   0.72675   0.79432   0.00000  Uiso   1.00
O360   O     0.37083   0.83807   0.18949   0.00000  Uiso   1.00
O361   O     0.42501   0.67388   0.23225   0.00000  Uiso   1.00
O362   O     0.91184   0.83267   0.75475   0.00000  Uiso   1.00
N363   N     0.42111   0.87230   0.03116   0.00000  Uiso   1.00
N364   N     0.45970   0.75529   0.34901   0.00000  Uiso   1.00
N365   N     0.80662   0.86844   0.72132   0.00000  Uiso   1.00
N366   N     0.43463   0.77138   0.08121   0.00000  Uiso   1.00
N367   N     0.47322   0.65437   0.39906   0.00000  Uiso   1.00
N368   N     0.82014   0.76752   0.77137   0.00000  Uiso   1.00
