data_job_03588
_audit_creation_date              2018-12-19
_audit_creation_method            'Materials Studio'
_symmetry_space_group_name_H-M    'P1'
_symmetry_Int_Tables_number       1
_symmetry_cell_setting            triclinic
loop_
_symmetry_equiv_pos_as_xyz
  x,y,z
_cell_length_a                    20.3023
_cell_length_b                    12.4615
_cell_length_c                    27.9056
_cell_angle_alpha                 90.0000
_cell_angle_beta                  90.0000
_cell_angle_gamma                 90.0000
loop_
_atom_site_label
_atom_site_type_symbol
_atom_site_fract_x
_atom_site_fract_y
_atom_site_fract_z
_atom_site_U_iso_or_equiv
_atom_site_adp_type
_atom_site_occupancy
C1     C     0.64028   0.43881   0.90276   0.00000  Uiso   1.00
C2     C     0.60477   0.33111   0.90038   0.00000  Uiso   1.00
C3     C     0.58817   0.26742   0.93935   0.00000  Uiso   1.00
C4     C     0.55580   0.17170   0.92967   0.00000  Uiso   1.00
C5     C     0.50301   0.00913   0.93312   0.00000  Uiso   1.00
C6     C     0.70126   0.42733   0.87128   0.00000  Uiso   1.00
C7     C     0.76579   0.44457   0.88577   0.00000  Uiso   1.00
C8     C     0.81465   0.42986   0.85159   0.00000  Uiso   1.00
C9     C     0.91166   0.41676   0.80984   0.00000  Uiso   1.00
C10    C     0.59564   0.51911   0.87735   0.00000  Uiso   1.00
C11    C     0.57137   0.61352   0.89695   0.00000  Uiso   1.00
C12    C     0.53132   0.67610   0.86787   0.00000  Uiso   1.00
C13    C     0.46433   0.80548   0.83556   0.00000  Uiso   1.00
C14    C     0.61231   0.38208   0.81627   0.00000  Uiso   1.00
C15    C     0.58958   0.30029   0.85340   0.00000  Uiso   1.00
C16    C     0.55723   0.20465   0.84366   0.00000  Uiso   1.00
C17    C     0.54058   0.14083   0.88260   0.00000  Uiso   1.00
C18    C     0.68608   0.39652   0.82430   0.00000  Uiso   1.00
C19    C     0.73485   0.38179   0.79008   0.00000  Uiso   1.00
C20    C     0.79944   0.39899   0.80452   0.00000  Uiso   1.00
C21    C     0.58045   0.48829   0.83037   0.00000  Uiso   1.00
C22    C     0.54043   0.55074   0.80126   0.00000  Uiso   1.00
C23    C     0.51610   0.64523   0.82081   0.00000  Uiso   1.00
H24    H     0.65211   0.46280   0.93934   0.00000  Uiso   1.00
H25    H     0.59994   0.29129   0.97570   0.00000  Uiso   1.00
H26    H     0.77753   0.46842   0.92213   0.00000  Uiso   1.00
H27    H     0.58314   0.63734   0.93331   0.00000  Uiso   1.00
H28    H     0.53542   0.08753   0.99530   0.00000  Uiso   1.00
H29    H     0.90989   0.46105   0.88234   0.00000  Uiso   1.00
H30    H     0.49997   0.81726   0.90591   0.00000  Uiso   1.00
H31    H     0.60049   0.35808   0.77969   0.00000  Uiso   1.00
H32    H     0.54548   0.18082   0.80730   0.00000  Uiso   1.00
H33    H     0.72308   0.35795   0.75373   0.00000  Uiso   1.00
H34    H     0.52868   0.52687   0.76491   0.00000  Uiso   1.00
H35    H     0.49123   0.99787   0.85862   0.00000  Uiso   1.00
H36    H     0.86569   0.37139   0.74566   0.00000  Uiso   1.00
H37    H     0.45577   0.72759   0.76922   0.00000  Uiso   1.00
O38    O     0.47809   0.92796   0.94800   0.00000  Uiso   1.00
O39    O     0.96937   0.41803   0.79980   0.00000  Uiso   1.00
O40    O     0.43157   0.88536   0.83072   0.00000  Uiso   1.00
N41    N     0.53256   0.09076   0.95934   0.00000  Uiso   1.00
N42    N     0.88266   0.43997   0.85374   0.00000  Uiso   1.00
N43    N     0.49944   0.77301   0.87576   0.00000  Uiso   1.00
N44    N     0.50877   0.04252   0.88580   0.00000  Uiso   1.00
N45    N     0.85888   0.39172   0.78019   0.00000  Uiso   1.00
N46    N     0.47566   0.72476   0.80222   0.00000  Uiso   1.00
C47    C     0.40114   0.53400   0.10221   0.00000  Uiso   1.00
C48    C     0.43260   0.64507   0.10371   0.00000  Uiso   1.00
C49    C     0.44339   0.71126   0.06449   0.00000  Uiso   1.00
C50    C     0.47280   0.80987   0.07334   0.00000  Uiso   1.00
C51    C     0.51889   0.97762   0.06860   0.00000  Uiso   1.00
C52    C     0.34262   0.53845   0.13641   0.00000  Uiso   1.00
C53    C     0.27777   0.51497   0.12470   0.00000  Uiso   1.00
C54    C     0.23144   0.52382   0.16108   0.00000  Uiso   1.00
C55    C     0.13785   0.52594   0.20714   0.00000  Uiso   1.00
C56    C     0.45083   0.45785   0.12507   0.00000  Uiso   1.00
C57    C     0.47694   0.36658   0.10382   0.00000  Uiso   1.00
C58    C     0.52170   0.30755   0.13066   0.00000  Uiso   1.00
C59    C     0.59612   0.18453   0.15910   0.00000  Uiso   1.00
C60    C     0.43418   0.59143   0.18766   0.00000  Uiso   1.00
C61    C     0.45054   0.67626   0.15012   0.00000  Uiso   1.00
C62    C     0.47995   0.77480   0.15903   0.00000  Uiso   1.00
C63    C     0.49078   0.84112   0.11983   0.00000  Uiso   1.00
C64    C     0.36057   0.56964   0.18282   0.00000  Uiso   1.00
C65    C     0.31432   0.57851   0.21924   0.00000  Uiso   1.00
C66    C     0.24941   0.55507   0.20758   0.00000  Uiso   1.00
C67    C     0.46878   0.48904   0.17148   0.00000  Uiso   1.00
C68    C     0.51350   0.43013   0.19836   0.00000  Uiso   1.00
C69    C     0.53968   0.33880   0.17715   0.00000  Uiso   1.00
H70    H     0.38716   0.50971   0.06608   0.00000  Uiso   1.00
H71    H     0.42949   0.68710   0.02858   0.00000  Uiso   1.00
H72    H     0.26390   0.49083   0.08878   0.00000  Uiso   1.00
H73    H     0.46304   0.34247   0.06791   0.00000  Uiso   1.00
H74    H     0.48431   0.89753   0.00747   0.00000  Uiso   1.00
H75    H     0.13515   0.48365   0.13442   0.00000  Uiso   1.00
H76    H     0.55509   0.17080   0.09039   0.00000  Uiso   1.00
H77    H     0.44815   0.61571   0.22379   0.00000  Uiso   1.00
H78    H     0.49383   0.79892   0.19495   0.00000  Uiso   1.00
H79    H     0.32823   0.60265   0.25515   0.00000  Uiso   1.00
H80    H     0.52738   0.45429   0.23427   0.00000  Uiso   1.00
H81    H     0.53653   0.98829   0.14250   0.00000  Uiso   1.00
H82    H     0.18736   0.57440   0.26945   0.00000  Uiso   1.00
H83    H     0.60730   0.26156   0.22542   0.00000  Uiso   1.00
O84    O     0.53935   0.06153   0.05317   0.00000  Uiso   1.00
O85    O     0.08126   0.51851   0.21971   0.00000  Uiso   1.00
O86    O     0.63221   0.10807   0.16196   0.00000  Uiso   1.00
N87    N     0.49034   0.89374   0.04321   0.00000  Uiso   1.00
N88    N     0.16390   0.50680   0.16189   0.00000  Uiso   1.00
N89    N     0.55649   0.21430   0.12074   0.00000  Uiso   1.00
N90    N     0.51844   0.94257   0.11587   0.00000  Uiso   1.00
N91    N     0.19199   0.55564   0.23455   0.00000  Uiso   1.00
N92    N     0.58459   0.26314   0.19340   0.00000  Uiso   1.00
C93    C     0.85972   0.56119   0.40276   0.00000  Uiso   1.00
C94    C     0.89523   0.66889   0.40038   0.00000  Uiso   1.00
C95    C     0.91183   0.73258   0.43935   0.00000  Uiso   1.00
C96    C     0.94420   0.82830   0.42967   0.00000  Uiso   1.00
C97    C     0.99699   0.99087   0.43312   0.00000  Uiso   1.00
C98    C     0.79874   0.57267   0.37128   0.00000  Uiso   1.00
C99    C     0.73421   0.55543   0.38577   0.00000  Uiso   1.00
C100   C     0.68535   0.57014   0.35159   0.00000  Uiso   1.00
C101   C     0.58834   0.58324   0.30984   0.00000  Uiso   1.00
C102   C     0.90436   0.48089   0.37735   0.00000  Uiso   1.00
C103   C     0.92863   0.38648   0.39695   0.00000  Uiso   1.00
C104   C     0.96868   0.32390   0.36787   0.00000  Uiso   1.00
C105   C     0.03567   0.19452   0.33556   0.00000  Uiso   1.00
C106   C     0.88769   0.61792   0.31627   0.00000  Uiso   1.00
C107   C     0.91042   0.69971   0.35340   0.00000  Uiso   1.00
C108   C     0.94277   0.79535   0.34366   0.00000  Uiso   1.00
C109   C     0.95942   0.85917   0.38260   0.00000  Uiso   1.00
C110   C     0.81392   0.60348   0.32430   0.00000  Uiso   1.00
C111   C     0.76515   0.61821   0.29008   0.00000  Uiso   1.00
C112   C     0.70056   0.60101   0.30452   0.00000  Uiso   1.00
C113   C     0.91955   0.51171   0.33037   0.00000  Uiso   1.00
C114   C     0.95957   0.44926   0.30126   0.00000  Uiso   1.00
C115   C     0.98390   0.35477   0.32081   0.00000  Uiso   1.00
H116   H     0.84789   0.53720   0.43934   0.00000  Uiso   1.00
H117   H     0.90006   0.70871   0.47570   0.00000  Uiso   1.00
H118   H     0.72247   0.53158   0.42213   0.00000  Uiso   1.00
H119   H     0.91686   0.36266   0.43331   0.00000  Uiso   1.00
H120   H     0.96458   0.91247   0.49530   0.00000  Uiso   1.00
H121   H     0.59011   0.53895   0.38234   0.00000  Uiso   1.00
H122   H     0.00003   0.18274   0.40591   0.00000  Uiso   1.00
H123   H     0.89951   0.64192   0.27969   0.00000  Uiso   1.00
H124   H     0.95452   0.81918   0.30730   0.00000  Uiso   1.00
H125   H     0.77692   0.64205   0.25373   0.00000  Uiso   1.00
H126   H     0.97132   0.47313   0.26491   0.00000  Uiso   1.00
H127   H     0.00877   0.00213   0.35862   0.00000  Uiso   1.00
H128   H     0.63431   0.62861   0.24566   0.00000  Uiso   1.00
H129   H     0.04423   0.27241   0.26922   0.00000  Uiso   1.00
O130   O     0.02191   0.07204   0.44800   0.00000  Uiso   1.00
O131   O     0.53063   0.58197   0.29980   0.00000  Uiso   1.00
O132   O     0.06843   0.11464   0.33072   0.00000  Uiso   1.00
N133   N     0.96744   0.90924   0.45934   0.00000  Uiso   1.00
N134   N     0.61734   0.56003   0.35374   0.00000  Uiso   1.00
N135   N     0.00056   0.22699   0.37576   0.00000  Uiso   1.00
N136   N     0.99123   0.95748   0.38580   0.00000  Uiso   1.00
N137   N     0.64112   0.60828   0.28019   0.00000  Uiso   1.00
N138   N     0.02434   0.27524   0.30222   0.00000  Uiso   1.00
C139   C     0.09886   0.46600   0.60221   0.00000  Uiso   1.00
C140   C     0.06740   0.35493   0.60371   0.00000  Uiso   1.00
C141   C     0.05661   0.28874   0.56449   0.00000  Uiso   1.00
C142   C     0.02720   0.19013   0.57334   0.00000  Uiso   1.00
C143   C     0.98111   0.02238   0.56860   0.00000  Uiso   1.00
C144   C     0.15738   0.46155   0.63641   0.00000  Uiso   1.00
C145   C     0.22223   0.48503   0.62470   0.00000  Uiso   1.00
C146   C     0.26856   0.47618   0.66108   0.00000  Uiso   1.00
C147   C     0.36215   0.47406   0.70714   0.00000  Uiso   1.00
C148   C     0.04917   0.54215   0.62507   0.00000  Uiso   1.00
C149   C     0.02306   0.63342   0.60382   0.00000  Uiso   1.00
C150   C     0.97830   0.69245   0.63066   0.00000  Uiso   1.00
C151   C     0.90388   0.81547   0.65910   0.00000  Uiso   1.00
C152   C     0.06582   0.40857   0.68766   0.00000  Uiso   1.00
C153   C     0.04946   0.32374   0.65012   0.00000  Uiso   1.00
C154   C     0.02005   0.22520   0.65903   0.00000  Uiso   1.00
C155   C     0.00922   0.15888   0.61983   0.00000  Uiso   1.00
C156   C     0.13943   0.43036   0.68282   0.00000  Uiso   1.00
C157   C     0.18568   0.42149   0.71924   0.00000  Uiso   1.00
C158   C     0.25059   0.44493   0.70758   0.00000  Uiso   1.00
C159   C     0.03122   0.51096   0.67148   0.00000  Uiso   1.00
C160   C     0.98650   0.56987   0.69836   0.00000  Uiso   1.00
C161   C     0.96032   0.66120   0.67715   0.00000  Uiso   1.00
H162   H     0.11284   0.49029   0.56608   0.00000  Uiso   1.00
H163   H     0.07051   0.31290   0.52858   0.00000  Uiso   1.00
H164   H     0.23610   0.50917   0.58878   0.00000  Uiso   1.00
H165   H     0.03696   0.65753   0.56791   0.00000  Uiso   1.00
H166   H     0.01569   0.10247   0.50747   0.00000  Uiso   1.00
H167   H     0.36485   0.51635   0.63442   0.00000  Uiso   1.00
H168   H     0.94491   0.82920   0.59039   0.00000  Uiso   1.00
H169   H     0.05185   0.38429   0.72379   0.00000  Uiso   1.00
H170   H     0.00617   0.20108   0.69495   0.00000  Uiso   1.00
H171   H     0.17177   0.39735   0.75515   0.00000  Uiso   1.00
H172   H     0.97262   0.54571   0.73427   0.00000  Uiso   1.00
H173   H     0.96347   0.01171   0.64250   0.00000  Uiso   1.00
H174   H     0.31264   0.42560   0.76945   0.00000  Uiso   1.00
H175   H     0.89270   0.73844   0.72542   0.00000  Uiso   1.00
O176   O     0.96065   0.93847   0.55317   0.00000  Uiso   1.00
O177   O     0.41874   0.48149   0.71971   0.00000  Uiso   1.00
O178   O     0.86779   0.89193   0.66196   0.00000  Uiso   1.00
N179   N     0.00966   0.10626   0.54321   0.00000  Uiso   1.00
N180   N     0.33610   0.49320   0.66189   0.00000  Uiso   1.00
N181   N     0.94351   0.78570   0.62074   0.00000  Uiso   1.00
N182   N     0.98156   0.05743   0.61587   0.00000  Uiso   1.00
N183   N     0.30801   0.44436   0.73455   0.00000  Uiso   1.00
N184   N     0.91541   0.73686   0.69340   0.00000  Uiso   1.00
C185   C     0.35972   0.93881   0.59724   0.00000  Uiso   1.00
C186   C     0.39523   0.83111   0.59962   0.00000  Uiso   1.00
C187   C     0.41183   0.76742   0.56065   0.00000  Uiso   1.00
C188   C     0.44420   0.67170   0.57033   0.00000  Uiso   1.00
C189   C     0.49699   0.50913   0.56688   0.00000  Uiso   1.00
C190   C     0.29874   0.92733   0.62872   0.00000  Uiso   1.00
C191   C     0.23421   0.94457   0.61423   0.00000  Uiso   1.00
C192   C     0.18535   0.92986   0.64841   0.00000  Uiso   1.00
C193   C     0.08834   0.91676   0.69016   0.00000  Uiso   1.00
C194   C     0.40436   0.01911   0.62265   0.00000  Uiso   1.00
C195   C     0.42863   0.11352   0.60305   0.00000  Uiso   1.00
C196   C     0.46868   0.17610   0.63213   0.00000  Uiso   1.00
C197   C     0.53567   0.30548   0.66444   0.00000  Uiso   1.00
C198   C     0.38769   0.88208   0.68373   0.00000  Uiso   1.00
C199   C     0.41042   0.80029   0.64660   0.00000  Uiso   1.00
C200   C     0.44277   0.70465   0.65634   0.00000  Uiso   1.00
C201   C     0.45942   0.64083   0.61740   0.00000  Uiso   1.00
C202   C     0.31392   0.89652   0.67570   0.00000  Uiso   1.00
C203   C     0.26515   0.88179   0.70992   0.00000  Uiso   1.00
C204   C     0.20056   0.89899   0.69548   0.00000  Uiso   1.00
C205   C     0.41955   0.98829   0.66963   0.00000  Uiso   1.00
C206   C     0.45957   0.05074   0.69874   0.00000  Uiso   1.00
C207   C     0.48390   0.14523   0.67919   0.00000  Uiso   1.00
H208   H     0.34789   0.96280   0.56066   0.00000  Uiso   1.00
H209   H     0.40006   0.79129   0.52430   0.00000  Uiso   1.00
H210   H     0.22247   0.96842   0.57787   0.00000  Uiso   1.00
H211   H     0.41686   0.13734   0.56669   0.00000  Uiso   1.00
H212   H     0.46458   0.58753   0.50470   0.00000  Uiso   1.00
H213   H     0.09011   0.96105   0.61766   0.00000  Uiso   1.00
H214   H     0.50003   0.31726   0.59409   0.00000  Uiso   1.00
H215   H     0.39951   0.85808   0.72031   0.00000  Uiso   1.00
H216   H     0.45452   0.68082   0.69270   0.00000  Uiso   1.00
H217   H     0.27692   0.85795   0.74627   0.00000  Uiso   1.00
H218   H     0.47132   0.02687   0.73509   0.00000  Uiso   1.00
H219   H     0.50877   0.49787   0.64138   0.00000  Uiso   1.00
H220   H     0.13431   0.87139   0.75434   0.00000  Uiso   1.00
H221   H     0.54423   0.22759   0.73078   0.00000  Uiso   1.00
O222   O     0.52191   0.42796   0.55200   0.00000  Uiso   1.00
O223   O     0.03063   0.91803   0.70020   0.00000  Uiso   1.00
O224   O     0.56843   0.38536   0.66928   0.00000  Uiso   1.00
N225   N     0.46744   0.59076   0.54066   0.00000  Uiso   1.00
N226   N     0.11734   0.93997   0.64626   0.00000  Uiso   1.00
N227   N     0.50056   0.27301   0.62424   0.00000  Uiso   1.00
N228   N     0.49123   0.54252   0.61420   0.00000  Uiso   1.00
N229   N     0.14112   0.89172   0.71981   0.00000  Uiso   1.00
N230   N     0.52434   0.22476   0.69778   0.00000  Uiso   1.00
C231   C     0.59886   0.03400   0.39779   0.00000  Uiso   1.00
C232   C     0.56740   0.14507   0.39629   0.00000  Uiso   1.00
C233   C     0.55661   0.21126   0.43551   0.00000  Uiso   1.00
C234   C     0.52720   0.30987   0.42666   0.00000  Uiso   1.00
C235   C     0.48111   0.47762   0.43140   0.00000  Uiso   1.00
C236   C     0.65738   0.03845   0.36359   0.00000  Uiso   1.00
C237   C     0.72223   0.01497   0.37530   0.00000  Uiso   1.00
C238   C     0.76856   0.02382   0.33892   0.00000  Uiso   1.00
C239   C     0.86215   0.02594   0.29286   0.00000  Uiso   1.00
C240   C     0.54917   0.95785   0.37493   0.00000  Uiso   1.00
C241   C     0.52306   0.86658   0.39618   0.00000  Uiso   1.00
C242   C     0.47830   0.80755   0.36934   0.00000  Uiso   1.00
C243   C     0.40388   0.68453   0.34090   0.00000  Uiso   1.00
C244   C     0.56582   0.09143   0.31234   0.00000  Uiso   1.00
C245   C     0.54946   0.17626   0.34988   0.00000  Uiso   1.00
C246   C     0.52005   0.27480   0.34097   0.00000  Uiso   1.00
C247   C     0.50922   0.34112   0.38017   0.00000  Uiso   1.00
C248   C     0.63943   0.06964   0.31718   0.00000  Uiso   1.00
C249   C     0.68568   0.07851   0.28076   0.00000  Uiso   1.00
C250   C     0.75059   0.05507   0.29242   0.00000  Uiso   1.00
C251   C     0.53122   0.98904   0.32852   0.00000  Uiso   1.00
C252   C     0.48650   0.93013   0.30164   0.00000  Uiso   1.00
C253   C     0.46032   0.83880   0.32285   0.00000  Uiso   1.00
H254   H     0.61284   0.00971   0.43392   0.00000  Uiso   1.00
H255   H     0.57051   0.18710   0.47142   0.00000  Uiso   1.00
H256   H     0.73610   0.99083   0.41122   0.00000  Uiso   1.00
H257   H     0.53696   0.84247   0.43209   0.00000  Uiso   1.00
H258   H     0.51569   0.39753   0.49253   0.00000  Uiso   1.00
H259   H     0.86485   0.98365   0.36558   0.00000  Uiso   1.00
H260   H     0.44491   0.67080   0.40961   0.00000  Uiso   1.00
H261   H     0.55185   0.11571   0.27621   0.00000  Uiso   1.00
H262   H     0.50617   0.29892   0.30505   0.00000  Uiso   1.00
H263   H     0.67177   0.10265   0.24485   0.00000  Uiso   1.00
H264   H     0.47262   0.95429   0.26573   0.00000  Uiso   1.00
H265   H     0.46347   0.48829   0.35750   0.00000  Uiso   1.00
H266   H     0.81264   0.07440   0.23055   0.00000  Uiso   1.00
H267   H     0.39270   0.76156   0.27458   0.00000  Uiso   1.00
O268   O     0.46065   0.56153   0.44683   0.00000  Uiso   1.00
O269   O     0.91874   0.01851   0.28029   0.00000  Uiso   1.00
O270   O     0.36779   0.60807   0.33804   0.00000  Uiso   1.00
N271   N     0.50966   0.39374   0.45679   0.00000  Uiso   1.00
N272   N     0.83610   0.00680   0.33811   0.00000  Uiso   1.00
N273   N     0.44351   0.71430   0.37926   0.00000  Uiso   1.00
N274   N     0.48156   0.44257   0.38413   0.00000  Uiso   1.00
N275   N     0.80801   0.05564   0.26545   0.00000  Uiso   1.00
N276   N     0.41541   0.76314   0.30660   0.00000  Uiso   1.00
C277   C     0.14028   0.06119   0.09724   0.00000  Uiso   1.00
C278   C     0.10477   0.16889   0.09962   0.00000  Uiso   1.00
C279   C     0.08817   0.23258   0.06065   0.00000  Uiso   1.00
C280   C     0.05580   0.32830   0.07033   0.00000  Uiso   1.00
C281   C     0.00301   0.49087   0.06688   0.00000  Uiso   1.00
C282   C     0.20126   0.07267   0.12872   0.00000  Uiso   1.00
C283   C     0.26579   0.05543   0.11423   0.00000  Uiso   1.00
C284   C     0.31465   0.07014   0.14841   0.00000  Uiso   1.00
C285   C     0.41166   0.08324   0.19016   0.00000  Uiso   1.00
C286   C     0.09564   0.98089   0.12265   0.00000  Uiso   1.00
C287   C     0.07137   0.88648   0.10305   0.00000  Uiso   1.00
C288   C     0.03132   0.82390   0.13213   0.00000  Uiso   1.00
C289   C     0.96433   0.69452   0.16444   0.00000  Uiso   1.00
C290   C     0.11231   0.11792   0.18373   0.00000  Uiso   1.00
C291   C     0.08958   0.19971   0.14660   0.00000  Uiso   1.00
C292   C     0.05723   0.29535   0.15634   0.00000  Uiso   1.00
C293   C     0.04058   0.35917   0.11740   0.00000  Uiso   1.00
C294   C     0.18608   0.10348   0.17570   0.00000  Uiso   1.00
C295   C     0.23485   0.11821   0.20992   0.00000  Uiso   1.00
C296   C     0.29944   0.10101   0.19548   0.00000  Uiso   1.00
C297   C     0.08045   0.01171   0.16963   0.00000  Uiso   1.00
C298   C     0.04043   0.94926   0.19874   0.00000  Uiso   1.00
C299   C     0.01610   0.85477   0.17919   0.00000  Uiso   1.00
H300   H     0.15211   0.03720   0.06066   0.00000  Uiso   1.00
H301   H     0.09994   0.20871   0.02430   0.00000  Uiso   1.00
H302   H     0.27753   0.03158   0.07787   0.00000  Uiso   1.00
H303   H     0.08314   0.86266   0.06669   0.00000  Uiso   1.00
H304   H     0.03542   0.41247   0.00470   0.00000  Uiso   1.00
H305   H     0.40989   0.03895   0.11766   0.00000  Uiso   1.00
H306   H     0.99997   0.68274   0.09409   0.00000  Uiso   1.00
H307   H     0.10049   0.14192   0.22031   0.00000  Uiso   1.00
H308   H     0.04548   0.31918   0.19270   0.00000  Uiso   1.00
H309   H     0.22308   0.14205   0.24627   0.00000  Uiso   1.00
H310   H     0.02868   0.97313   0.23509   0.00000  Uiso   1.00
H311   H     0.99123   0.50213   0.14138   0.00000  Uiso   1.00
H312   H     0.36569   0.12861   0.25434   0.00000  Uiso   1.00
H313   H     0.95577   0.77241   0.23078   0.00000  Uiso   1.00
O314   O     0.97809   0.57204   0.05200   0.00000  Uiso   1.00
O315   O     0.46937   0.08197   0.20020   0.00000  Uiso   1.00
O316   O     0.93157   0.61464   0.16928   0.00000  Uiso   1.00
N317   N     0.03256   0.40924   0.04066   0.00000  Uiso   1.00
N318   N     0.38266   0.06003   0.14626   0.00000  Uiso   1.00
N319   N     0.99944   0.72699   0.12424   0.00000  Uiso   1.00
N320   N     0.00877   0.45748   0.11420   0.00000  Uiso   1.00
N321   N     0.35888   0.10828   0.21981   0.00000  Uiso   1.00
N322   N     0.97566   0.77524   0.19778   0.00000  Uiso   1.00
C323   C     0.90114   0.96600   0.89779   0.00000  Uiso   1.00
C324   C     0.93260   0.85493   0.89629   0.00000  Uiso   1.00
C325   C     0.94339   0.78874   0.93551   0.00000  Uiso   1.00
C326   C     0.97280   0.69013   0.92666   0.00000  Uiso   1.00
C327   C     0.01889   0.52238   0.93140   0.00000  Uiso   1.00
C328   C     0.84262   0.96155   0.86359   0.00000  Uiso   1.00
C329   C     0.77777   0.98503   0.87530   0.00000  Uiso   1.00
C330   C     0.73144   0.97618   0.83892   0.00000  Uiso   1.00
C331   C     0.63785   0.97406   0.79286   0.00000  Uiso   1.00
C332   C     0.95083   0.04215   0.87493   0.00000  Uiso   1.00
C333   C     0.97694   0.13342   0.89618   0.00000  Uiso   1.00
C334   C     0.02170   0.19245   0.86934   0.00000  Uiso   1.00
C335   C     0.09612   0.31547   0.84090   0.00000  Uiso   1.00
C336   C     0.93418   0.90857   0.81234   0.00000  Uiso   1.00
C337   C     0.95054   0.82374   0.84988   0.00000  Uiso   1.00
C338   C     0.97995   0.72520   0.84097   0.00000  Uiso   1.00
C339   C     0.99078   0.65888   0.88017   0.00000  Uiso   1.00
C340   C     0.86057   0.93036   0.81718   0.00000  Uiso   1.00
C341   C     0.81432   0.92149   0.78076   0.00000  Uiso   1.00
C342   C     0.74941   0.94493   0.79242   0.00000  Uiso   1.00
C343   C     0.96878   0.01096   0.82852   0.00000  Uiso   1.00
C344   C     0.01350   0.06987   0.80164   0.00000  Uiso   1.00
C345   C     0.03968   0.16120   0.82285   0.00000  Uiso   1.00
H346   H     0.88716   0.99029   0.93392   0.00000  Uiso   1.00
H347   H     0.92949   0.81290   0.97142   0.00000  Uiso   1.00
H348   H     0.76390   0.00917   0.91122   0.00000  Uiso   1.00
H349   H     0.96304   0.15753   0.93209   0.00000  Uiso   1.00
H350   H     0.98431   0.60247   0.99253   0.00000  Uiso   1.00
H351   H     0.63515   0.01635   0.86558   0.00000  Uiso   1.00
H352   H     0.05509   0.32920   0.90961   0.00000  Uiso   1.00
H353   H     0.94815   0.88429   0.77621   0.00000  Uiso   1.00
H354   H     0.99383   0.70108   0.80505   0.00000  Uiso   1.00
H355   H     0.82823   0.89735   0.74485   0.00000  Uiso   1.00
H356   H     0.02738   0.04571   0.76573   0.00000  Uiso   1.00
H357   H     0.03653   0.51171   0.85750   0.00000  Uiso   1.00
H358   H     0.68736   0.92560   0.73055   0.00000  Uiso   1.00
H359   H     0.10730   0.23844   0.77458   0.00000  Uiso   1.00
O360   O     0.03935   0.43847   0.94683   0.00000  Uiso   1.00
O361   O     0.58126   0.98149   0.78029   0.00000  Uiso   1.00
O362   O     0.13221   0.39193   0.83804   0.00000  Uiso   1.00
N363   N     0.99034   0.60626   0.95679   0.00000  Uiso   1.00
N364   N     0.66390   0.99320   0.83811   0.00000  Uiso   1.00
N365   N     0.05649   0.28570   0.87926   0.00000  Uiso   1.00
N366   N     0.01844   0.55743   0.88413   0.00000  Uiso   1.00
N367   N     0.69199   0.94436   0.76545   0.00000  Uiso   1.00
N368   N     0.08459   0.23686   0.80660   0.00000  Uiso   1.00
