data_job_06957
_audit_creation_date              2018-12-19
_audit_creation_method            'Materials Studio'
_symmetry_space_group_name_H-M    'P1'
_symmetry_Int_Tables_number       1
_symmetry_cell_setting            triclinic
loop_
_symmetry_equiv_pos_as_xyz
  x,y,z
_cell_length_a                    23.9510
_cell_length_b                    24.0992
_cell_length_c                    24.1111
_cell_angle_alpha                 66.1443
_cell_angle_beta                  95.3910
_cell_angle_gamma                 60.8922
loop_
_atom_site_label
_atom_site_type_symbol
_atom_site_fract_x
_atom_site_fract_y
_atom_site_fract_z
_atom_site_U_iso_or_equiv
_atom_site_adp_type
_atom_site_occupancy
C1     C     0.14831   0.19842   0.99725   0.00000  Uiso   1.00
C2     C     0.08491   0.27653   0.97109   0.00000  Uiso   1.00
C3     C     0.07898   0.32413   0.99227   0.00000  Uiso   1.00
C4     C     0.01673   0.39326   0.96216   0.00000  Uiso   1.00
C5     C     0.92654   0.51137   0.92910   0.00000  Uiso   1.00
C6     C     0.12478   0.14724   0.01962   0.00000  Uiso   1.00
C7     C     0.15237   0.08613   0.08160   0.00000  Uiso   1.00
C8     C     0.12368   0.04643   0.09234   0.00000  Uiso   1.00
C9     C     0.09542   0.96378   0.13460   0.00000  Uiso   1.00
C10    C     0.16669   0.19763   0.93859   0.00000  Uiso   1.00
C11    C     0.22953   0.17888   0.93244   0.00000  Uiso   1.00
C12    C     0.23613   0.18159   0.87496   0.00000  Uiso   1.00
C13    C     0.27294   0.17719   0.79141   0.00000  Uiso   1.00
C14    C     0.04828   0.23656   0.90611   0.00000  Uiso   1.00
C15    C     0.03058   0.29724   0.92159   0.00000  Uiso   1.00
C16    C     0.96832   0.36632   0.89144   0.00000  Uiso   1.00
C17    C     0.96230   0.41402   0.91257   0.00000  Uiso   1.00
C18    C     0.07045   0.16795   0.97012   0.00000  Uiso   1.00
C19    C     0.04171   0.12833   0.98077   0.00000  Uiso   1.00
C20    C     0.06925   0.06718   0.04275   0.00000  Uiso   1.00
C21    C     0.11236   0.21835   0.88908   0.00000  Uiso   1.00
C22    C     0.11886   0.22108   0.83161   0.00000  Uiso   1.00
C23    C     0.18170   0.20234   0.82537   0.00000  Uiso   1.00
H24    H     0.19061   0.18229   0.03579   0.00000  Uiso   1.00
H25    H     0.12104   0.30807   0.03058   0.00000  Uiso   1.00
H26    H     0.19442   0.07011   0.11989   0.00000  Uiso   1.00
H27    H     0.27156   0.16285   0.97076   0.00000  Uiso   1.00
H28    H     0.01994   0.45665   0.00300   0.00000  Uiso   1.00
H29    H     0.17469   0.95488   0.19131   0.00000  Uiso   1.00
H30    H     0.33736   0.15043   0.87682   0.00000  Uiso   1.00
H31    H     0.00598   0.25269   0.86757   0.00000  Uiso   1.00
H32    H     0.92628   0.38234   0.85313   0.00000  Uiso   1.00
H33    H     0.99967   0.14437   0.94245   0.00000  Uiso   1.00
H34    H     0.07681   0.23711   0.79331   0.00000  Uiso   1.00
H35    H     0.86187   0.51692   0.85898   0.00000  Uiso   1.00
H36    H     0.01662   0.01515   0.04729   0.00000  Uiso   1.00
H37    H     0.17929   0.21071   0.73280   0.00000  Uiso   1.00
O38    O     0.89180   0.57079   0.92454   0.00000  Uiso   1.00
O39    O     0.09483   0.91248   0.17159   0.00000  Uiso   1.00
O40    O     0.30825   0.16905   0.75900   0.00000  Uiso   1.00
N41    N     0.99368   0.45305   0.97108   0.00000  Uiso   1.00
N42    N     0.13836   0.98393   0.14714   0.00000  Uiso   1.00
N43    N     0.29045   0.16674   0.85313   0.00000  Uiso   1.00
N44    N     0.90863   0.48548   0.89358   0.00000  Uiso   1.00
N45    N     0.05330   0.01636   0.06964   0.00000  Uiso   1.00
N46    N     0.20539   0.19917   0.77563   0.00000  Uiso   1.00
C47    C     0.60147   0.32795   0.83827   0.00000  Uiso   1.00
C48    C     0.60266   0.31249   0.90642   0.00000  Uiso   1.00
C49    C     0.55268   0.35976   0.92089   0.00000  Uiso   1.00
C50    C     0.56324   0.33545   0.98630   0.00000  Uiso   1.00
C51    C     0.55620   0.32197   0.08465   0.00000  Uiso   1.00
C52    C     0.66791   0.32069   0.83549   0.00000  Uiso   1.00
C53    C     0.67278   0.37485   0.79032   0.00000  Uiso   1.00
C54    C     0.73827   0.35744   0.79601   0.00000  Uiso   1.00
C55    C     0.83254   0.35666   0.78421   0.00000  Uiso   1.00
C56    C     0.60762   0.26348   0.83486   0.00000  Uiso   1.00
C57    C     0.56182   0.26955   0.78915   0.00000  Uiso   1.00
C58    C     0.57656   0.20397   0.79431   0.00000  Uiso   1.00
C59    C     0.57721   0.11438   0.78153   0.00000  Uiso   1.00
C60    C     0.70911   0.20070   0.92869   0.00000  Uiso   1.00
C61    C     0.66113   0.24337   0.95553   0.00000  Uiso   1.00
C62    C     0.67176   0.21898   0.02093   0.00000  Uiso   1.00
C63    C     0.62181   0.26621   0.03550   0.00000  Uiso   1.00
C64    C     0.72637   0.25157   0.88460   0.00000  Uiso   1.00
C65    C     0.79187   0.23407   0.89036   0.00000  Uiso   1.00
C66    C     0.79684   0.28820   0.84521   0.00000  Uiso   1.00
C67    C     0.66608   0.19436   0.88398   0.00000  Uiso   1.00
C68    C     0.68090   0.12876   0.88920   0.00000  Uiso   1.00
C69    C     0.63513   0.13473   0.84351   0.00000  Uiso   1.00
H70    H     0.55596   0.38176   0.80003   0.00000  Uiso   1.00
H71    H     0.50744   0.41325   0.88287   0.00000  Uiso   1.00
H72    H     0.62753   0.42833   0.75231   0.00000  Uiso   1.00
H73    H     0.51658   0.32304   0.75115   0.00000  Uiso   1.00
H74    H     0.47945   0.41769   0.99637   0.00000  Uiso   1.00
H75    H     0.73266   0.44948   0.72107   0.00000  Uiso   1.00
H76    H     0.49870   0.22746   0.71862   0.00000  Uiso   1.00
H77    H     0.75463   0.14689   0.96693   0.00000  Uiso   1.00
H78    H     0.71701   0.16549   0.05893   0.00000  Uiso   1.00
H79    H     0.83710   0.18058   0.92837   0.00000  Uiso   1.00
H80    H     0.72615   0.07529   0.92721   0.00000  Uiso   1.00
H81    H     0.64954   0.21660   0.13927   0.00000  Uiso   1.00
H82    H     0.90275   0.24840   0.86396   0.00000  Uiso   1.00
H83    H     0.66879   0.02638   0.86152   0.00000  Uiso   1.00
O84    O     0.53618   0.33363   0.12533   0.00000  Uiso   1.00
O85    O     0.86838   0.37534   0.76413   0.00000  Uiso   1.00
O86    O     0.56142   0.08405   0.76093   0.00000  Uiso   1.00
N87    N     0.52464   0.36780   0.01738   0.00000  Uiso   1.00
N88    N     0.76137   0.39754   0.75999   0.00000  Uiso   1.00
N89    N     0.54265   0.18997   0.75769   0.00000  Uiso   1.00
N90    N     0.61616   0.25960   0.09427   0.00000  Uiso   1.00
N91    N     0.85290   0.28933   0.83688   0.00000  Uiso   1.00
N92    N     0.63417   0.08176   0.83458   0.00000  Uiso   1.00
C93    C     0.07094   0.69436   0.47623   0.00000  Uiso   1.00
C94    C     0.10698   0.71478   0.51152   0.00000  Uiso   1.00
C95    C     0.08928   0.73496   0.55683   0.00000  Uiso   1.00
C96    C     0.12861   0.75160   0.58360   0.00000  Uiso   1.00
C97    C     0.17617   0.78388   0.64110   0.00000  Uiso   1.00
C98    C     0.04905   0.74681   0.40371   0.00000  Uiso   1.00
C99    C     0.98264   0.79392   0.35837   0.00000  Uiso   1.00
C100   C     0.97322   0.83752   0.29438   0.00000  Uiso   1.00
C101   C     0.93086   0.91948   0.18449   0.00000  Uiso   1.00
C102   C     0.12622   0.61714   0.49082   0.00000  Uiso   1.00
C103   C     0.12469   0.55523   0.51871   0.00000  Uiso   1.00
C104   C     0.18023   0.48966   0.52805   0.00000  Uiso   1.00
C105   C     0.25769   0.37029   0.55343   0.00000  Uiso   1.00
C106   C     0.17226   0.68802   0.44320   0.00000  Uiso   1.00
C107   C     0.16201   0.71134   0.49358   0.00000  Uiso   1.00
C108   C     0.20138   0.72795   0.52029   0.00000  Uiso   1.00
C109   C     0.18374   0.74815   0.56563   0.00000  Uiso   1.00
C110   C     0.10408   0.74337   0.38577   0.00000  Uiso   1.00
C111   C     0.09475   0.78691   0.32183   0.00000  Uiso   1.00
C112   C     0.02835   0.83407   0.27641   0.00000  Uiso   1.00
C113   C     0.18126   0.61370   0.47289   0.00000  Uiso   1.00
C114   C     0.23680   0.54821   0.48218   0.00000  Uiso   1.00
C115   C     0.23536   0.48621   0.51008   0.00000  Uiso   1.00
H116   H     0.02809   0.69704   0.49019   0.00000  Uiso   1.00
H117   H     0.04668   0.73763   0.57069   0.00000  Uiso   1.00
H118   H     0.94007   0.79657   0.37226   0.00000  Uiso   1.00
H119   H     0.08210   0.55791   0.53259   0.00000  Uiso   1.00
H120   H     0.09154   0.78113   0.65202   0.00000  Uiso   1.00
H121   H     0.86675   0.90539   0.23361   0.00000  Uiso   1.00
H122   H     0.16625   0.40214   0.57169   0.00000  Uiso   1.00
H123   H     0.21511   0.68534   0.42924   0.00000  Uiso   1.00
H124   H     0.24397   0.72528   0.50640   0.00000  Uiso   1.00
H125   H     0.13735   0.78422   0.30797   0.00000  Uiso   1.00
H126   H     0.27938   0.54557   0.46829   0.00000  Uiso   1.00
H127   H     0.25167   0.77112   0.59983   0.00000  Uiso   1.00
H128   H     0.02687   0.89537   0.18143   0.00000  Uiso   1.00
H129   H     0.32637   0.39212   0.51950   0.00000  Uiso   1.00
O130   O     0.18720   0.80264   0.67777   0.00000  Uiso   1.00
O131   O     0.89228   0.96565   0.12884   0.00000  Uiso   1.00
O132   O     0.28521   0.30540   0.57239   0.00000  Uiso   1.00
N133   N     0.12528   0.77328   0.62916   0.00000  Uiso   1.00
N134   N     0.91511   0.88946   0.23797   0.00000  Uiso   1.00
N135   N     0.19510   0.41897   0.55403   0.00000  Uiso   1.00
N136   N     0.21144   0.76789   0.60108   0.00000  Uiso   1.00
N137   N     0.00127   0.88407   0.20989   0.00000  Uiso   1.00
N138   N     0.28126   0.41358   0.52595   0.00000  Uiso   1.00
C139   C     0.42893   0.27827   0.37121   0.00000  Uiso   1.00
C140   C     0.45251   0.28119   0.43035   0.00000  Uiso   1.00
C141   C     0.42881   0.34513   0.43271   0.00000  Uiso   1.00
C142   C     0.45681   0.33605   0.49138   0.00000  Uiso   1.00
C143   C     0.48581   0.35130   0.57496   0.00000  Uiso   1.00
C144   C     0.40372   0.22865   0.39313   0.00000  Uiso   1.00
C145   C     0.33901   0.24841   0.36419   0.00000  Uiso   1.00
C146   C     0.32594   0.19510   0.39152   0.00000  Uiso   1.00
C147   C     0.27921   0.12877   0.41729   0.00000  Uiso   1.00
C148   C     0.49352   0.23602   0.35868   0.00000  Uiso   1.00
C149   C     0.50430   0.26197   0.30077   0.00000  Uiso   1.00
C150   C     0.56683   0.21486   0.29910   0.00000  Uiso   1.00
C151   C     0.65952   0.15997   0.27137   0.00000  Uiso   1.00
C152   C     0.52081   0.14845   0.47121   0.00000  Uiso   1.00
C153   C     0.50242   0.21067   0.48467   0.00000  Uiso   1.00
C154   C     0.53046   0.20149   0.54335   0.00000  Uiso   1.00
C155   C     0.50681   0.26541   0.54580   0.00000  Uiso   1.00
C156   C     0.45363   0.15813   0.44745   0.00000  Uiso   1.00
C157   C     0.44066   0.10478   0.47483   0.00000  Uiso   1.00
C158   C     0.37594   0.12446   0.44594   0.00000  Uiso   1.00
C159   C     0.54343   0.16550   0.41300   0.00000  Uiso   1.00
C160   C     0.60595   0.11834   0.41141   0.00000  Uiso   1.00
C161   C     0.61683   0.14422   0.35351   0.00000  Uiso   1.00
H162   H     0.39008   0.33317   0.32892   0.00000  Uiso   1.00
H163   H     0.39019   0.39969   0.39066   0.00000  Uiso   1.00
H164   H     0.30040   0.30298   0.32215   0.00000  Uiso   1.00
H165   H     0.46567   0.31654   0.25874   0.00000  Uiso   1.00
H166   H     0.41229   0.44234   0.48308   0.00000  Uiso   1.00
H167   H     0.22298   0.23843   0.33860   0.00000  Uiso   1.00
H168   H     0.57148   0.26702   0.20489   0.00000  Uiso   1.00
H169   H     0.55967   0.09355   0.51350   0.00000  Uiso   1.00
H170   H     0.56908   0.14692   0.58538   0.00000  Uiso   1.00
H171   H     0.47929   0.05021   0.51686   0.00000  Uiso   1.00
H172   H     0.64456   0.06377   0.45346   0.00000  Uiso   1.00
H173   H     0.55749   0.23718   0.64112   0.00000  Uiso   1.00
H174   H     0.36817   0.03327   0.49664   0.00000  Uiso   1.00
H175   H     0.71668   0.06186   0.36293   0.00000  Uiso   1.00
O176   O     0.48801   0.37919   0.60606   0.00000  Uiso   1.00
O177   O     0.23964   0.11166   0.41649   0.00000  Uiso   1.00
O178   O     0.69687   0.14918   0.24108   0.00000  Uiso   1.00
N179   N     0.44518   0.38673   0.51041   0.00000  Uiso   1.00
N180   N     0.26818   0.19609   0.37533   0.00000  Uiso   1.00
N181   N     0.59400   0.22281   0.25032   0.00000  Uiso   1.00
N182   N     0.52331   0.27633   0.59545   0.00000  Uiso   1.00
N183   N     0.34631   0.08569   0.46037   0.00000  Uiso   1.00
N184   N     0.67213   0.11242   0.33536   0.00000  Uiso   1.00
C185   C     0.66057   0.80604   0.85114   0.00000  Uiso   1.00
C186   C     0.60152   0.87380   0.84858   0.00000  Uiso   1.00
C187   C     0.60435   0.89612   0.89295   0.00000  Uiso   1.00
C188   C     0.54481   0.95966   0.88207   0.00000  Uiso   1.00
C189   C     0.46229   0.05885   0.88619   0.00000  Uiso   1.00
C190   C     0.66982   0.83495   0.78610   0.00000  Uiso   1.00
C191   C     0.73006   0.82460   0.77794   0.00000  Uiso   1.00
C192   C     0.72801   0.85544   0.71445   0.00000  Uiso   1.00
C193   C     0.75153   0.89427   0.62157   0.00000  Uiso   1.00
C194   C     0.63446   0.75951   0.85142   0.00000  Uiso   1.00
C195   C     0.66499   0.68573   0.89818   0.00000  Uiso   1.00
C196   C     0.63318   0.65304   0.88968   0.00000  Uiso   1.00
C197   C     0.60180   0.57474   0.89823   0.00000  Uiso   1.00
C198   C     0.54980   0.87919   0.75291   0.00000  Uiso   1.00
C199   C     0.54136   0.91353   0.79523   0.00000  Uiso   1.00
C200   C     0.48180   0.97705   0.78427   0.00000  Uiso   1.00
C201   C     0.48453   0.99947   0.82862   0.00000  Uiso   1.00
C202   C     0.60965   0.87468   0.73274   0.00000  Uiso   1.00
C203   C     0.60751   0.90554   0.66926   0.00000  Uiso   1.00
C204   C     0.66774   0.89524   0.66100   0.00000  Uiso   1.00
C205   C     0.57429   0.79924   0.79807   0.00000  Uiso   1.00
C206   C     0.54243   0.76667   0.78950   0.00000  Uiso   1.00
C207   C     0.57291   0.69285   0.83623   0.00000  Uiso   1.00
H208   H     0.70741   0.77511   0.89268   0.00000  Uiso   1.00
H209   H     0.65093   0.86536   0.93423   0.00000  Uiso   1.00
H210   H     0.77662   0.79384   0.81923   0.00000  Uiso   1.00
H211   H     0.71155   0.65500   0.93946   0.00000  Uiso   1.00
H212   H     0.56177   0.98296   0.95676   0.00000  Uiso   1.00
H213   H     0.82681   0.83215   0.71429   0.00000  Uiso   1.00
H214   H     0.68961   0.53935   0.96780   0.00000  Uiso   1.00
H215   H     0.50296   0.91013   0.71137   0.00000  Uiso   1.00
H216   H     0.43524   0.00779   0.74298   0.00000  Uiso   1.00
H217   H     0.56094   0.93628   0.62798   0.00000  Uiso   1.00
H218   H     0.49587   0.79743   0.74820   0.00000  Uiso   1.00
H219   H     0.38672   0.09856   0.80153   0.00000  Uiso   1.00
H220   H     0.65176   0.94775   0.55906   0.00000  Uiso   1.00
H221   H     0.51455   0.65496   0.81257   0.00000  Uiso   1.00
O222   O     0.43340   0.10258   0.90320   0.00000  Uiso   1.00
O223   O     0.78112   0.90471   0.58508   0.00000  Uiso   1.00
O224   O     0.60111   0.52058   0.91769   0.00000  Uiso   1.00
N225   N     0.52986   0.99675   0.91590   0.00000  Uiso   1.00
N226   N     0.77765   0.85576   0.68920   0.00000  Uiso   1.00
N227   N     0.64939   0.58202   0.92620   0.00000  Uiso   1.00
N228   N     0.43567   0.05896   0.83237   0.00000  Uiso   1.00
N229   N     0.68346   0.91797   0.60567   0.00000  Uiso   1.00
N230   N     0.55520   0.64423   0.84267   0.00000  Uiso   1.00
C231   C     0.21657   0.98956   0.70133   0.00000  Uiso   1.00
C232   C     0.21270   0.06070   0.67876   0.00000  Uiso   1.00
C233   C     0.15519   0.12918   0.66185   0.00000  Uiso   1.00
C234   C     0.16211   0.18744   0.64248   0.00000  Uiso   1.00
C235   C     0.14665   0.29941   0.60783   0.00000  Uiso   1.00
C236   C     0.27505   0.93218   0.76738   0.00000  Uiso   1.00
C237   C     0.26997   0.89260   0.82497   0.00000  Uiso   1.00
C238   C     0.32938   0.84267   0.88019   0.00000  Uiso   1.00
C239   C     0.41074   0.75508   0.98310   0.00000  Uiso   1.00
C240   C     0.24046   0.96324   0.65489   0.00000  Uiso   1.00
C241   C     0.20629   0.94976   0.61791   0.00000  Uiso   1.00
C242   C     0.23658   0.92596   0.57843   0.00000  Uiso   1.00
C243   C     0.26422   0.88659   0.50669   0.00000  Uiso   1.00
C244   C     0.33113   0.97124   0.69700   0.00000  Uiso   1.00
C245   C     0.27493   0.05074   0.67641   0.00000  Uiso   1.00
C246   C     0.28194   0.10892   0.65706   0.00000  Uiso   1.00
C247   C     0.22445   0.17748   0.64012   0.00000  Uiso   1.00
C248   C     0.33728   0.92223   0.76503   0.00000  Uiso   1.00
C249   C     0.39672   0.87234   0.82017   0.00000  Uiso   1.00
C250   C     0.39172   0.83271   0.87783   0.00000  Uiso   1.00
C251   C     0.30268   0.95329   0.65253   0.00000  Uiso   1.00
C252   C     0.33304   0.92950   0.61311   0.00000  Uiso   1.00
C253   C     0.29892   0.91599   0.57608   0.00000  Uiso   1.00
H254   H     0.16812   0.99730   0.70317   0.00000  Uiso   1.00
H255   H     0.10705   0.13685   0.66369   0.00000  Uiso   1.00
H256   H     0.22181   0.90031   0.82677   0.00000  Uiso   1.00
H257   H     0.15814   0.95746   0.61975   0.00000  Uiso   1.00
H258   H     0.06678   0.28719   0.61890   0.00000  Uiso   1.00
H259   H     0.30876   0.78840   0.96277   0.00000  Uiso   1.00
H260   H     0.17450   0.90891   0.52621   0.00000  Uiso   1.00
H261   H     0.37958   0.96349   0.69517   0.00000  Uiso   1.00
H262   H     0.33010   0.10120   0.65524   0.00000  Uiso   1.00
H263   H     0.44486   0.86466   0.81833   0.00000  Uiso   1.00
H264   H     0.38119   0.92181   0.61130   0.00000  Uiso   1.00
H265   H     0.24782   0.25825   0.61204   0.00000  Uiso   1.00
H266   H     0.48981   0.75946   0.95592   0.00000  Uiso   1.00
H267   H     0.35554   0.87998   0.51936   0.00000  Uiso   1.00
O268   O     0.12094   0.36391   0.58937   0.00000  Uiso   1.00
O269   O     0.43842   0.70952   0.04051   0.00000  Uiso   1.00
O270   O     0.26227   0.86763   0.46776   0.00000  Uiso   1.00
N271   N     0.11617   0.26148   0.62275   0.00000  Uiso   1.00
N272   N     0.34241   0.79516   0.94425   0.00000  Uiso   1.00
N273   N     0.21690   0.90780   0.53612   0.00000  Uiso   1.00
N274   N     0.21359   0.24591   0.61906   0.00000  Uiso   1.00
N275   N     0.43983   0.77959   0.94057   0.00000  Uiso   1.00
N276   N     0.31431   0.89223   0.53244   0.00000  Uiso   1.00
C277   C     0.79407   0.87511   0.90037   0.00000  Uiso   1.00
C278   C     0.86047   0.79735   0.93442   0.00000  Uiso   1.00
C279   C     0.86603   0.73388   0.94376   0.00000  Uiso   1.00
C280   C     0.93135   0.66806   0.97602   0.00000  Uiso   1.00
C281   C     0.02567   0.54766   0.02550   0.00000  Uiso   1.00
C282   C     0.80493   0.92442   0.84545   0.00000  Uiso   1.00
C283   C     0.76378   0.96778   0.77999   0.00000  Uiso   1.00
C284   C     0.78234   0.00894   0.73737   0.00000  Uiso   1.00
C285   C     0.79042   0.08585   0.64872   0.00000  Uiso   1.00
C286   C     0.78955   0.90081   0.94913   0.00000  Uiso   1.00
C287   C     0.73547   0.92435   0.97083   0.00000  Uiso   1.00
C288   C     0.74107   0.94565   0.01549   0.00000  Uiso   1.00
C289   C     0.72527   0.98591   0.08783   0.00000  Uiso   1.00
C290   C     0.90019   0.87109   0.94108   0.00000  Uiso   1.00
C291   C     0.91811   0.79517   0.95653   0.00000  Uiso   1.00
C292   C     0.98344   0.72943   0.98879   0.00000  Uiso   1.00
C293   C     0.98909   0.66587   0.99818   0.00000  Uiso   1.00
C294   C     0.86256   0.92223   0.86756   0.00000  Uiso   1.00
C295   C     0.88119   0.96334   0.82503   0.00000  Uiso   1.00
C296   C     0.84009   0.00675   0.75951   0.00000  Uiso   1.00
C297   C     0.84719   0.89863   0.97124   0.00000  Uiso   1.00
C298   C     0.85288   0.91990   0.01587   0.00000  Uiso   1.00
C299   C     0.79882   0.94346   0.03764   0.00000  Uiso   1.00
H300   H     0.74920   0.87681   0.88315   0.00000  Uiso   1.00
H301   H     0.82141   0.73559   0.92663   0.00000  Uiso   1.00
H302   H     0.71918   0.96947   0.76289   0.00000  Uiso   1.00
H303   H     0.69087   0.92603   0.95371   0.00000  Uiso   1.00
H304   H     0.92689   0.57806   0.98457   0.00000  Uiso   1.00
H305   H     0.71131   0.07122   0.63932   0.00000  Uiso   1.00
H306   H     0.65162   0.97964   0.04169   0.00000  Uiso   1.00
H307   H     0.94507   0.86939   0.95829   0.00000  Uiso   1.00
H308   H     0.02803   0.72776   0.00590   0.00000  Uiso   1.00
H309   H     0.92580   0.96164   0.84215   0.00000  Uiso   1.00
H310   H     0.89749   0.91820   0.03297   0.00000  Uiso   1.00
H311   H     0.09459   0.57171   0.04890   0.00000  Uiso   1.00
H312   H     0.87901   0.06487   0.70364   0.00000  Uiso   1.00
H313   H     0.81932   0.97328   0.10602   0.00000  Uiso   1.00
O314   O     0.06178   0.48185   0.04667   0.00000  Uiso   1.00
O315   O     0.77895   0.12887   0.59372   0.00000  Uiso   1.00
O316   O     0.70064   0.00871   0.12163   0.00000  Uiso   1.00
N317   N     0.95497   0.59600   0.99319   0.00000  Uiso   1.00
N318   N     0.75343   0.05707   0.67039   0.00000  Uiso   1.00
N319   N     0.69761   0.97146   0.04657   0.00000  Uiso   1.00
N320   N     0.04521   0.59258   0.02780   0.00000  Uiso   1.00
N321   N     0.84367   0.05365   0.70501   0.00000  Uiso   1.00
N322   N     0.78785   0.96804   0.08119   0.00000  Uiso   1.00
C323   C     0.28272   0.52025   0.24490   0.00000  Uiso   1.00
C324   C     0.29317   0.53462   0.18037   0.00000  Uiso   1.00
C325   C     0.35052   0.48731   0.17241   0.00000  Uiso   1.00
C326   C     0.35021   0.51053   0.10940   0.00000  Uiso   1.00
C327   C     0.37491   0.52247   0.01727   0.00000  Uiso   1.00
C328   C     0.21592   0.52586   0.23673   0.00000  Uiso   1.00
C329   C     0.20831   0.47118   0.27617   0.00000  Uiso   1.00
C330   C     0.14297   0.48704   0.26061   0.00000  Uiso   1.00
C331   C     0.04772   0.48539   0.25602   0.00000  Uiso   1.00
C332   C     0.26880   0.58618   0.25061   0.00000  Uiso   1.00
C333   C     0.30564   0.58224   0.30173   0.00000  Uiso   1.00
C334   C     0.28481   0.64888   0.29786   0.00000  Uiso   1.00
C335   C     0.27167   0.74091   0.31482   0.00000  Uiso   1.00
C336   C     0.18020   0.64562   0.14714   0.00000  Uiso   1.00
C337   C     0.23749   0.60271   0.12727   0.00000  Uiso   1.00
C338   C     0.23710   0.62602   0.06425   0.00000  Uiso   1.00
C339   C     0.29443   0.57875   0.05621   0.00000  Uiso   1.00
C340   C     0.16024   0.59395   0.18364   0.00000  Uiso   1.00
C341   C     0.09490   0.60989   0.16802   0.00000  Uiso   1.00
C342   C     0.08719   0.55526   0.20742   0.00000  Uiso   1.00
C343   C     0.21312   0.65428   0.19751   0.00000  Uiso   1.00
C344   C     0.19223   0.72095   0.19357   0.00000  Uiso   1.00
C345   C     0.22903   0.71710   0.24467   0.00000  Uiso   1.00
H346   H     0.32606   0.46723   0.28624   0.00000  Uiso   1.00
H347   H     0.39360   0.43461   0.21352   0.00000  Uiso   1.00
H348   H     0.25141   0.41849   0.31726   0.00000  Uiso   1.00
H349   H     0.34873   0.52953   0.34281   0.00000  Uiso   1.00
H350   H     0.44390   0.42846   0.10947   0.00000  Uiso   1.00
H351   H     0.14409   0.39449   0.32824   0.00000  Uiso   1.00
H352   H     0.34931   0.62863   0.38212   0.00000  Uiso   1.00
H353   H     0.13685   0.69864   0.10580   0.00000  Uiso   1.00
H354   H     0.19400   0.67872   0.02317   0.00000  Uiso   1.00
H355   H     0.05182   0.66260   0.12692   0.00000  Uiso   1.00
H356   H     0.14914   0.77363   0.15247   0.00000  Uiso   1.00
H357   H     0.28190   0.62659   0.95498   0.00000  Uiso   1.00
H358   H     0.98209   0.59261   0.17375   0.00000  Uiso   1.00
H359   H     0.18731   0.82676   0.22763   0.00000  Uiso   1.00
O360   O     0.40390   0.51024   0.98112   0.00000  Uiso   1.00
O361   O     0.01057   0.46567   0.26815   0.00000  Uiso   1.00
O362   O     0.27980   0.77285   0.33883   0.00000  Uiso   1.00
N363   N     0.39794   0.47783   0.08445   0.00000  Uiso   1.00
N364   N     0.11764   0.44606   0.28898   0.00000  Uiso   1.00
N365   N     0.30948   0.66496   0.33936   0.00000  Uiso   1.00
N366   N     0.31077   0.58444   0.00132   0.00000  Uiso   1.00
N367   N     0.03047   0.55267   0.20585   0.00000  Uiso   1.00
N368   N     0.22231   0.77157   0.25623   0.00000  Uiso   1.00
C369   C     0.06245   0.03425   0.78343   0.00000  Uiso   1.00
C370   C     0.07423   0.96098   0.79749   0.00000  Uiso   1.00
C371   C     0.09698   0.92694   0.76195   0.00000  Uiso   1.00
C372   C     0.10450   0.86008   0.78267   0.00000  Uiso   1.00
C373   C     0.12507   0.75110   0.79626   0.00000  Uiso   1.00
C374   C     0.10643   0.01751   0.84569   0.00000  Uiso   1.00
C375   C     0.15625   0.03100   0.85067   0.00000  Uiso   1.00
C376   C     0.19086   0.01174   0.91197   0.00000  Uiso   1.00
C377   C     0.26138   0.99057   0.00039   0.00000  Uiso   1.00
C378   C     0.98812   0.08437   0.77564   0.00000  Uiso   1.00
C379   C     0.93847   0.15410   0.72173   0.00000  Uiso   1.00
C380   C     0.87349   0.19115   0.72406   0.00000  Uiso   1.00
C381   C     0.76032   0.27380   0.70371   0.00000  Uiso   1.00
C382   C     0.03534   0.97606   0.88343   0.00000  Uiso   1.00
C383   C     0.05950   0.92937   0.85181   0.00000  Uiso   1.00
C384   C     0.06699   0.86255   0.87259   0.00000  Uiso   1.00
C385   C     0.08975   0.82842   0.83709   0.00000  Uiso   1.00
C386   C     0.09170   0.98590   0.90001   0.00000  Uiso   1.00
C387   C     0.12625   0.96662   0.96132   0.00000  Uiso   1.00
C388   C     0.17611   0.98007   0.96639   0.00000  Uiso   1.00
C389   C     0.97339   0.05277   0.82996   0.00000  Uiso   1.00
C390   C     0.90848   0.08971   0.83238   0.00000  Uiso   1.00
C391   C     0.85873   0.15948   0.77848   0.00000  Uiso   1.00
H392   H     0.07392   0.05886   0.74114   0.00000  Uiso   1.00
H393   H     0.10838   0.95141   0.71992   0.00000  Uiso   1.00
H394   H     0.16763   0.05547   0.80863   0.00000  Uiso   1.00
H395   H     0.94989   0.17854   0.67971   0.00000  Uiso   1.00
H396   H     0.14012   0.81834   0.72036   0.00000  Uiso   1.00
H397   H     0.26503   0.03777   0.90740   0.00000  Uiso   1.00
H398   H     0.80588   0.29730   0.63555   0.00000  Uiso   1.00
H399   H     0.02387   0.95145   0.92573   0.00000  Uiso   1.00
H400   H     0.05559   0.83810   0.91463   0.00000  Uiso   1.00
H401   H     0.11484   0.94216   0.00334   0.00000  Uiso   1.00
H402   H     0.89710   0.06524   0.87442   0.00000  Uiso   1.00
H403   H     0.09727   0.72637   0.87840   0.00000  Uiso   1.00
H404   H     0.22218   0.94581   0.06544   0.00000  Uiso   1.00
H405   H     0.76303   0.20534   0.79359   0.00000  Uiso   1.00
O406   O     0.14048   0.69972   0.78876   0.00000  Uiso   1.00
O407   O     0.30435   0.98762   0.03415   0.00000  Uiso   1.00
O408   O     0.70196   0.32812   0.67748   0.00000  Uiso   1.00
N409   N     0.12567   0.81225   0.75907   0.00000  Uiso   1.00
N410   N     0.24246   0.01740   0.93394   0.00000  Uiso   1.00
N411   N     0.81320   0.26005   0.67979   0.00000  Uiso   1.00
N412   N     0.10261   0.76277   0.84411   0.00000  Uiso   1.00
N413   N     0.21941   0.96791   0.01898   0.00000  Uiso   1.00
N414   N     0.79014   0.21056   0.76483   0.00000  Uiso   1.00
C415   C     0.51388   0.55518   0.75022   0.00000  Uiso   1.00
C416   C     0.48114   0.57441   0.68196   0.00000  Uiso   1.00
C417   C     0.48352   0.52482   0.66515   0.00000  Uiso   1.00
C418   C     0.45037   0.55333   0.60007   0.00000  Uiso   1.00
C419   C     0.40478   0.57171   0.50115   0.00000  Uiso   1.00
C420   C     0.56120   0.58079   0.74496   0.00000  Uiso   1.00
C421   C     0.63089   0.53656   0.78112   0.00000  Uiso   1.00
C422   C     0.66512   0.57044   0.76907   0.00000  Uiso   1.00
C423   C     0.74381   0.59874   0.76799   0.00000  Uiso   1.00
C424   C     0.45605   0.60548   0.76504   0.00000  Uiso   1.00
C425   C     0.43734   0.58202   0.81809   0.00000  Uiso   1.00
C426   C     0.38305   0.63670   0.82297   0.00000  Uiso   1.00
C427   C     0.29848   0.70333   0.85307   0.00000  Uiso   1.00
C428   C     0.45076   0.69401   0.66456   0.00000  Uiso   1.00
C429   C     0.44686   0.64982   0.63543   0.00000  Uiso   1.00
C430   C     0.41369   0.67841   0.57037   0.00000  Uiso   1.00
C431   C     0.41602   0.62887   0.55346   0.00000  Uiso   1.00
C432   C     0.52692   0.65619   0.69843   0.00000  Uiso   1.00
C433   C     0.56105   0.69015   0.68633   0.00000  Uiso   1.00
C434   C     0.63078   0.64598   0.72246   0.00000  Uiso   1.00
C435   C     0.42176   0.68089   0.71851   0.00000  Uiso   1.00
C436   C     0.36750   0.73561   0.72331   0.00000  Uiso   1.00
C437   C     0.34871   0.71224   0.77635   0.00000  Uiso   1.00
H438   H     0.54058   0.49648   0.78645   0.00000  Uiso   1.00
H439   H     0.51007   0.46647   0.70117   0.00000  Uiso   1.00
H440   H     0.65740   0.47821   0.81713   0.00000  Uiso   1.00
H441   H     0.46388   0.52366   0.85409   0.00000  Uiso   1.00
H442   H     0.46114   0.46645   0.58610   0.00000  Uiso   1.00
H443   H     0.77181   0.49121   0.83061   0.00000  Uiso   1.00
H444   H     0.36373   0.58706   0.90856   0.00000  Uiso   1.00
H445   H     0.42407   0.75271   0.62833   0.00000  Uiso   1.00
H446   H     0.38716   0.73677   0.53437   0.00000  Uiso   1.00
H447   H     0.53451   0.74850   0.65032   0.00000  Uiso   1.00
H448   H     0.34098   0.79396   0.68729   0.00000  Uiso   1.00
H449   H     0.36139   0.68583   0.45071   0.00000  Uiso   1.00
H450   H     0.67206   0.71059   0.69523   0.00000  Uiso   1.00
H451   H     0.26398   0.80644   0.77318   0.00000  Uiso   1.00
O452   O     0.38911   0.56102   0.45945   0.00000  Uiso   1.00
O453   O     0.79669   0.59350   0.78024   0.00000  Uiso   1.00
O454   O     0.26130   0.71926   0.88252   0.00000  Uiso   1.00
N455   N     0.44272   0.52027   0.56713   0.00000  Uiso   1.00
N456   N     0.73318   0.54342   0.79573   0.00000  Uiso   1.00
N457   N     0.35167   0.63303   0.86862   0.00000  Uiso   1.00
N458   N     0.38904   0.63832   0.49428   0.00000  Uiso   1.00
N459   N     0.67950   0.66146   0.72288   0.00000  Uiso   1.00
N460   N     0.29800   0.75108   0.79577   0.00000  Uiso   1.00
C461   C     0.34396   0.13293   0.18489   0.00000  Uiso   1.00
C462   C     0.40304   0.10598   0.16083   0.00000  Uiso   1.00
C463   C     0.40440   0.08663   0.11378   0.00000  Uiso   1.00
C464   C     0.46320   0.06331   0.09856   0.00000  Uiso   1.00
C465   C     0.54652   0.02202   0.05654   0.00000  Uiso   1.00
C466   C     0.37433   0.08013   0.25845   0.00000  Uiso   1.00
C467   C     0.35156   0.03906   0.29347   0.00000  Uiso   1.00
C468   C     0.38619   0.99399   0.36043   0.00000  Uiso   1.00
C469   C     0.42492   0.91261   0.46998   0.00000  Uiso   1.00
C470   C     0.32440   0.20786   0.17422   0.00000  Uiso   1.00
C471   C     0.25964   0.27418   0.13843   0.00000  Uiso   1.00
C472   C     0.25223   0.33664   0.13449   0.00000  Uiso   1.00
C473   C     0.21343   0.45357   0.11326   0.00000  Uiso   1.00
C474   C     0.44595   0.12593   0.24154   0.00000  Uiso   1.00
C475   C     0.45844   0.10218   0.19161   0.00000  Uiso   1.00
C476   C     0.51725   0.07889   0.17645   0.00000  Uiso   1.00
C477   C     0.51870   0.05951   0.12938   0.00000  Uiso   1.00
C478   C     0.42973   0.07633   0.28922   0.00000  Uiso   1.00
C479   C     0.46440   0.03132   0.35615   0.00000  Uiso   1.00
C480   C     0.44169   0.99018   0.39126   0.00000  Uiso   1.00
C481   C     0.37980   0.20406   0.20499   0.00000  Uiso   1.00
C482   C     0.37249   0.26643   0.20111   0.00000  Uiso   1.00
C483   C     0.30773   0.33283   0.16532   0.00000  Uiso   1.00
H484   H     0.30083   0.13588   0.16094   0.00000  Uiso   1.00
H485   H     0.36152   0.08957   0.08998   0.00000  Uiso   1.00
H486   H     0.30868   0.04202   0.26965   0.00000  Uiso   1.00
H487   H     0.21678   0.27710   0.11463   0.00000  Uiso   1.00
H488   H     0.45325   0.03653   0.02489   0.00000  Uiso   1.00
H489   H     0.34182   0.93628   0.40373   0.00000  Uiso   1.00
H490   H     0.14803   0.43199   0.07685   0.00000  Uiso   1.00
H491   H     0.48909   0.12297   0.26550   0.00000  Uiso   1.00
H492   H     0.56011   0.07595   0.20027   0.00000  Uiso   1.00
H493   H     0.50727   0.02839   0.37994   0.00000  Uiso   1.00
H494   H     0.41537   0.26347   0.22493   0.00000  Uiso   1.00
H495   H     0.61444   0.02547   0.11441   0.00000  Uiso   1.00
H496   H     0.50300   0.92521   0.49326   0.00000  Uiso   1.00
H497   H     0.30922   0.42093   0.16637   0.00000  Uiso   1.00
O498   O     0.57718   0.00028   0.02487   0.00000  Uiso   1.00
O499   O     0.43097   0.86876   0.52190   0.00000  Uiso   1.00
O500   O     0.17673   0.51912   0.09304   0.00000  Uiso   1.00
N501   N     0.48143   0.04039   0.05490   0.00000  Uiso   1.00
N502   N     0.37726   0.94665   0.40910   0.00000  Uiso   1.00
N503   N     0.19608   0.41010   0.10350   0.00000  Uiso   1.00
N504   N     0.56817   0.03444   0.10307   0.00000  Uiso   1.00
N505   N     0.46399   0.94070   0.45727   0.00000  Uiso   1.00
N506   N     0.28281   0.40415   0.15167   0.00000  Uiso   1.00
C507   C     0.94019   0.66447   0.61019   0.00000  Uiso   1.00
C508   C     0.94229   0.59502   0.62761   0.00000  Uiso   1.00
C509   C     0.98580   0.53865   0.61758   0.00000  Uiso   1.00
C510   C     0.97974   0.47981   0.63686   0.00000  Uiso   1.00
C511   C     0.99027   0.37234   0.65958   0.00000  Uiso   1.00
C512   C     0.86650   0.73015   0.56558   0.00000  Uiso   1.00
C513   C     0.84629   0.78739   0.50339   0.00000  Uiso   1.00
C514   C     0.77642   0.84230   0.47046   0.00000  Uiso   1.00
C515   C     0.66928   0.94464   0.39689   0.00000  Uiso   1.00
C516   C     0.95137   0.66534   0.67307   0.00000  Uiso   1.00
C517   C     0.00250   0.66811   0.70125   0.00000  Uiso   1.00
C518   C     0.00408   0.66848   0.75881   0.00000  Uiso   1.00
C519   C     0.02871   0.67019   0.85213   0.00000  Uiso   1.00
C520   C     0.85205   0.66022   0.66227   0.00000  Uiso   1.00
C521   C     0.89442   0.59272   0.65590   0.00000  Uiso   1.00
C522   C     0.88829   0.53395   0.67520   0.00000  Uiso   1.00
C523   C     0.93178   0.47749   0.66520   0.00000  Uiso   1.00
C524   C     0.81863   0.72784   0.59386   0.00000  Uiso   1.00
C525   C     0.74878   0.78268   0.56102   0.00000  Uiso   1.00
C526   C     0.72846   0.83999   0.49880   0.00000  Uiso   1.00
C527   C     0.90350   0.66303   0.70136   0.00000  Uiso   1.00
C528   C     0.90499   0.66340   0.75888   0.00000  Uiso   1.00
C529   C     0.95612   0.66617   0.78715   0.00000  Uiso   1.00
H530   H     0.97745   0.66627   0.58816   0.00000  Uiso   1.00
H531   H     0.02284   0.54046   0.59568   0.00000  Uiso   1.00
H532   H     0.88334   0.78916   0.48152   0.00000  Uiso   1.00
H533   H     0.03953   0.66989   0.67935   0.00000  Uiso   1.00
H534   H     0.05202   0.39996   0.61647   0.00000  Uiso   1.00
H535   H     0.75790   0.92438   0.37576   0.00000  Uiso   1.00
H536   H     0.08726   0.67289   0.79292   0.00000  Uiso   1.00
H537   H     0.81478   0.65843   0.68430   0.00000  Uiso   1.00
H538   H     0.85124   0.53217   0.69709   0.00000  Uiso   1.00
H539   H     0.71175   0.78088   0.58293   0.00000  Uiso   1.00
H540   H     0.86794   0.66161   0.78076   0.00000  Uiso   1.00
H541   H     0.91275   0.39324   0.69877   0.00000  Uiso   1.00
H542   H     0.61862   0.91766   0.45806   0.00000  Uiso   1.00
H543   H     0.94798   0.66617   0.87523   0.00000  Uiso   1.00
O544   O     0.00929   0.31371   0.66428   0.00000  Uiso   1.00
O545   O     0.62341   0.00173   0.34849   0.00000  Uiso   1.00
O546   O     0.05552   0.67177   0.89580   0.00000  Uiso   1.00
N547   N     0.01425   0.41570   0.63409   0.00000  Uiso   1.00
N548   N     0.73926   0.90599   0.40904   0.00000  Uiso   1.00
N549   N     0.04717   0.67089   0.79905   0.00000  Uiso   1.00
N550   N     0.93931   0.41208   0.67838   0.00000  Uiso   1.00
N551   N     0.66432   0.90238   0.45333   0.00000  Uiso   1.00
N552   N     0.97223   0.66727   0.84333   0.00000  Uiso   1.00
