data_job_06438
_audit_creation_date              2018-12-19
_audit_creation_method            'Materials Studio'
_symmetry_space_group_name_H-M    'P1'
_symmetry_Int_Tables_number       1
_symmetry_cell_setting            triclinic
loop_
_symmetry_equiv_pos_as_xyz
  x,y,z
_cell_length_a                    11.9508
_cell_length_b                    19.0096
_cell_length_c                    19.0512
_cell_angle_alpha                 64.4740
_cell_angle_beta                  77.9605
_cell_angle_gamma                 102.0346
loop_
_atom_site_label
_atom_site_type_symbol
_atom_site_fract_x
_atom_site_fract_y
_atom_site_fract_z
_atom_site_U_iso_or_equiv
_atom_site_adp_type
_atom_site_occupancy
C1     C     0.94991   0.30754   0.55148   0.00000  Uiso   1.00
C2     C     0.01527   0.24421   0.56866   0.00000  Uiso   1.00
C3     C     0.11547   0.24711   0.59466   0.00000  Uiso   1.00
C4     C     0.16202   0.18329   0.60694   0.00000  Uiso   1.00
C5     C     0.27143   0.09477   0.63559   0.00000  Uiso   1.00
C6     C     0.95181   0.33825   0.46278   0.00000  Uiso   1.00
C7     C     0.99864   0.42021   0.39976   0.00000  Uiso   1.00
C8     C     0.99175   0.43553   0.32291   0.00000  Uiso   1.00
C9     C     0.00255   0.49301   0.18719   0.00000  Uiso   1.00
C10    C     0.81722   0.25895   0.60626   0.00000  Uiso   1.00
C11    C     0.75087   0.27424   0.66387   0.00000  Uiso   1.00
C12    C     0.63065   0.22281   0.70781   0.00000  Uiso   1.00
C13    C     0.43248   0.15717   0.79488   0.00000  Uiso   1.00
C14    C     0.85439   0.18902   0.52706   0.00000  Uiso   1.00
C15    C     0.96338   0.17984   0.55539   0.00000  Uiso   1.00
C16    C     0.00979   0.11599   0.56764   0.00000  Uiso   1.00
C17    C     0.11005   0.11880   0.59365   0.00000  Uiso   1.00
C18    C     0.89993   0.27387   0.44951   0.00000  Uiso   1.00
C19    C     0.89296   0.28908   0.37274   0.00000  Uiso   1.00
C20    C     0.93977   0.37105   0.30962   0.00000  Uiso   1.00
C21    C     0.76533   0.19457   0.59300   0.00000  Uiso   1.00
C22    C     0.64519   0.14311   0.63685   0.00000  Uiso   1.00
C23    C     0.57867   0.15833   0.69452   0.00000  Uiso   1.00
H24    H     0.99030   0.35766   0.56180   0.00000  Uiso   1.00
H25    H     0.15560   0.29695   0.60491   0.00000  Uiso   1.00
H26    H     0.03877   0.47001   0.41004   0.00000  Uiso   1.00
H27    H     0.79105   0.32406   0.67411   0.00000  Uiso   1.00
H28    H     0.31601   0.20126   0.64682   0.00000  Uiso   1.00
H29    H     0.06963   0.56618   0.23594   0.00000  Uiso   1.00
H30    H     0.54725   0.25843   0.79279   0.00000  Uiso   1.00
H31    H     0.81400   0.13891   0.51673   0.00000  Uiso   1.00
H32    H     0.96962   0.06618   0.55737   0.00000  Uiso   1.00
H33    H     0.85280   0.23925   0.36250   0.00000  Uiso   1.00
H34    H     0.60507   0.09331   0.62657   0.00000  Uiso   1.00
H35    H     0.16507   0.01397   0.60823   0.00000  Uiso   1.00
H36    H     0.91868   0.37889   0.19735   0.00000  Uiso   1.00
H37    H     0.39631   0.07113   0.75420   0.00000  Uiso   1.00
O38    O     0.34612   0.06374   0.65505   0.00000  Uiso   1.00
O39    O     0.02286   0.54250   0.11600   0.00000  Uiso   1.00
O40    O     0.33751   0.13873   0.84657   0.00000  Uiso   1.00
N41    N     0.25912   0.16715   0.63218   0.00000  Uiso   1.00
N42    N     0.02878   0.50833   0.24803   0.00000  Uiso   1.00
N43    N     0.54039   0.22062   0.76862   0.00000  Uiso   1.00
N44    N     0.17789   0.06637   0.61142   0.00000  Uiso   1.00
N45    N     0.94756   0.40755   0.22726   0.00000  Uiso   1.00
N46    N     0.45917   0.11984   0.74786   0.00000  Uiso   1.00
C47    C     0.64296   0.14112   0.30663   0.00000  Uiso   1.00
C48    C     0.77128   0.18687   0.24361   0.00000  Uiso   1.00
C49    C     0.86860   0.15793   0.24647   0.00000  Uiso   1.00
C50    C     0.97862   0.20909   0.18295   0.00000  Uiso   1.00
C51    C     0.17604   0.26839   0.09486   0.00000  Uiso   1.00
C52    C     0.61413   0.19926   0.33762   0.00000  Uiso   1.00
C53    C     0.57930   0.18073   0.41952   0.00000  Uiso   1.00
C54    C     0.55701   0.24232   0.43515   0.00000  Uiso   1.00
C55    C     0.51035   0.32083   0.49302   0.00000  Uiso   1.00
C56    C     0.55878   0.13477   0.25787   0.00000  Uiso   1.00
C57    C     0.47738   0.06201   0.27274   0.00000  Uiso   1.00
C58    C     0.40846   0.06930   0.22123   0.00000  Uiso   1.00
C59    C     0.27587   0.04767   0.15529   0.00000  Uiso   1.00
C60    C     0.66529   0.28345   0.18875   0.00000  Uiso   1.00
C61    C     0.78341   0.26419   0.17958   0.00000  Uiso   1.00
C62    C     0.89331   0.31541   0.11604   0.00000  Uiso   1.00
C63    C     0.99077   0.28654   0.11881   0.00000  Uiso   1.00
C64    C     0.62625   0.27657   0.27360   0.00000  Uiso   1.00
C65    C     0.60400   0.33820   0.28910   0.00000  Uiso   1.00
C66    C     0.56915   0.31977   0.37100   0.00000  Uiso   1.00
C67    C     0.57090   0.21208   0.19385   0.00000  Uiso   1.00
C68    C     0.50209   0.21948   0.14231   0.00000  Uiso   1.00
C69    C     0.42061   0.14675   0.15709   0.00000  Uiso   1.00
H70    H     0.63352   0.08093   0.35648   0.00000  Uiso   1.00
H71    H     0.85918   0.09810   0.29603   0.00000  Uiso   1.00
H72    H     0.56991   0.12089   0.46906   0.00000  Uiso   1.00
H73    H     0.46802   0.00219   0.32229   0.00000  Uiso   1.00
H74    H     0.11474   0.15124   0.20079   0.00000  Uiso   1.00
H75    H     0.50475   0.19929   0.56563   0.00000  Uiso   1.00
H76    H     0.28988   0.94898   0.25615   0.00000  Uiso   1.00
H77    H     0.67473   0.34365   0.13890   0.00000  Uiso   1.00
H78    H     0.90266   0.37523   0.06651   0.00000  Uiso   1.00
H79    H     0.61339   0.39802   0.23954   0.00000  Uiso   1.00
H80    H     0.51150   0.27932   0.09277   0.00000  Uiso   1.00
H81    H     0.15003   0.37617   0.01451   0.00000  Uiso   1.00
H82    H     0.54003   0.42422   0.37935   0.00000  Uiso   1.00
H83    H     0.32517   0.17391   0.06986   0.00000  Uiso   1.00
O84    O     0.28159   0.27975   0.06397   0.00000  Uiso   1.00
O85    O     0.48128   0.34278   0.54263   0.00000  Uiso   1.00
O86    O     0.19940   0.01439   0.13659   0.00000  Uiso   1.00
N87    N     0.09176   0.19983   0.16688   0.00000  Uiso   1.00
N88    N     0.52147   0.24476   0.50798   0.00000  Uiso   1.00
N89    N     0.32057   0.01075   0.21865   0.00000  Uiso   1.00
N90    N     0.11075   0.32087   0.06664   0.00000  Uiso   1.00
N91    N     0.54046   0.36579   0.40774   0.00000  Uiso   1.00
N92    N     0.33956   0.13178   0.11841   0.00000  Uiso   1.00
C93    C     0.49764   0.55129   0.14194   0.00000  Uiso   1.00
C94    C     0.58026   0.56870   0.18790   0.00000  Uiso   1.00
C95    C     0.70631   0.59456   0.15919   0.00000  Uiso   1.00
C96    C     0.76526   0.60711   0.21052   0.00000  Uiso   1.00
C97    C     0.90341   0.63606   0.27016   0.00000  Uiso   1.00
C98    C     0.41108   0.46250   0.19960   0.00000  Uiso   1.00
C99    C     0.39488   0.39908   0.18071   0.00000  Uiso   1.00
C100   C     0.31139   0.32222   0.24189   0.00000  Uiso   1.00
C101   C     0.18682   0.18632   0.31966   0.00000  Uiso   1.00
C102   C     0.41972   0.60640   0.13578   0.00000  Uiso   1.00
C103   C     0.41075   0.66395   0.06323   0.00000  Uiso   1.00
C104   C     0.33451   0.70824   0.07068   0.00000  Uiso   1.00
C105   C     0.22335   0.79576   0.04936   0.00000  Uiso   1.00
C106   C     0.37817   0.52758   0.28415   0.00000  Uiso   1.00
C107   C     0.51537   0.55582   0.26515   0.00000  Uiso   1.00
C108   C     0.57413   0.56833   0.31653   0.00000  Uiso   1.00
C109   C     0.70025   0.59421   0.28790   0.00000  Uiso   1.00
C110   C     0.34619   0.44962   0.27684   0.00000  Uiso   1.00
C111   C     0.26270   0.37285   0.33805   0.00000  Uiso   1.00
C112   C     0.24638   0.30932   0.31927   0.00000  Uiso   1.00
C113   C     0.35483   0.59352   0.21302   0.00000  Uiso   1.00
C114   C     0.27857   0.63772   0.22058   0.00000  Uiso   1.00
C115   C     0.26950   0.69533   0.14806   0.00000  Uiso   1.00
H116   H     0.54816   0.56131   0.08180   0.00000  Uiso   1.00
H117   H     0.75650   0.60451   0.09941   0.00000  Uiso   1.00
H118   H     0.44510   0.40906   0.12093   0.00000  Uiso   1.00
H119   H     0.46098   0.67390   0.00347   0.00000  Uiso   1.00
H120   H     0.95886   0.64671   0.15301   0.00000  Uiso   1.00
H121   H     0.30223   0.23460   0.19837   0.00000  Uiso   1.00
H122   H     0.33570   0.79305   0.95069   0.00000  Uiso   1.00
H123   H     0.32765   0.51755   0.34429   0.00000  Uiso   1.00
H124   H     0.52389   0.55836   0.37631   0.00000  Uiso   1.00
H125   H     0.21249   0.36290   0.39782   0.00000  Uiso   1.00
H126   H     0.22837   0.62774   0.28036   0.00000  Uiso   1.00
H127   H     0.77007   0.60924   0.37775   0.00000  Uiso   1.00
H128   H     0.11343   0.19713   0.42311   0.00000  Uiso   1.00
H129   H     0.14691   0.75559   0.17543   0.00000  Uiso   1.00
O130   O     0.99754   0.65558   0.28172   0.00000  Uiso   1.00
O131   O     0.13605   0.11492   0.34122   0.00000  Uiso   1.00
O132   O     0.17997   0.84760   0.01626   0.00000  Uiso   1.00
N133   N     0.88750   0.63231   0.20151   0.00000  Uiso   1.00
N134   N     0.27360   0.24700   0.24392   0.00000  Uiso   1.00
N135   N     0.30487   0.76910   0.01235   0.00000  Uiso   1.00
N136   N     0.78591   0.61215   0.32243   0.00000  Uiso   1.00
N137   N     0.17202   0.22684   0.36485   0.00000  Uiso   1.00
N138   N     0.20329   0.74894   0.13328   0.00000  Uiso   1.00
C139   C     0.44988   0.44809   0.69268   0.00000  Uiso   1.00
C140   C     0.51528   0.43094   0.75583   0.00000  Uiso   1.00
C141   C     0.61545   0.40485   0.75297   0.00000  Uiso   1.00
C142   C     0.66206   0.39262   0.81662   0.00000  Uiso   1.00
C143   C     0.77153   0.36399   0.90490   0.00000  Uiso   1.00
C144   C     0.45183   0.53700   0.66194   0.00000  Uiso   1.00
C145   C     0.49864   0.60009   0.58012   0.00000  Uiso   1.00
C146   C     0.49182   0.67714   0.56473   0.00000  Uiso   1.00
C147   C     0.50270   0.81317   0.50723   0.00000  Uiso   1.00
C148   C     0.31717   0.39323   0.74122   0.00000  Uiso   1.00
C149   C     0.25075   0.33544   0.72606   0.00000  Uiso   1.00
C150   C     0.13054   0.29145   0.77741   0.00000  Uiso   1.00
C151   C     0.93235   0.20425   0.84301   0.00000  Uiso   1.00
C152   C     0.35450   0.47275   0.81083   0.00000  Uiso   1.00
C153   C     0.46348   0.44434   0.82001   0.00000  Uiso   1.00
C154   C     0.50994   0.43214   0.88368   0.00000  Uiso   1.00
C155   C     0.61016   0.40603   0.88091   0.00000  Uiso   1.00
C156   C     0.40003   0.55041   0.72611   0.00000  Uiso   1.00
C157   C     0.39312   0.62738   0.71084   0.00000  Uiso   1.00
C158   C     0.43992   0.69057   0.62902   0.00000  Uiso   1.00
C159   C     0.26537   0.40662   0.80540   0.00000  Uiso   1.00
C160   C     0.14524   0.36273   0.85678   0.00000  Uiso   1.00
C161   C     0.07865   0.30488   0.84170   0.00000  Uiso   1.00
H162   H     0.49021   0.43766   0.64271   0.00000  Uiso   1.00
H163   H     0.65553   0.39449   0.70329   0.00000  Uiso   1.00
H164   H     0.53871   0.58970   0.53047   0.00000  Uiso   1.00
H165   H     0.29087   0.32509   0.67639   0.00000  Uiso   1.00
H166   H     0.81599   0.35257   0.79873   0.00000  Uiso   1.00
H167   H     0.56966   0.76417   0.43434   0.00000  Uiso   1.00
H168   H     0.04702   0.20618   0.74203   0.00000  Uiso   1.00
H169   H     0.31417   0.48319   0.86079   0.00000  Uiso   1.00
H170   H     0.46983   0.44251   0.93334   0.00000  Uiso   1.00
H171   H     0.35302   0.63772   0.76051   0.00000  Uiso   1.00
H172   H     0.10518   0.37311   0.90643   0.00000  Uiso   1.00
H173   H     0.66528   0.39155   0.98545   0.00000  Uiso   1.00
H174   H     0.41894   0.80315   0.62104   0.00000  Uiso   1.00
H175   H     0.89631   0.24516   0.92874   0.00000  Uiso   1.00
O176   O     0.84623   0.34451   0.93586   0.00000  Uiso   1.00
O177   O     0.52303   0.88450   0.45779   0.00000  Uiso   1.00
O178   O     0.83735   0.15244   0.86147   0.00000  Uiso   1.00
N179   N     0.75914   0.36731   0.83273   0.00000  Uiso   1.00
N180   N     0.52885   0.75213   0.49204   0.00000  Uiso   1.00
N181   N     0.04022   0.23048   0.77969   0.00000  Uiso   1.00
N182   N     0.67804   0.38828   0.93320   0.00000  Uiso   1.00
N183   N     0.44775   0.77311   0.59251   0.00000  Uiso   1.00
N184   N     0.95912   0.25145   0.88016   0.00000  Uiso   1.00
C185   C     0.14299   0.69358   0.85845   0.00000  Uiso   1.00
C186   C     0.27133   0.75670   0.81272   0.00000  Uiso   1.00
C187   C     0.36868   0.75387   0.84157   0.00000  Uiso   1.00
C188   C     0.47871   0.81748   0.79046   0.00000  Uiso   1.00
C189   C     0.67616   0.90572   0.73118   0.00000  Uiso   1.00
C190   C     0.11407   0.66242   0.80052   0.00000  Uiso   1.00
C191   C     0.07917   0.58031   0.81912   0.00000  Uiso   1.00
C192   C     0.05681   0.56455   0.75773   0.00000  Uiso   1.00
C193   C     0.01001   0.50641   0.67953   0.00000  Uiso   1.00
C194   C     0.05887   0.74249   0.86472   0.00000  Uiso   1.00
C195   C     0.97752   0.72770   0.93730   0.00000  Uiso   1.00
C196   C     0.90866   0.77935   0.92996   0.00000  Uiso   1.00
C197   C     0.77615   0.84553   0.95145   0.00000  Uiso   1.00
C198   C     0.16530   0.81160   0.71636   0.00000  Uiso   1.00
C199   C     0.28344   0.82081   0.73555   0.00000  Uiso   1.00
C200   C     0.39336   0.88445   0.68437   0.00000  Uiso   1.00
C201   C     0.49085   0.88171   0.71315   0.00000  Uiso   1.00
C202   C     0.12618   0.72652   0.72334   0.00000  Uiso   1.00
C203   C     0.10385   0.71089   0.66192   0.00000  Uiso   1.00
C204   C     0.06894   0.62877   0.68041   0.00000  Uiso   1.00
C205   C     0.07098   0.80660   0.78755   0.00000  Uiso   1.00
C206   C     0.00221   0.85828   0.78010   0.00000  Uiso   1.00
C207   C     0.92079   0.84357   0.85265   0.00000  Uiso   1.00
H208   H     0.13356   0.64367   0.91853   0.00000  Uiso   1.00
H209   H     0.35927   0.70424   0.90130   0.00000  Uiso   1.00
H210   H     0.06980   0.53071   0.87885   0.00000  Uiso   1.00
H211   H     0.96818   0.67809   0.99701   0.00000  Uiso   1.00
H212   H     0.61487   0.79965   0.84815   0.00000  Uiso   1.00
H213   H     0.00446   0.43375   0.80082   0.00000  Uiso   1.00
H214   H     0.79016   0.74451   0.04999   0.00000  Uiso   1.00
H215   H     0.17473   0.86151   0.65627   0.00000  Uiso   1.00
H216   H     0.40270   0.93405   0.62465   0.00000  Uiso   1.00
H217   H     0.11323   0.76051   0.60220   0.00000  Uiso   1.00
H218   H     0.01161   0.90788   0.72036   0.00000  Uiso   1.00
H219   H     0.65012   0.98617   0.62361   0.00000  Uiso   1.00
H220   H     0.03970   0.62026   0.57629   0.00000  Uiso   1.00
H221   H     0.82541   0.93102   0.82545   0.00000  Uiso   1.00
O222   O     0.78173   0.93668   0.71980   0.00000  Uiso   1.00
O223   O     0.98087   0.45663   0.65772   0.00000  Uiso   1.00
O224   O     0.69973   0.86434   0.98462   0.00000  Uiso   1.00
N225   N     0.59187   0.83361   0.79965   0.00000  Uiso   1.00
N226   N     0.02119   0.49151   0.75540   0.00000  Uiso   1.00
N227   N     0.82082   0.78203   0.98835   0.00000  Uiso   1.00
N228   N     0.61084   0.93397   0.67883   0.00000  Uiso   1.00
N229   N     0.04016   0.59187   0.63458   0.00000  Uiso   1.00
N230   N     0.83979   0.88239   0.86753   0.00000  Uiso   1.00
C231   C     0.99764   0.85828   0.44892   0.00000  Uiso   1.00
C232   C     0.08020   0.81215   0.43161   0.00000  Uiso   1.00
C233   C     0.20625   0.84089   0.40577   0.00000  Uiso   1.00
C234   C     0.26513   0.78939   0.39333   0.00000  Uiso   1.00
C235   C     0.40319   0.72952   0.36452   0.00000  Uiso   1.00
C236   C     0.91111   0.80058   0.53754   0.00000  Uiso   1.00
C237   C     0.89499   0.81962   0.60075   0.00000  Uiso   1.00
C238   C     0.81152   0.75838   0.67748   0.00000  Uiso   1.00
C239   C     0.68701   0.68058   0.81311   0.00000  Uiso   1.00
C240   C     0.91967   0.86439   0.39397   0.00000  Uiso   1.00
C241   C     0.91071   0.93706   0.33648   0.00000  Uiso   1.00
C242   C     0.83442   0.92955   0.29235   0.00000  Uiso   1.00
C243   C     0.72320   0.95082   0.20506   0.00000  Uiso   1.00
C244   C     0.87805   0.71570   0.47277   0.00000  Uiso   1.00
C245   C     0.01523   0.73470   0.44457   0.00000  Uiso   1.00
C246   C     0.07394   0.68314   0.43216   0.00000  Uiso   1.00
C247   C     0.20006   0.71180   0.40631   0.00000  Uiso   1.00
C248   C     0.84616   0.72314   0.55050   0.00000  Uiso   1.00
C249   C     0.76268   0.66187   0.62714   0.00000  Uiso   1.00
C250   C     0.74645   0.68080   0.69046   0.00000  Uiso   1.00
C251   C     0.85471   0.78694   0.40692   0.00000  Uiso   1.00
C252   C     0.77841   0.77931   0.36287   0.00000  Uiso   1.00
C253   C     0.76934   0.85196   0.30533   0.00000  Uiso   1.00
H254   H     0.04821   0.91857   0.43884   0.00000  Uiso   1.00
H255   H     0.25649   0.90082   0.39576   0.00000  Uiso   1.00
H256   H     0.94527   0.87955   0.59071   0.00000  Uiso   1.00
H257   H     0.96099   0.99698   0.32648   0.00000  Uiso   1.00
H258   H     0.45875   0.84698   0.35374   0.00000  Uiso   1.00
H259   H     0.80250   0.80215   0.76479   0.00000  Uiso   1.00
H260   H     0.83566   0.04977   0.20761   0.00000  Uiso   1.00
H261   H     0.82748   0.65540   0.48286   0.00000  Uiso   1.00
H262   H     0.02365   0.62321   0.44219   0.00000  Uiso   1.00
H263   H     0.71242   0.60194   0.63714   0.00000  Uiso   1.00
H264   H     0.72815   0.71937   0.37291   0.00000  Uiso   1.00
H265   H     0.26977   0.62166   0.39143   0.00000  Uiso   1.00
H266   H     0.61351   0.57683   0.80248   0.00000  Uiso   1.00
H267   H     0.64667   0.82445   0.24530   0.00000  Uiso   1.00
O268   O     0.49729   0.71789   0.34507   0.00000  Uiso   1.00
O269   O     0.63629   0.65907   0.88434   0.00000  Uiso   1.00
O270   O     0.67980   0.98394   0.15333   0.00000  Uiso   1.00
N271   N     0.38736   0.79838   0.36818   0.00000  Uiso   1.00
N272   N     0.77381   0.75645   0.75248   0.00000  Uiso   1.00
N273   N     0.80479   0.98796   0.23158   0.00000  Uiso   1.00
N274   N     0.28567   0.67714   0.38846   0.00000  Uiso   1.00
N275   N     0.67212   0.63521   0.77277   0.00000  Uiso   1.00
N276   N     0.70310   0.86672   0.25187   0.00000  Uiso   1.00
