data_job_04721
_audit_creation_date              2018-12-19
_audit_creation_method            'Materials Studio'
_symmetry_space_group_name_H-M    'P1'
_symmetry_Int_Tables_number       1
_symmetry_cell_setting            triclinic
loop_
_symmetry_equiv_pos_as_xyz
  x,y,z
_cell_length_a                    9.4559
_cell_length_b                    19.5916
_cell_length_c                    26.7912
_cell_angle_alpha                 90.0000
_cell_angle_beta                  90.0000
_cell_angle_gamma                 90.0000
loop_
_atom_site_label
_atom_site_type_symbol
_atom_site_fract_x
_atom_site_fract_y
_atom_site_fract_z
_atom_site_U_iso_or_equiv
_atom_site_adp_type
_atom_site_occupancy
C1     C     0.65673   0.80429   0.33542   0.00000  Uiso   1.00
C2     C     0.56652   0.86154   0.31366   0.00000  Uiso   1.00
C3     C     0.55045   0.87607   0.26328   0.00000  Uiso   1.00
C4     C     0.46332   0.93057   0.25097   0.00000  Uiso   1.00
C5     C     0.33372   0.01362   0.21159   0.00000  Uiso   1.00
C6     C     0.75967   0.83844   0.37142   0.00000  Uiso   1.00
C7     C     0.90600   0.83355   0.36961   0.00000  Uiso   1.00
C8     C     0.98146   0.86861   0.40593   0.00000  Uiso   1.00
C9     C     0.15173   0.91576   0.45625   0.00000  Uiso   1.00
C10    C     0.55755   0.76151   0.36759   0.00000  Uiso   1.00
C11    C     0.53396   0.69193   0.36258   0.00000  Uiso   1.00
C12    C     0.43927   0.66220   0.39569   0.00000  Uiso   1.00
C13    C     0.29572   0.58991   0.44007   0.00000  Uiso   1.00
C14    C     0.53055   0.87522   0.40315   0.00000  Uiso   1.00
C15    C     0.49799   0.90006   0.35045   0.00000  Uiso   1.00
C16    C     0.41085   0.95455   0.33821   0.00000  Uiso   1.00
C17    C     0.39465   0.96917   0.28783   0.00000  Uiso   1.00
C18    C     0.69114   0.87697   0.40821   0.00000  Uiso   1.00
C19    C     0.76640   0.91203   0.44455   0.00000  Uiso   1.00
C20    C     0.91280   0.90720   0.44279   0.00000  Uiso   1.00
C21    C     0.48901   0.80004   0.40438   0.00000  Uiso   1.00
C22    C     0.39435   0.77041   0.43751   0.00000  Uiso   1.00
C23    C     0.37062   0.70080   0.43255   0.00000  Uiso   1.00
H24    H     0.71010   0.77430   0.30678   0.00000  Uiso   1.00
H25    H     0.60352   0.84625   0.23482   0.00000  Uiso   1.00
H26    H     0.95901   0.80373   0.34114   0.00000  Uiso   1.00
H27    H     0.58702   0.66213   0.33411   0.00000  Uiso   1.00
H28    H     0.45517   0.94303   0.17126   0.00000  Uiso   1.00
H29    H     0.20474   0.85336   0.39545   0.00000  Uiso   1.00
H30    H     0.42033   0.55476   0.38063   0.00000  Uiso   1.00
H31    H     0.47720   0.90522   0.43179   0.00000  Uiso   1.00
H32    H     0.35782   0.98436   0.36669   0.00000  Uiso   1.00
H33    H     0.71333   0.94184   0.47301   0.00000  Uiso   1.00
H34    H     0.34133   0.80024   0.46598   0.00000  Uiso   1.00
H35    H     0.25576   0.05513   0.27830   0.00000  Uiso   1.00
H36    H     0.00534   0.96545   0.50249   0.00000  Uiso   1.00
H37    H     0.22092   0.66686   0.48766   0.00000  Uiso   1.00
O38    O     0.28118   0.04879   0.17970   0.00000  Uiso   1.00
O39    O     0.26459   0.93113   0.47383   0.00000  Uiso   1.00
O40    O     0.23546   0.53939   0.45438   0.00000  Uiso   1.00
N41    N     0.42460   0.95854   0.20539   0.00000  Uiso   1.00
N42    N     0.12541   0.87471   0.41499   0.00000  Uiso   1.00
N43    N     0.39208   0.59555   0.40113   0.00000  Uiso   1.00
N44    N     0.31730   0.01886   0.26298   0.00000  Uiso   1.00
N45    N     0.01811   0.93503   0.47258   0.00000  Uiso   1.00
N46    N     0.28478   0.65587   0.45873   0.00000  Uiso   1.00
C47    C     0.38011   0.70345   0.17046   0.00000  Uiso   1.00
C48    C     0.28321   0.64769   0.19064   0.00000  Uiso   1.00
C49    C     0.26416   0.63148   0.24062   0.00000  Uiso   1.00
C50    C     0.17091   0.57877   0.25142   0.00000  Uiso   1.00
C51    C     0.03139   0.49751   0.28851   0.00000  Uiso   1.00
C52    C     0.48024   0.66826   0.13401   0.00000  Uiso   1.00
C53    C     0.62684   0.66937   0.13637   0.00000  Uiso   1.00
C54    C     0.69945   0.63398   0.09950   0.00000  Uiso   1.00
C55    C     0.86583   0.58471   0.04865   0.00000  Uiso   1.00
C56    C     0.28661   0.75001   0.13897   0.00000  Uiso   1.00
C57    C     0.27042   0.81985   0.14549   0.00000  Uiso   1.00
C58    C     0.18002   0.85330   0.11279   0.00000  Uiso   1.00
C59    C     0.04576   0.93095   0.06964   0.00000  Uiso   1.00
C60    C     0.24838   0.63867   0.10078   0.00000  Uiso   1.00
C61    C     0.21167   0.61250   0.15279   0.00000  Uiso   1.00
C62    C     0.11842   0.55981   0.16352   0.00000  Uiso   1.00
C63    C     0.09922   0.54352   0.21350   0.00000  Uiso   1.00
C64    C     0.40870   0.63308   0.09616   0.00000  Uiso   1.00
C65    C     0.48111   0.59769   0.05927   0.00000  Uiso   1.00
C66    C     0.62778   0.59873   0.06158   0.00000  Uiso   1.00
C67    C     0.21506   0.71482   0.10112   0.00000  Uiso   1.00
C68    C     0.12468   0.74817   0.06840   0.00000  Uiso   1.00
C69    C     0.10835   0.81805   0.07487   0.00000  Uiso   1.00
H70    H     0.43582   0.73085   0.19993   0.00000  Uiso   1.00
H71    H     0.31956   0.65872   0.26990   0.00000  Uiso   1.00
H72    H     0.68218   0.69660   0.16566   0.00000  Uiso   1.00
H73    H     0.32581   0.84706   0.17479   0.00000  Uiso   1.00
H74    H     0.15915   0.56322   0.33078   0.00000  Uiso   1.00
H75    H     0.92376   0.64312   0.11099   0.00000  Uiso   1.00
H76    H     0.17229   0.96039   0.13023   0.00000  Uiso   1.00
H77    H     0.19268   0.61128   0.07131   0.00000  Uiso   1.00
H78    H     0.06307   0.53258   0.13422   0.00000  Uiso   1.00
H79    H     0.42570   0.57047   0.02999   0.00000  Uiso   1.00
H80    H     0.06933   0.72093   0.03911   0.00000  Uiso   1.00
H81    H     0.95098   0.46084   0.22066   0.00000  Uiso   1.00
H82    H     0.71560   0.54075   0.00087   0.00000  Uiso   1.00
H83    H     0.96412   0.85801   0.02011   0.00000  Uiso   1.00
O84    O     0.97422   0.46240   0.31943   0.00000  Uiso   1.00
O85    O     0.97737   0.56725   0.03106   0.00000  Uiso   1.00
O86    O     0.99144   0.98349   0.05631   0.00000  Uiso   1.00
N87    N     0.12792   0.54993   0.29623   0.00000  Uiso   1.00
N88    N     0.84279   0.62463   0.09074   0.00000  Uiso   1.00
N89    N     0.14025   0.92125   0.10872   0.00000  Uiso   1.00
N90    N     0.01590   0.49484   0.23698   0.00000  Uiso   1.00
N91    N     0.73078   0.56954   0.03149   0.00000  Uiso   1.00
N92    N     0.02824   0.86616   0.04947   0.00000  Uiso   1.00
C93    C     0.34327   0.19571   0.83542   0.00000  Uiso   1.00
C94    C     0.43348   0.13846   0.81366   0.00000  Uiso   1.00
C95    C     0.44955   0.12393   0.76328   0.00000  Uiso   1.00
C96    C     0.53668   0.06943   0.75097   0.00000  Uiso   1.00
C97    C     0.66628   0.98638   0.71159   0.00000  Uiso   1.00
C98    C     0.24033   0.16156   0.87142   0.00000  Uiso   1.00
C99    C     0.09400   0.16645   0.86961   0.00000  Uiso   1.00
C100   C     0.01854   0.13139   0.90593   0.00000  Uiso   1.00
C101   C     0.84827   0.08424   0.95625   0.00000  Uiso   1.00
C102   C     0.44245   0.23849   0.86759   0.00000  Uiso   1.00
C103   C     0.46604   0.30807   0.86258   0.00000  Uiso   1.00
C104   C     0.56073   0.33780   0.89569   0.00000  Uiso   1.00
C105   C     0.70428   0.41009   0.94007   0.00000  Uiso   1.00
C106   C     0.46945   0.12478   0.90315   0.00000  Uiso   1.00
C107   C     0.50201   0.09994   0.85045   0.00000  Uiso   1.00
C108   C     0.58915   0.04545   0.83821   0.00000  Uiso   1.00
C109   C     0.60535   0.03083   0.78783   0.00000  Uiso   1.00
C110   C     0.30886   0.12303   0.90821   0.00000  Uiso   1.00
C111   C     0.23360   0.08797   0.94455   0.00000  Uiso   1.00
C112   C     0.08720   0.09280   0.94279   0.00000  Uiso   1.00
C113   C     0.51099   0.19996   0.90438   0.00000  Uiso   1.00
C114   C     0.60565   0.22959   0.93751   0.00000  Uiso   1.00
C115   C     0.62938   0.29920   0.93255   0.00000  Uiso   1.00
H116   H     0.28990   0.22570   0.80678   0.00000  Uiso   1.00
H117   H     0.39648   0.15375   0.73482   0.00000  Uiso   1.00
H118   H     0.04099   0.19627   0.84114   0.00000  Uiso   1.00
H119   H     0.41298   0.33787   0.83411   0.00000  Uiso   1.00
H120   H     0.54483   0.05697   0.67126   0.00000  Uiso   1.00
H121   H     0.79526   0.14664   0.89545   0.00000  Uiso   1.00
H122   H     0.57967   0.44524   0.88063   0.00000  Uiso   1.00
H123   H     0.52280   0.09478   0.93179   0.00000  Uiso   1.00
H124   H     0.64218   0.01564   0.86669   0.00000  Uiso   1.00
H125   H     0.28667   0.05816   0.97301   0.00000  Uiso   1.00
H126   H     0.65867   0.19976   0.96598   0.00000  Uiso   1.00
H127   H     0.74424   0.94487   0.77830   0.00000  Uiso   1.00
H128   H     0.99466   0.03455   0.00249   0.00000  Uiso   1.00
H129   H     0.77908   0.33314   0.98766   0.00000  Uiso   1.00
O130   O     0.71882   0.95121   0.67970   0.00000  Uiso   1.00
O131   O     0.73541   0.06887   0.97383   0.00000  Uiso   1.00
O132   O     0.76454   0.46061   0.95438   0.00000  Uiso   1.00
N133   N     0.57540   0.04146   0.70539   0.00000  Uiso   1.00
N134   N     0.87459   0.12529   0.91499   0.00000  Uiso   1.00
N135   N     0.60792   0.40445   0.90113   0.00000  Uiso   1.00
N136   N     0.68270   0.98114   0.76298   0.00000  Uiso   1.00
N137   N     0.98189   0.06497   0.97258   0.00000  Uiso   1.00
N138   N     0.71522   0.34413   0.95873   0.00000  Uiso   1.00
C139   C     0.61989   0.29655   0.67046   0.00000  Uiso   1.00
C140   C     0.71679   0.35231   0.69064   0.00000  Uiso   1.00
C141   C     0.73584   0.36852   0.74062   0.00000  Uiso   1.00
C142   C     0.82909   0.42123   0.75142   0.00000  Uiso   1.00
C143   C     0.96861   0.50249   0.78851   0.00000  Uiso   1.00
C144   C     0.51976   0.33174   0.63401   0.00000  Uiso   1.00
C145   C     0.37316   0.33063   0.63637   0.00000  Uiso   1.00
C146   C     0.30055   0.36602   0.59950   0.00000  Uiso   1.00
C147   C     0.13417   0.41529   0.54865   0.00000  Uiso   1.00
C148   C     0.71339   0.24999   0.63897   0.00000  Uiso   1.00
C149   C     0.72958   0.18015   0.64549   0.00000  Uiso   1.00
C150   C     0.81998   0.14670   0.61279   0.00000  Uiso   1.00
C151   C     0.95424   0.06905   0.56964   0.00000  Uiso   1.00
C152   C     0.75162   0.36133   0.60078   0.00000  Uiso   1.00
C153   C     0.78833   0.38750   0.65279   0.00000  Uiso   1.00
C154   C     0.88158   0.44019   0.66352   0.00000  Uiso   1.00
C155   C     0.90078   0.45648   0.71350   0.00000  Uiso   1.00
C156   C     0.59130   0.36692   0.59616   0.00000  Uiso   1.00
C157   C     0.51889   0.40231   0.55927   0.00000  Uiso   1.00
C158   C     0.37222   0.40127   0.56158   0.00000  Uiso   1.00
C159   C     0.78494   0.28518   0.60112   0.00000  Uiso   1.00
C160   C     0.87532   0.25183   0.56840   0.00000  Uiso   1.00
C161   C     0.89165   0.18195   0.57487   0.00000  Uiso   1.00
H162   H     0.56418   0.26915   0.69993   0.00000  Uiso   1.00
H163   H     0.68044   0.34128   0.76990   0.00000  Uiso   1.00
H164   H     0.31782   0.30340   0.66566   0.00000  Uiso   1.00
H165   H     0.67419   0.15294   0.67479   0.00000  Uiso   1.00
H166   H     0.84085   0.43678   0.83078   0.00000  Uiso   1.00
H167   H     0.07624   0.35688   0.61099   0.00000  Uiso   1.00
H168   H     0.82771   0.03961   0.63023   0.00000  Uiso   1.00
H169   H     0.80732   0.38872   0.57131   0.00000  Uiso   1.00
H170   H     0.93693   0.46742   0.63422   0.00000  Uiso   1.00
H171   H     0.57430   0.42953   0.52999   0.00000  Uiso   1.00
H172   H     0.93067   0.27907   0.53911   0.00000  Uiso   1.00
H173   H     0.04902   0.53916   0.72066   0.00000  Uiso   1.00
H174   H     0.28440   0.45925   0.50087   0.00000  Uiso   1.00
H175   H     0.03588   0.14199   0.52011   0.00000  Uiso   1.00
O176   O     0.02578   0.53760   0.81943   0.00000  Uiso   1.00
O177   O     0.02263   0.43275   0.53106   0.00000  Uiso   1.00
O178   O     0.00856   0.01651   0.55631   0.00000  Uiso   1.00
N179   N     0.87208   0.45007   0.79623   0.00000  Uiso   1.00
N180   N     0.15721   0.37537   0.59074   0.00000  Uiso   1.00
N181   N     0.85975   0.07875   0.60872   0.00000  Uiso   1.00
N182   N     0.98410   0.50516   0.73698   0.00000  Uiso   1.00
N183   N     0.26922   0.43046   0.53149   0.00000  Uiso   1.00
N184   N     0.97176   0.13384   0.54947   0.00000  Uiso   1.00
C185   C     0.15673   0.19571   0.33542   0.00000  Uiso   1.00
C186   C     0.06652   0.13846   0.31366   0.00000  Uiso   1.00
C187   C     0.05045   0.12393   0.26328   0.00000  Uiso   1.00
C188   C     0.96332   0.06943   0.25097   0.00000  Uiso   1.00
C189   C     0.83372   0.98638   0.21159   0.00000  Uiso   1.00
C190   C     0.25967   0.16156   0.37142   0.00000  Uiso   1.00
C191   C     0.40600   0.16645   0.36961   0.00000  Uiso   1.00
C192   C     0.48146   0.13139   0.40593   0.00000  Uiso   1.00
C193   C     0.65173   0.08424   0.45625   0.00000  Uiso   1.00
C194   C     0.05755   0.23849   0.36759   0.00000  Uiso   1.00
C195   C     0.03396   0.30807   0.36258   0.00000  Uiso   1.00
C196   C     0.93927   0.33780   0.39569   0.00000  Uiso   1.00
C197   C     0.79572   0.41009   0.44007   0.00000  Uiso   1.00
C198   C     0.03055   0.12478   0.40315   0.00000  Uiso   1.00
C199   C     0.99799   0.09994   0.35045   0.00000  Uiso   1.00
C200   C     0.91085   0.04545   0.33821   0.00000  Uiso   1.00
C201   C     0.89465   0.03083   0.28783   0.00000  Uiso   1.00
C202   C     0.19114   0.12303   0.40821   0.00000  Uiso   1.00
C203   C     0.26640   0.08797   0.44455   0.00000  Uiso   1.00
C204   C     0.41280   0.09280   0.44279   0.00000  Uiso   1.00
C205   C     0.98901   0.19996   0.40438   0.00000  Uiso   1.00
C206   C     0.89435   0.22959   0.43751   0.00000  Uiso   1.00
C207   C     0.87062   0.29920   0.43255   0.00000  Uiso   1.00
H208   H     0.21010   0.22570   0.30678   0.00000  Uiso   1.00
H209   H     0.10352   0.15375   0.23482   0.00000  Uiso   1.00
H210   H     0.45901   0.19627   0.34114   0.00000  Uiso   1.00
H211   H     0.08702   0.33787   0.33411   0.00000  Uiso   1.00
H212   H     0.95517   0.05697   0.17126   0.00000  Uiso   1.00
H213   H     0.70474   0.14664   0.39545   0.00000  Uiso   1.00
H214   H     0.92033   0.44524   0.38063   0.00000  Uiso   1.00
H215   H     0.97720   0.09478   0.43179   0.00000  Uiso   1.00
H216   H     0.85782   0.01564   0.36669   0.00000  Uiso   1.00
H217   H     0.21333   0.05816   0.47301   0.00000  Uiso   1.00
H218   H     0.84133   0.19976   0.46598   0.00000  Uiso   1.00
H219   H     0.75576   0.94487   0.27830   0.00000  Uiso   1.00
H220   H     0.50534   0.03455   0.50249   0.00000  Uiso   1.00
H221   H     0.72092   0.33314   0.48766   0.00000  Uiso   1.00
O222   O     0.78118   0.95121   0.17970   0.00000  Uiso   1.00
O223   O     0.76459   0.06887   0.47383   0.00000  Uiso   1.00
O224   O     0.73546   0.46061   0.45438   0.00000  Uiso   1.00
N225   N     0.92460   0.04146   0.20539   0.00000  Uiso   1.00
N226   N     0.62541   0.12529   0.41499   0.00000  Uiso   1.00
N227   N     0.89208   0.40445   0.40113   0.00000  Uiso   1.00
N228   N     0.81730   0.98114   0.26298   0.00000  Uiso   1.00
N229   N     0.51811   0.06497   0.47258   0.00000  Uiso   1.00
N230   N     0.78478   0.34413   0.45873   0.00000  Uiso   1.00
C231   C     0.88011   0.29655   0.17046   0.00000  Uiso   1.00
C232   C     0.78321   0.35231   0.19064   0.00000  Uiso   1.00
C233   C     0.76416   0.36852   0.24062   0.00000  Uiso   1.00
C234   C     0.67091   0.42123   0.25142   0.00000  Uiso   1.00
C235   C     0.53139   0.50249   0.28851   0.00000  Uiso   1.00
C236   C     0.98024   0.33174   0.13401   0.00000  Uiso   1.00
C237   C     0.12684   0.33063   0.13637   0.00000  Uiso   1.00
C238   C     0.19945   0.36602   0.09950   0.00000  Uiso   1.00
C239   C     0.36583   0.41529   0.04865   0.00000  Uiso   1.00
C240   C     0.78661   0.24999   0.13897   0.00000  Uiso   1.00
C241   C     0.77042   0.18015   0.14549   0.00000  Uiso   1.00
C242   C     0.68002   0.14670   0.11279   0.00000  Uiso   1.00
C243   C     0.54576   0.06905   0.06964   0.00000  Uiso   1.00
C244   C     0.74838   0.36133   0.10078   0.00000  Uiso   1.00
C245   C     0.71167   0.38750   0.15279   0.00000  Uiso   1.00
C246   C     0.61842   0.44019   0.16352   0.00000  Uiso   1.00
C247   C     0.59922   0.45648   0.21350   0.00000  Uiso   1.00
C248   C     0.90870   0.36692   0.09616   0.00000  Uiso   1.00
C249   C     0.98111   0.40231   0.05927   0.00000  Uiso   1.00
C250   C     0.12778   0.40127   0.06158   0.00000  Uiso   1.00
C251   C     0.71506   0.28518   0.10112   0.00000  Uiso   1.00
C252   C     0.62468   0.25183   0.06840   0.00000  Uiso   1.00
C253   C     0.60835   0.18195   0.07487   0.00000  Uiso   1.00
H254   H     0.93582   0.26915   0.19993   0.00000  Uiso   1.00
H255   H     0.81956   0.34128   0.26990   0.00000  Uiso   1.00
H256   H     0.18218   0.30340   0.16566   0.00000  Uiso   1.00
H257   H     0.82581   0.15294   0.17479   0.00000  Uiso   1.00
H258   H     0.65915   0.43678   0.33078   0.00000  Uiso   1.00
H259   H     0.42376   0.35688   0.11099   0.00000  Uiso   1.00
H260   H     0.67229   0.03961   0.13023   0.00000  Uiso   1.00
H261   H     0.69268   0.38872   0.07131   0.00000  Uiso   1.00
H262   H     0.56307   0.46742   0.13422   0.00000  Uiso   1.00
H263   H     0.92570   0.42953   0.02999   0.00000  Uiso   1.00
H264   H     0.56933   0.27907   0.03911   0.00000  Uiso   1.00
H265   H     0.45098   0.53916   0.22066   0.00000  Uiso   1.00
H266   H     0.21560   0.45925   0.00087   0.00000  Uiso   1.00
H267   H     0.46412   0.14199   0.02011   0.00000  Uiso   1.00
O268   O     0.47422   0.53760   0.31943   0.00000  Uiso   1.00
O269   O     0.47737   0.43275   0.03106   0.00000  Uiso   1.00
O270   O     0.49144   0.01651   0.05631   0.00000  Uiso   1.00
N271   N     0.62792   0.45007   0.29623   0.00000  Uiso   1.00
N272   N     0.34279   0.37537   0.09074   0.00000  Uiso   1.00
N273   N     0.64025   0.07875   0.10872   0.00000  Uiso   1.00
N274   N     0.51590   0.50516   0.23698   0.00000  Uiso   1.00
N275   N     0.23078   0.43046   0.03149   0.00000  Uiso   1.00
N276   N     0.52824   0.13384   0.04947   0.00000  Uiso   1.00
C277   C     0.84327   0.80429   0.83542   0.00000  Uiso   1.00
C278   C     0.93348   0.86154   0.81366   0.00000  Uiso   1.00
C279   C     0.94955   0.87607   0.76328   0.00000  Uiso   1.00
C280   C     0.03668   0.93057   0.75097   0.00000  Uiso   1.00
C281   C     0.16628   0.01362   0.71159   0.00000  Uiso   1.00
C282   C     0.74033   0.83844   0.87142   0.00000  Uiso   1.00
C283   C     0.59400   0.83355   0.86961   0.00000  Uiso   1.00
C284   C     0.51854   0.86861   0.90593   0.00000  Uiso   1.00
C285   C     0.34827   0.91576   0.95625   0.00000  Uiso   1.00
C286   C     0.94245   0.76151   0.86759   0.00000  Uiso   1.00
C287   C     0.96604   0.69193   0.86258   0.00000  Uiso   1.00
C288   C     0.06073   0.66220   0.89569   0.00000  Uiso   1.00
C289   C     0.20428   0.58991   0.94007   0.00000  Uiso   1.00
C290   C     0.96945   0.87522   0.90315   0.00000  Uiso   1.00
C291   C     0.00201   0.90006   0.85045   0.00000  Uiso   1.00
C292   C     0.08915   0.95455   0.83821   0.00000  Uiso   1.00
C293   C     0.10535   0.96917   0.78783   0.00000  Uiso   1.00
C294   C     0.80886   0.87697   0.90821   0.00000  Uiso   1.00
C295   C     0.73360   0.91203   0.94455   0.00000  Uiso   1.00
C296   C     0.58720   0.90720   0.94279   0.00000  Uiso   1.00
C297   C     0.01099   0.80004   0.90438   0.00000  Uiso   1.00
C298   C     0.10565   0.77041   0.93751   0.00000  Uiso   1.00
C299   C     0.12938   0.70080   0.93255   0.00000  Uiso   1.00
H300   H     0.78990   0.77430   0.80678   0.00000  Uiso   1.00
H301   H     0.89648   0.84625   0.73482   0.00000  Uiso   1.00
H302   H     0.54099   0.80373   0.84114   0.00000  Uiso   1.00
H303   H     0.91298   0.66213   0.83411   0.00000  Uiso   1.00
H304   H     0.04483   0.94303   0.67126   0.00000  Uiso   1.00
H305   H     0.29526   0.85336   0.89545   0.00000  Uiso   1.00
H306   H     0.07967   0.55476   0.88063   0.00000  Uiso   1.00
H307   H     0.02280   0.90522   0.93179   0.00000  Uiso   1.00
H308   H     0.14218   0.98436   0.86669   0.00000  Uiso   1.00
H309   H     0.78667   0.94184   0.97301   0.00000  Uiso   1.00
H310   H     0.15867   0.80024   0.96598   0.00000  Uiso   1.00
H311   H     0.24424   0.05513   0.77830   0.00000  Uiso   1.00
H312   H     0.49466   0.96545   0.00249   0.00000  Uiso   1.00
H313   H     0.27908   0.66686   0.98766   0.00000  Uiso   1.00
O314   O     0.21882   0.04879   0.67970   0.00000  Uiso   1.00
O315   O     0.23541   0.93113   0.97383   0.00000  Uiso   1.00
O316   O     0.26454   0.53939   0.95438   0.00000  Uiso   1.00
N317   N     0.07540   0.95854   0.70539   0.00000  Uiso   1.00
N318   N     0.37459   0.87471   0.91499   0.00000  Uiso   1.00
N319   N     0.10792   0.59555   0.90113   0.00000  Uiso   1.00
N320   N     0.18270   0.01886   0.76298   0.00000  Uiso   1.00
N321   N     0.48189   0.93503   0.97258   0.00000  Uiso   1.00
N322   N     0.21522   0.65587   0.95873   0.00000  Uiso   1.00
C323   C     0.11989   0.70345   0.67046   0.00000  Uiso   1.00
C324   C     0.21679   0.64769   0.69064   0.00000  Uiso   1.00
C325   C     0.23584   0.63148   0.74062   0.00000  Uiso   1.00
C326   C     0.32909   0.57877   0.75142   0.00000  Uiso   1.00
C327   C     0.46861   0.49751   0.78851   0.00000  Uiso   1.00
C328   C     0.01976   0.66826   0.63401   0.00000  Uiso   1.00
C329   C     0.87316   0.66937   0.63637   0.00000  Uiso   1.00
C330   C     0.80055   0.63398   0.59950   0.00000  Uiso   1.00
C331   C     0.63417   0.58471   0.54865   0.00000  Uiso   1.00
C332   C     0.21339   0.75001   0.63897   0.00000  Uiso   1.00
C333   C     0.22958   0.81985   0.64549   0.00000  Uiso   1.00
C334   C     0.31998   0.85330   0.61279   0.00000  Uiso   1.00
C335   C     0.45424   0.93095   0.56964   0.00000  Uiso   1.00
C336   C     0.25162   0.63867   0.60078   0.00000  Uiso   1.00
C337   C     0.28833   0.61250   0.65279   0.00000  Uiso   1.00
C338   C     0.38158   0.55981   0.66352   0.00000  Uiso   1.00
C339   C     0.40078   0.54352   0.71350   0.00000  Uiso   1.00
C340   C     0.09130   0.63308   0.59616   0.00000  Uiso   1.00
C341   C     0.01889   0.59769   0.55927   0.00000  Uiso   1.00
C342   C     0.87222   0.59873   0.56158   0.00000  Uiso   1.00
C343   C     0.28494   0.71482   0.60112   0.00000  Uiso   1.00
C344   C     0.37532   0.74817   0.56840   0.00000  Uiso   1.00
C345   C     0.39165   0.81805   0.57487   0.00000  Uiso   1.00
H346   H     0.06418   0.73085   0.69993   0.00000  Uiso   1.00
H347   H     0.18044   0.65872   0.76990   0.00000  Uiso   1.00
H348   H     0.81782   0.69660   0.66566   0.00000  Uiso   1.00
H349   H     0.17419   0.84706   0.67479   0.00000  Uiso   1.00
H350   H     0.34085   0.56322   0.83078   0.00000  Uiso   1.00
H351   H     0.57624   0.64312   0.61099   0.00000  Uiso   1.00
H352   H     0.32771   0.96039   0.63023   0.00000  Uiso   1.00
H353   H     0.30732   0.61128   0.57131   0.00000  Uiso   1.00
H354   H     0.43693   0.53258   0.63422   0.00000  Uiso   1.00
H355   H     0.07430   0.57047   0.52999   0.00000  Uiso   1.00
H356   H     0.43067   0.72093   0.53911   0.00000  Uiso   1.00
H357   H     0.54902   0.46084   0.72066   0.00000  Uiso   1.00
H358   H     0.78440   0.54075   0.50087   0.00000  Uiso   1.00
H359   H     0.53588   0.85801   0.52011   0.00000  Uiso   1.00
O360   O     0.52578   0.46240   0.81943   0.00000  Uiso   1.00
O361   O     0.52263   0.56725   0.53106   0.00000  Uiso   1.00
O362   O     0.50856   0.98349   0.55631   0.00000  Uiso   1.00
N363   N     0.37208   0.54993   0.79623   0.00000  Uiso   1.00
N364   N     0.65721   0.62463   0.59074   0.00000  Uiso   1.00
N365   N     0.35975   0.92125   0.60872   0.00000  Uiso   1.00
N366   N     0.48410   0.49484   0.73698   0.00000  Uiso   1.00
N367   N     0.76922   0.56954   0.53149   0.00000  Uiso   1.00
N368   N     0.47176   0.86616   0.54947   0.00000  Uiso   1.00
