data_job_02960
_audit_creation_date              2018-12-19
_audit_creation_method            'Materials Studio'
_symmetry_space_group_name_H-M    'P1'
_symmetry_Int_Tables_number       1
_symmetry_cell_setting            triclinic
loop_
_symmetry_equiv_pos_as_xyz
  x,y,z
_cell_length_a                    9.8206
_cell_length_b                    11.4619
_cell_length_c                    14.9718
_cell_angle_alpha                 90.3990
_cell_angle_beta                  71.7783
_cell_angle_gamma                 106.6590
loop_
_atom_site_label
_atom_site_type_symbol
_atom_site_fract_x
_atom_site_fract_y
_atom_site_fract_z
_atom_site_U_iso_or_equiv
_atom_site_adp_type
_atom_site_occupancy
C1     C     0.89615   0.68663   0.20343   0.00000  Uiso   1.00
C2     C     0.81966   0.55217   0.19726   0.00000  Uiso   1.00
C3     C     0.75508   0.50618   0.12914   0.00000  Uiso   1.00
C4     C     0.69070   0.38042   0.13575   0.00000  Uiso   1.00
C5     C     0.57182   0.18336   0.11522   0.00000  Uiso   1.00
C6     C     0.81486   0.71606   0.30161   0.00000  Uiso   1.00
C7     C     0.74625   0.80788   0.32121   0.00000  Uiso   1.00
C8     C     0.67785   0.82009   0.41567   0.00000  Uiso   1.00
C9     C     0.55161   0.87752   0.55714   0.00000  Uiso   1.00
C10    C     0.05429   0.69463   0.20251   0.00000  Uiso   1.00
C11    C     0.18701   0.76845   0.13880   0.00000  Uiso   1.00
C12    C     0.32021   0.76264   0.14983   0.00000  Uiso   1.00
C13    C     0.56572   0.78680   0.13742   0.00000  Uiso   1.00
C14    C     0.89668   0.54506   0.33633   0.00000  Uiso   1.00
C15    C     0.81995   0.47529   0.26945   0.00000  Uiso   1.00
C16    C     0.75566   0.34956   0.27617   0.00000  Uiso   1.00
C17    C     0.69100   0.30339   0.20806   0.00000  Uiso   1.00
C18    C     0.81514   0.63918   0.37379   0.00000  Uiso   1.00
C19    C     0.74684   0.65126   0.46824   0.00000  Uiso   1.00
C20    C     0.67814   0.74306   0.48798   0.00000  Uiso   1.00
C21    C     0.05458   0.61774   0.27469   0.00000  Uiso   1.00
C22    C     0.18759   0.61182   0.28582   0.00000  Uiso   1.00
C23    C     0.32049   0.68561   0.22214   0.00000  Uiso   1.00
H24    H     0.89592   0.74649   0.14724   0.00000  Uiso   1.00
H25    H     0.75486   0.56572   0.07329   0.00000  Uiso   1.00
H26    H     0.74606   0.86737   0.26534   0.00000  Uiso   1.00
H27    H     0.18675   0.82794   0.08295   0.00000  Uiso   1.00
H28    H     0.59855   0.33140   0.02316   0.00000  Uiso   1.00
H29    H     0.58003   0.96748   0.42810   0.00000  Uiso   1.00
H30    H     0.50931   0.88434   0.04349   0.00000  Uiso   1.00
H31    H     0.89691   0.48520   0.39253   0.00000  Uiso   1.00
H32    H     0.75590   0.29008   0.33203   0.00000  Uiso   1.00
H33    H     0.74709   0.59174   0.52408   0.00000  Uiso   1.00
H34    H     0.18778   0.55231   0.34169   0.00000  Uiso   1.00
H35    H     0.59938   0.10768   0.23316   0.00000  Uiso   1.00
H36    H     0.58087   0.74377   0.63811   0.00000  Uiso   1.00
H37    H     0.51014   0.66062   0.25350   0.00000  Uiso   1.00
O38    O     0.50615   0.09590   0.08396   0.00000  Uiso   1.00
O39    O     0.48188   0.93043   0.61523   0.00000  Uiso   1.00
O40    O     0.70106   0.82135   0.11063   0.00000  Uiso   1.00
N41    N     0.61812   0.30552   0.08087   0.00000  Uiso   1.00
N42    N     0.60079   0.90021   0.45947   0.00000  Uiso   1.00
N43    N     0.46958   0.82250   0.09991   0.00000  Uiso   1.00
N44    N     0.61857   0.18514   0.19387   0.00000  Uiso   1.00
N45    N     0.60124   0.77983   0.57247   0.00000  Uiso   1.00
N46    N     0.47003   0.70212   0.21291   0.00000  Uiso   1.00
C47    C     0.10385   0.31337   0.79657   0.00000  Uiso   1.00
C48    C     0.18034   0.44783   0.80274   0.00000  Uiso   1.00
C49    C     0.24492   0.49382   0.87086   0.00000  Uiso   1.00
C50    C     0.30930   0.61958   0.86425   0.00000  Uiso   1.00
C51    C     0.42818   0.81664   0.88478   0.00000  Uiso   1.00
C52    C     0.18514   0.28394   0.69839   0.00000  Uiso   1.00
C53    C     0.25375   0.19212   0.67879   0.00000  Uiso   1.00
C54    C     0.32215   0.17991   0.58433   0.00000  Uiso   1.00
C55    C     0.44839   0.12248   0.44286   0.00000  Uiso   1.00
C56    C     0.94571   0.30537   0.79749   0.00000  Uiso   1.00
C57    C     0.81299   0.23155   0.86120   0.00000  Uiso   1.00
C58    C     0.67979   0.23736   0.85017   0.00000  Uiso   1.00
C59    C     0.43428   0.21320   0.86258   0.00000  Uiso   1.00
C60    C     0.10332   0.45494   0.66367   0.00000  Uiso   1.00
C61    C     0.18005   0.52471   0.73055   0.00000  Uiso   1.00
C62    C     0.24434   0.65044   0.72383   0.00000  Uiso   1.00
C63    C     0.30900   0.69661   0.79194   0.00000  Uiso   1.00
C64    C     0.18486   0.36082   0.62621   0.00000  Uiso   1.00
C65    C     0.25316   0.34874   0.53176   0.00000  Uiso   1.00
C66    C     0.32186   0.25694   0.51202   0.00000  Uiso   1.00
C67    C     0.94542   0.38226   0.72531   0.00000  Uiso   1.00
C68    C     0.81241   0.38818   0.71418   0.00000  Uiso   1.00
C69    C     0.67951   0.31439   0.77786   0.00000  Uiso   1.00
H70    H     0.10408   0.25351   0.85276   0.00000  Uiso   1.00
H71    H     0.24514   0.43428   0.92671   0.00000  Uiso   1.00
H72    H     0.25394   0.13263   0.73466   0.00000  Uiso   1.00
H73    H     0.81325   0.17206   0.91705   0.00000  Uiso   1.00
H74    H     0.40145   0.66860   0.97684   0.00000  Uiso   1.00
H75    H     0.41997   0.03252   0.57190   0.00000  Uiso   1.00
H76    H     0.49069   0.11566   0.95651   0.00000  Uiso   1.00
H77    H     0.10309   0.51480   0.60747   0.00000  Uiso   1.00
H78    H     0.24410   0.70992   0.66797   0.00000  Uiso   1.00
H79    H     0.25291   0.40826   0.47592   0.00000  Uiso   1.00
H80    H     0.81222   0.44769   0.65831   0.00000  Uiso   1.00
H81    H     0.40062   0.89232   0.76684   0.00000  Uiso   1.00
H82    H     0.41913   0.25623   0.36189   0.00000  Uiso   1.00
H83    H     0.48986   0.33938   0.74650   0.00000  Uiso   1.00
O84    O     0.49385   0.90410   0.91604   0.00000  Uiso   1.00
O85    O     0.51812   0.06957   0.38477   0.00000  Uiso   1.00
O86    O     0.29894   0.17865   0.88937   0.00000  Uiso   1.00
N87    N     0.38188   0.69448   0.91913   0.00000  Uiso   1.00
N88    N     0.39921   0.09979   0.54053   0.00000  Uiso   1.00
N89    N     0.53042   0.17750   0.90009   0.00000  Uiso   1.00
N90    N     0.38143   0.81486   0.80613   0.00000  Uiso   1.00
N91    N     0.39876   0.22017   0.42753   0.00000  Uiso   1.00
N92    N     0.52997   0.29788   0.78709   0.00000  Uiso   1.00
