data_job_05057
_audit_creation_date              2018-12-19
_audit_creation_method            'Materials Studio'
_symmetry_space_group_name_H-M    'P1'
_symmetry_Int_Tables_number       1
_symmetry_cell_setting            triclinic
loop_
_symmetry_equiv_pos_as_xyz
  x,y,z
_cell_length_a                    21.2450
_cell_length_b                    21.2450
_cell_length_c                    12.6646
_cell_angle_alpha                 90.0000
_cell_angle_beta                  90.0000
_cell_angle_gamma                 90.0000
loop_
_atom_site_label
_atom_site_type_symbol
_atom_site_fract_x
_atom_site_fract_y
_atom_site_fract_z
_atom_site_U_iso_or_equiv
_atom_site_adp_type
_atom_site_occupancy
C1     C     0.18641   0.07116   0.04133   0.00000  Uiso   1.00
C2     C     0.25591   0.08745   0.02870   0.00000  Uiso   1.00
C3     C     0.30586   0.04613   0.04207   0.00000  Uiso   1.00
C4     C     0.36596   0.07016   0.02696   0.00000  Uiso   1.00
C5     C     0.47239   0.08587   0.01158   0.00000  Uiso   1.00
C6     C     0.16053   0.11682   0.12348   0.00000  Uiso   1.00
C7     C     0.13029   0.10018   0.21651   0.00000  Uiso   1.00
C8     C     0.11009   0.14894   0.28118   0.00000  Uiso   1.00
C9     C     0.06842   0.21024   0.41290   0.00000  Uiso   1.00
C10    C     0.15505   0.08883   0.93716   0.00000  Uiso   1.00
C11    C     0.12019   0.04865   0.87355   0.00000  Uiso   1.00
C12    C     0.09537   0.07385   0.78135   0.00000  Uiso   1.00
C13    C     0.04519   0.09168   0.62379   0.00000  Uiso   1.00
C14    C     0.20431   0.18734   0.99074   0.00000  Uiso   1.00
C15    C     0.26563   0.15056   0.00123   0.00000  Uiso   1.00
C16    C     0.32566   0.17467   0.98609   0.00000  Uiso   1.00
C17    C     0.37570   0.13338   0.99942   0.00000  Uiso   1.00
C18    C     0.17025   0.17992   0.09600   0.00000  Uiso   1.00
C19    C     0.15009   0.22872   0.16053   0.00000  Uiso   1.00
C20    C     0.11983   0.21216   0.25365   0.00000  Uiso   1.00
C21    C     0.16478   0.15193   0.90967   0.00000  Uiso   1.00
C22    C     0.14000   0.17720   0.81757   0.00000  Uiso   1.00
C23    C     0.10511   0.13707   0.75382   0.00000  Uiso   1.00
H24    H     0.17883   0.02203   0.06274   0.00000  Uiso   1.00
H25    H     0.29832   0.99729   0.06335   0.00000  Uiso   1.00
H26    H     0.12277   0.05134   0.23776   0.00000  Uiso   1.00
H27    H     0.11267   0.99982   0.89484   0.00000  Uiso   1.00
H28    H     0.43507   0.99770   0.05194   0.00000  Uiso   1.00
H29    H     0.06490   0.11166   0.41968   0.00000  Uiso   1.00
H30    H     0.04361   0.00303   0.69658   0.00000  Uiso   1.00
H31    H     0.21188   0.23647   0.96934   0.00000  Uiso   1.00
H32    H     0.33317   0.22350   0.96482   0.00000  Uiso   1.00
H33    H     0.15762   0.27755   0.13924   0.00000  Uiso   1.00
H34    H     0.14753   0.22603   0.79632   0.00000  Uiso   1.00
H35    H     0.46336   0.18130   0.97198   0.00000  Uiso   1.00
H36    H     0.09318   0.29526   0.33972   0.00000  Uiso   1.00
H37    H     0.07190   0.18663   0.61662   0.00000  Uiso   1.00
O38    O     0.52842   0.07711   0.01070   0.00000  Uiso   1.00
O39    O     0.04275   0.22661   0.49315   0.00000  Uiso   1.00
O40    O     0.01483   0.08409   0.54446   0.00000  Uiso   1.00
N41    N     0.42508   0.04269   0.03372   0.00000  Uiso   1.00
N42    N     0.07900   0.14923   0.37754   0.00000  Uiso   1.00
N43    N     0.05909   0.04767   0.70152   0.00000  Uiso   1.00
N44    N     0.44031   0.14148   0.99069   0.00000  Uiso   1.00
N45    N     0.09422   0.24803   0.33451   0.00000  Uiso   1.00
N46    N     0.07431   0.14647   0.65849   0.00000  Uiso   1.00
C47    C     0.81359   0.92884   0.04133   0.00000  Uiso   1.00
C48    C     0.74409   0.91255   0.02870   0.00000  Uiso   1.00
C49    C     0.69414   0.95387   0.04207   0.00000  Uiso   1.00
C50    C     0.63404   0.92984   0.02696   0.00000  Uiso   1.00
C51    C     0.52761   0.91413   0.01158   0.00000  Uiso   1.00
C52    C     0.83947   0.88318   0.12348   0.00000  Uiso   1.00
C53    C     0.86971   0.89982   0.21651   0.00000  Uiso   1.00
C54    C     0.88991   0.85106   0.28118   0.00000  Uiso   1.00
C55    C     0.93158   0.78976   0.41290   0.00000  Uiso   1.00
C56    C     0.84495   0.91117   0.93716   0.00000  Uiso   1.00
C57    C     0.87981   0.95135   0.87355   0.00000  Uiso   1.00
C58    C     0.90463   0.92615   0.78135   0.00000  Uiso   1.00
C59    C     0.95481   0.90832   0.62379   0.00000  Uiso   1.00
C60    C     0.79569   0.81266   0.99074   0.00000  Uiso   1.00
C61    C     0.73437   0.84944   0.00123   0.00000  Uiso   1.00
C62    C     0.67434   0.82533   0.98609   0.00000  Uiso   1.00
C63    C     0.62430   0.86662   0.99942   0.00000  Uiso   1.00
C64    C     0.82975   0.82008   0.09600   0.00000  Uiso   1.00
C65    C     0.84991   0.77128   0.16053   0.00000  Uiso   1.00
C66    C     0.88017   0.78784   0.25365   0.00000  Uiso   1.00
C67    C     0.83522   0.84807   0.90967   0.00000  Uiso   1.00
C68    C     0.86000   0.82280   0.81757   0.00000  Uiso   1.00
C69    C     0.89489   0.86293   0.75382   0.00000  Uiso   1.00
H70    H     0.82117   0.97797   0.06274   0.00000  Uiso   1.00
H71    H     0.70168   0.00271   0.06335   0.00000  Uiso   1.00
H72    H     0.87723   0.94866   0.23776   0.00000  Uiso   1.00
H73    H     0.88733   0.00018   0.89484   0.00000  Uiso   1.00
H74    H     0.56493   0.00230   0.05194   0.00000  Uiso   1.00
H75    H     0.93510   0.88834   0.41968   0.00000  Uiso   1.00
H76    H     0.95639   0.99697   0.69658   0.00000  Uiso   1.00
H77    H     0.78812   0.76353   0.96934   0.00000  Uiso   1.00
H78    H     0.66683   0.77650   0.96482   0.00000  Uiso   1.00
H79    H     0.84238   0.72245   0.13924   0.00000  Uiso   1.00
H80    H     0.85247   0.77397   0.79632   0.00000  Uiso   1.00
H81    H     0.53664   0.81870   0.97198   0.00000  Uiso   1.00
H82    H     0.90682   0.70474   0.33972   0.00000  Uiso   1.00
H83    H     0.92810   0.81337   0.61662   0.00000  Uiso   1.00
O84    O     0.47158   0.92289   0.01070   0.00000  Uiso   1.00
O85    O     0.95725   0.77339   0.49315   0.00000  Uiso   1.00
O86    O     0.98517   0.91591   0.54446   0.00000  Uiso   1.00
N87    N     0.57492   0.95731   0.03372   0.00000  Uiso   1.00
N88    N     0.92100   0.85077   0.37754   0.00000  Uiso   1.00
N89    N     0.94091   0.95233   0.70152   0.00000  Uiso   1.00
N90    N     0.55969   0.85852   0.99069   0.00000  Uiso   1.00
N91    N     0.90578   0.75197   0.33451   0.00000  Uiso   1.00
N92    N     0.92569   0.85353   0.65849   0.00000  Uiso   1.00
C93    C     0.42884   0.68641   0.54133   0.00000  Uiso   1.00
C94    C     0.41255   0.75591   0.52870   0.00000  Uiso   1.00
C95    C     0.45387   0.80586   0.54207   0.00000  Uiso   1.00
C96    C     0.42984   0.86596   0.52696   0.00000  Uiso   1.00
C97    C     0.41413   0.97239   0.51158   0.00000  Uiso   1.00
C98    C     0.38318   0.66053   0.62348   0.00000  Uiso   1.00
C99    C     0.39982   0.63029   0.71651   0.00000  Uiso   1.00
C100   C     0.35106   0.61009   0.78118   0.00000  Uiso   1.00
C101   C     0.28976   0.56842   0.91290   0.00000  Uiso   1.00
C102   C     0.41117   0.65505   0.43716   0.00000  Uiso   1.00
C103   C     0.45135   0.62019   0.37355   0.00000  Uiso   1.00
C104   C     0.42615   0.59537   0.28135   0.00000  Uiso   1.00
C105   C     0.40832   0.54519   0.12379   0.00000  Uiso   1.00
C106   C     0.31266   0.70431   0.49074   0.00000  Uiso   1.00
C107   C     0.34944   0.76563   0.50123   0.00000  Uiso   1.00
C108   C     0.32533   0.82566   0.48609   0.00000  Uiso   1.00
C109   C     0.36662   0.87570   0.49942   0.00000  Uiso   1.00
C110   C     0.32008   0.67025   0.59600   0.00000  Uiso   1.00
C111   C     0.27128   0.65009   0.66053   0.00000  Uiso   1.00
C112   C     0.28784   0.61983   0.75365   0.00000  Uiso   1.00
C113   C     0.34807   0.66478   0.40967   0.00000  Uiso   1.00
C114   C     0.32280   0.64000   0.31757   0.00000  Uiso   1.00
C115   C     0.36293   0.60511   0.25382   0.00000  Uiso   1.00
H116   H     0.47797   0.67883   0.56274   0.00000  Uiso   1.00
H117   H     0.50271   0.79832   0.56335   0.00000  Uiso   1.00
H118   H     0.44866   0.62277   0.73776   0.00000  Uiso   1.00
H119   H     0.50018   0.61267   0.39484   0.00000  Uiso   1.00
H120   H     0.50230   0.93507   0.55194   0.00000  Uiso   1.00
H121   H     0.38834   0.56490   0.91968   0.00000  Uiso   1.00
H122   H     0.49697   0.54361   0.19658   0.00000  Uiso   1.00
H123   H     0.26353   0.71188   0.46934   0.00000  Uiso   1.00
H124   H     0.27650   0.83317   0.46482   0.00000  Uiso   1.00
H125   H     0.22245   0.65762   0.63924   0.00000  Uiso   1.00
H126   H     0.27397   0.64753   0.29632   0.00000  Uiso   1.00
H127   H     0.31870   0.96336   0.47198   0.00000  Uiso   1.00
H128   H     0.20474   0.59318   0.83972   0.00000  Uiso   1.00
H129   H     0.31337   0.57190   0.11662   0.00000  Uiso   1.00
O130   O     0.42289   0.02842   0.51070   0.00000  Uiso   1.00
O131   O     0.27339   0.54275   0.99315   0.00000  Uiso   1.00
O132   O     0.41591   0.51483   0.04446   0.00000  Uiso   1.00
N133   N     0.45731   0.92508   0.53372   0.00000  Uiso   1.00
N134   N     0.35077   0.57900   0.87754   0.00000  Uiso   1.00
N135   N     0.45233   0.55909   0.20152   0.00000  Uiso   1.00
N136   N     0.35852   0.94031   0.49069   0.00000  Uiso   1.00
N137   N     0.25197   0.59422   0.83451   0.00000  Uiso   1.00
N138   N     0.35353   0.57431   0.15849   0.00000  Uiso   1.00
C139   C     0.57116   0.31359   0.54133   0.00000  Uiso   1.00
C140   C     0.58745   0.24409   0.52870   0.00000  Uiso   1.00
C141   C     0.54613   0.19414   0.54207   0.00000  Uiso   1.00
C142   C     0.57016   0.13404   0.52696   0.00000  Uiso   1.00
C143   C     0.58587   0.02761   0.51158   0.00000  Uiso   1.00
C144   C     0.61682   0.33947   0.62348   0.00000  Uiso   1.00
C145   C     0.60018   0.36971   0.71651   0.00000  Uiso   1.00
C146   C     0.64894   0.38991   0.78118   0.00000  Uiso   1.00
C147   C     0.71024   0.43158   0.91290   0.00000  Uiso   1.00
C148   C     0.58883   0.34495   0.43716   0.00000  Uiso   1.00
C149   C     0.54865   0.37981   0.37355   0.00000  Uiso   1.00
C150   C     0.57385   0.40463   0.28135   0.00000  Uiso   1.00
C151   C     0.59168   0.45481   0.12379   0.00000  Uiso   1.00
C152   C     0.68734   0.29569   0.49074   0.00000  Uiso   1.00
C153   C     0.65056   0.23437   0.50123   0.00000  Uiso   1.00
C154   C     0.67467   0.17434   0.48609   0.00000  Uiso   1.00
C155   C     0.63338   0.12430   0.49942   0.00000  Uiso   1.00
C156   C     0.67992   0.32975   0.59600   0.00000  Uiso   1.00
C157   C     0.72872   0.34991   0.66053   0.00000  Uiso   1.00
C158   C     0.71216   0.38017   0.75365   0.00000  Uiso   1.00
C159   C     0.65193   0.33522   0.40967   0.00000  Uiso   1.00
C160   C     0.67720   0.36000   0.31757   0.00000  Uiso   1.00
C161   C     0.63707   0.39489   0.25382   0.00000  Uiso   1.00
H162   H     0.52203   0.32117   0.56274   0.00000  Uiso   1.00
H163   H     0.49729   0.20168   0.56335   0.00000  Uiso   1.00
H164   H     0.55134   0.37723   0.73776   0.00000  Uiso   1.00
H165   H     0.49982   0.38733   0.39484   0.00000  Uiso   1.00
H166   H     0.49770   0.06493   0.55194   0.00000  Uiso   1.00
H167   H     0.61166   0.43510   0.91968   0.00000  Uiso   1.00
H168   H     0.50303   0.45639   0.19658   0.00000  Uiso   1.00
H169   H     0.73647   0.28812   0.46934   0.00000  Uiso   1.00
H170   H     0.72350   0.16683   0.46482   0.00000  Uiso   1.00
H171   H     0.77755   0.34238   0.63924   0.00000  Uiso   1.00
H172   H     0.72603   0.35247   0.29632   0.00000  Uiso   1.00
H173   H     0.68130   0.03664   0.47198   0.00000  Uiso   1.00
H174   H     0.79526   0.40682   0.83972   0.00000  Uiso   1.00
H175   H     0.68663   0.42810   0.11662   0.00000  Uiso   1.00
O176   O     0.57711   0.97158   0.51070   0.00000  Uiso   1.00
O177   O     0.72661   0.45725   0.99315   0.00000  Uiso   1.00
O178   O     0.58409   0.48517   0.04446   0.00000  Uiso   1.00
N179   N     0.54269   0.07492   0.53372   0.00000  Uiso   1.00
N180   N     0.64923   0.42100   0.87754   0.00000  Uiso   1.00
N181   N     0.54767   0.44091   0.20152   0.00000  Uiso   1.00
N182   N     0.64148   0.05969   0.49069   0.00000  Uiso   1.00
N183   N     0.74803   0.40578   0.83451   0.00000  Uiso   1.00
N184   N     0.64647   0.42569   0.15849   0.00000  Uiso   1.00
C185   C     0.31359   0.42884   0.45867   0.00000  Uiso   1.00
C186   C     0.24409   0.41255   0.47130   0.00000  Uiso   1.00
C187   C     0.19414   0.45387   0.45793   0.00000  Uiso   1.00
C188   C     0.13404   0.42984   0.47304   0.00000  Uiso   1.00
C189   C     0.02761   0.41413   0.48842   0.00000  Uiso   1.00
C190   C     0.33947   0.38318   0.37652   0.00000  Uiso   1.00
C191   C     0.36971   0.39982   0.28349   0.00000  Uiso   1.00
C192   C     0.38991   0.35106   0.21882   0.00000  Uiso   1.00
C193   C     0.43158   0.28976   0.08710   0.00000  Uiso   1.00
C194   C     0.34495   0.41117   0.56284   0.00000  Uiso   1.00
C195   C     0.37981   0.45135   0.62645   0.00000  Uiso   1.00
C196   C     0.40463   0.42615   0.71865   0.00000  Uiso   1.00
C197   C     0.45481   0.40832   0.87621   0.00000  Uiso   1.00
C198   C     0.29569   0.31266   0.50926   0.00000  Uiso   1.00
C199   C     0.23437   0.34944   0.49877   0.00000  Uiso   1.00
C200   C     0.17434   0.32533   0.51391   0.00000  Uiso   1.00
C201   C     0.12430   0.36662   0.50058   0.00000  Uiso   1.00
C202   C     0.32975   0.32008   0.40400   0.00000  Uiso   1.00
C203   C     0.34991   0.27128   0.33947   0.00000  Uiso   1.00
C204   C     0.38017   0.28784   0.24635   0.00000  Uiso   1.00
C205   C     0.33522   0.34807   0.59033   0.00000  Uiso   1.00
C206   C     0.36000   0.32280   0.68243   0.00000  Uiso   1.00
C207   C     0.39489   0.36293   0.74618   0.00000  Uiso   1.00
H208   H     0.32117   0.47797   0.43726   0.00000  Uiso   1.00
H209   H     0.20168   0.50271   0.43665   0.00000  Uiso   1.00
H210   H     0.37723   0.44866   0.26224   0.00000  Uiso   1.00
H211   H     0.38733   0.50018   0.60516   0.00000  Uiso   1.00
H212   H     0.06493   0.50230   0.44806   0.00000  Uiso   1.00
H213   H     0.43510   0.38834   0.08032   0.00000  Uiso   1.00
H214   H     0.45639   0.49697   0.80342   0.00000  Uiso   1.00
H215   H     0.28812   0.26353   0.53066   0.00000  Uiso   1.00
H216   H     0.16683   0.27650   0.53518   0.00000  Uiso   1.00
H217   H     0.34238   0.22245   0.36076   0.00000  Uiso   1.00
H218   H     0.35247   0.27397   0.70368   0.00000  Uiso   1.00
H219   H     0.03664   0.31870   0.52802   0.00000  Uiso   1.00
H220   H     0.40682   0.20474   0.16028   0.00000  Uiso   1.00
H221   H     0.42810   0.31337   0.88338   0.00000  Uiso   1.00
O222   O     0.97158   0.42289   0.48930   0.00000  Uiso   1.00
O223   O     0.45725   0.27339   0.00685   0.00000  Uiso   1.00
O224   O     0.48517   0.41591   0.95554   0.00000  Uiso   1.00
N225   N     0.07492   0.45731   0.46628   0.00000  Uiso   1.00
N226   N     0.42100   0.35077   0.12246   0.00000  Uiso   1.00
N227   N     0.44091   0.45233   0.79848   0.00000  Uiso   1.00
N228   N     0.05969   0.35852   0.50931   0.00000  Uiso   1.00
N229   N     0.40578   0.25197   0.16549   0.00000  Uiso   1.00
N230   N     0.42569   0.35353   0.84151   0.00000  Uiso   1.00
C231   C     0.68641   0.57116   0.45867   0.00000  Uiso   1.00
C232   C     0.75591   0.58745   0.47130   0.00000  Uiso   1.00
C233   C     0.80586   0.54613   0.45793   0.00000  Uiso   1.00
C234   C     0.86596   0.57016   0.47304   0.00000  Uiso   1.00
C235   C     0.97239   0.58587   0.48842   0.00000  Uiso   1.00
C236   C     0.66053   0.61682   0.37652   0.00000  Uiso   1.00
C237   C     0.63029   0.60018   0.28349   0.00000  Uiso   1.00
C238   C     0.61009   0.64894   0.21882   0.00000  Uiso   1.00
C239   C     0.56842   0.71024   0.08710   0.00000  Uiso   1.00
C240   C     0.65505   0.58883   0.56284   0.00000  Uiso   1.00
C241   C     0.62019   0.54865   0.62645   0.00000  Uiso   1.00
C242   C     0.59537   0.57385   0.71865   0.00000  Uiso   1.00
C243   C     0.54519   0.59168   0.87621   0.00000  Uiso   1.00
C244   C     0.70431   0.68734   0.50926   0.00000  Uiso   1.00
C245   C     0.76563   0.65056   0.49877   0.00000  Uiso   1.00
C246   C     0.82566   0.67467   0.51391   0.00000  Uiso   1.00
C247   C     0.87570   0.63338   0.50058   0.00000  Uiso   1.00
C248   C     0.67025   0.67992   0.40400   0.00000  Uiso   1.00
C249   C     0.65009   0.72872   0.33947   0.00000  Uiso   1.00
C250   C     0.61983   0.71216   0.24635   0.00000  Uiso   1.00
C251   C     0.66478   0.65193   0.59033   0.00000  Uiso   1.00
C252   C     0.64000   0.67720   0.68243   0.00000  Uiso   1.00
C253   C     0.60511   0.63707   0.74618   0.00000  Uiso   1.00
H254   H     0.67883   0.52203   0.43726   0.00000  Uiso   1.00
H255   H     0.79832   0.49729   0.43665   0.00000  Uiso   1.00
H256   H     0.62277   0.55134   0.26224   0.00000  Uiso   1.00
H257   H     0.61267   0.49982   0.60516   0.00000  Uiso   1.00
H258   H     0.93507   0.49770   0.44806   0.00000  Uiso   1.00
H259   H     0.56490   0.61166   0.08032   0.00000  Uiso   1.00
H260   H     0.54361   0.50303   0.80342   0.00000  Uiso   1.00
H261   H     0.71188   0.73647   0.53066   0.00000  Uiso   1.00
H262   H     0.83317   0.72350   0.53518   0.00000  Uiso   1.00
H263   H     0.65762   0.77755   0.36076   0.00000  Uiso   1.00
H264   H     0.64753   0.72603   0.70368   0.00000  Uiso   1.00
H265   H     0.96336   0.68130   0.52802   0.00000  Uiso   1.00
H266   H     0.59318   0.79526   0.16028   0.00000  Uiso   1.00
H267   H     0.57190   0.68663   0.88338   0.00000  Uiso   1.00
O268   O     0.02842   0.57711   0.48930   0.00000  Uiso   1.00
O269   O     0.54275   0.72661   0.00685   0.00000  Uiso   1.00
O270   O     0.51483   0.58409   0.95554   0.00000  Uiso   1.00
N271   N     0.92508   0.54269   0.46628   0.00000  Uiso   1.00
N272   N     0.57900   0.64923   0.12246   0.00000  Uiso   1.00
N273   N     0.55909   0.54767   0.79848   0.00000  Uiso   1.00
N274   N     0.94031   0.64148   0.50931   0.00000  Uiso   1.00
N275   N     0.59422   0.74803   0.16549   0.00000  Uiso   1.00
N276   N     0.57431   0.64647   0.84151   0.00000  Uiso   1.00
C277   C     0.07116   0.81359   0.95867   0.00000  Uiso   1.00
C278   C     0.08745   0.74409   0.97130   0.00000  Uiso   1.00
C279   C     0.04613   0.69414   0.95793   0.00000  Uiso   1.00
C280   C     0.07016   0.63404   0.97304   0.00000  Uiso   1.00
C281   C     0.08587   0.52761   0.98842   0.00000  Uiso   1.00
C282   C     0.11682   0.83947   0.87652   0.00000  Uiso   1.00
C283   C     0.10018   0.86971   0.78349   0.00000  Uiso   1.00
C284   C     0.14894   0.88991   0.71882   0.00000  Uiso   1.00
C285   C     0.21024   0.93158   0.58710   0.00000  Uiso   1.00
C286   C     0.08883   0.84495   0.06284   0.00000  Uiso   1.00
C287   C     0.04865   0.87981   0.12645   0.00000  Uiso   1.00
C288   C     0.07385   0.90463   0.21865   0.00000  Uiso   1.00
C289   C     0.09168   0.95481   0.37621   0.00000  Uiso   1.00
C290   C     0.18734   0.79569   0.00926   0.00000  Uiso   1.00
C291   C     0.15056   0.73437   0.99877   0.00000  Uiso   1.00
C292   C     0.17467   0.67434   0.01391   0.00000  Uiso   1.00
C293   C     0.13338   0.62430   0.00058   0.00000  Uiso   1.00
C294   C     0.17992   0.82975   0.90400   0.00000  Uiso   1.00
C295   C     0.22872   0.84991   0.83947   0.00000  Uiso   1.00
C296   C     0.21216   0.88017   0.74635   0.00000  Uiso   1.00
C297   C     0.15193   0.83522   0.09033   0.00000  Uiso   1.00
C298   C     0.17720   0.86000   0.18243   0.00000  Uiso   1.00
C299   C     0.13707   0.89489   0.24618   0.00000  Uiso   1.00
H300   H     0.02203   0.82117   0.93726   0.00000  Uiso   1.00
H301   H     0.99729   0.70168   0.93665   0.00000  Uiso   1.00
H302   H     0.05134   0.87723   0.76224   0.00000  Uiso   1.00
H303   H     0.99982   0.88733   0.10516   0.00000  Uiso   1.00
H304   H     0.99770   0.56493   0.94806   0.00000  Uiso   1.00
H305   H     0.11166   0.93510   0.58032   0.00000  Uiso   1.00
H306   H     0.00303   0.95639   0.30342   0.00000  Uiso   1.00
H307   H     0.23647   0.78812   0.03066   0.00000  Uiso   1.00
H308   H     0.22350   0.66683   0.03518   0.00000  Uiso   1.00
H309   H     0.27755   0.84238   0.86076   0.00000  Uiso   1.00
H310   H     0.22603   0.85247   0.20368   0.00000  Uiso   1.00
H311   H     0.18130   0.53664   0.02802   0.00000  Uiso   1.00
H312   H     0.29526   0.90682   0.66028   0.00000  Uiso   1.00
H313   H     0.18663   0.92810   0.38338   0.00000  Uiso   1.00
O314   O     0.07711   0.47158   0.98930   0.00000  Uiso   1.00
O315   O     0.22661   0.95725   0.50685   0.00000  Uiso   1.00
O316   O     0.08409   0.98517   0.45554   0.00000  Uiso   1.00
N317   N     0.04269   0.57492   0.96628   0.00000  Uiso   1.00
N318   N     0.14923   0.92100   0.62246   0.00000  Uiso   1.00
N319   N     0.04767   0.94091   0.29848   0.00000  Uiso   1.00
N320   N     0.14148   0.55969   0.00931   0.00000  Uiso   1.00
N321   N     0.24803   0.90578   0.66549   0.00000  Uiso   1.00
N322   N     0.14647   0.92569   0.34151   0.00000  Uiso   1.00
C323   C     0.92884   0.18641   0.95867   0.00000  Uiso   1.00
C324   C     0.91255   0.25591   0.97130   0.00000  Uiso   1.00
C325   C     0.95387   0.30586   0.95793   0.00000  Uiso   1.00
C326   C     0.92984   0.36596   0.97304   0.00000  Uiso   1.00
C327   C     0.91413   0.47239   0.98842   0.00000  Uiso   1.00
C328   C     0.88318   0.16053   0.87652   0.00000  Uiso   1.00
C329   C     0.89982   0.13029   0.78349   0.00000  Uiso   1.00
C330   C     0.85106   0.11009   0.71882   0.00000  Uiso   1.00
C331   C     0.78976   0.06842   0.58710   0.00000  Uiso   1.00
C332   C     0.91117   0.15505   0.06284   0.00000  Uiso   1.00
C333   C     0.95135   0.12019   0.12645   0.00000  Uiso   1.00
C334   C     0.92615   0.09537   0.21865   0.00000  Uiso   1.00
C335   C     0.90832   0.04519   0.37621   0.00000  Uiso   1.00
C336   C     0.81266   0.20431   0.00926   0.00000  Uiso   1.00
C337   C     0.84944   0.26563   0.99877   0.00000  Uiso   1.00
C338   C     0.82533   0.32566   0.01391   0.00000  Uiso   1.00
C339   C     0.86662   0.37570   0.00058   0.00000  Uiso   1.00
C340   C     0.82008   0.17025   0.90400   0.00000  Uiso   1.00
C341   C     0.77128   0.15009   0.83947   0.00000  Uiso   1.00
C342   C     0.78784   0.11983   0.74635   0.00000  Uiso   1.00
C343   C     0.84807   0.16478   0.09033   0.00000  Uiso   1.00
C344   C     0.82280   0.14000   0.18243   0.00000  Uiso   1.00
C345   C     0.86293   0.10511   0.24618   0.00000  Uiso   1.00
H346   H     0.97797   0.17883   0.93726   0.00000  Uiso   1.00
H347   H     0.00271   0.29832   0.93665   0.00000  Uiso   1.00
H348   H     0.94866   0.12277   0.76224   0.00000  Uiso   1.00
H349   H     0.00018   0.11267   0.10516   0.00000  Uiso   1.00
H350   H     0.00230   0.43507   0.94806   0.00000  Uiso   1.00
H351   H     0.88834   0.06490   0.58032   0.00000  Uiso   1.00
H352   H     0.99697   0.04361   0.30342   0.00000  Uiso   1.00
H353   H     0.76353   0.21188   0.03066   0.00000  Uiso   1.00
H354   H     0.77650   0.33317   0.03518   0.00000  Uiso   1.00
H355   H     0.72245   0.15762   0.86076   0.00000  Uiso   1.00
H356   H     0.77397   0.14753   0.20368   0.00000  Uiso   1.00
H357   H     0.81870   0.46336   0.02802   0.00000  Uiso   1.00
H358   H     0.70474   0.09318   0.66028   0.00000  Uiso   1.00
H359   H     0.81337   0.07190   0.38338   0.00000  Uiso   1.00
O360   O     0.92289   0.52842   0.98930   0.00000  Uiso   1.00
O361   O     0.77339   0.04275   0.50685   0.00000  Uiso   1.00
O362   O     0.91591   0.01483   0.45554   0.00000  Uiso   1.00
N363   N     0.95731   0.42508   0.96628   0.00000  Uiso   1.00
N364   N     0.85077   0.07900   0.62246   0.00000  Uiso   1.00
N365   N     0.95233   0.05909   0.29848   0.00000  Uiso   1.00
N366   N     0.85852   0.44031   0.00931   0.00000  Uiso   1.00
N367   N     0.75197   0.09422   0.66549   0.00000  Uiso   1.00
N368   N     0.85353   0.07431   0.34151   0.00000  Uiso   1.00
