data_job_06693
_audit_creation_date              2018-12-19
_audit_creation_method            'Materials Studio'
_symmetry_space_group_name_H-M    'P1'
_symmetry_Int_Tables_number       1
_symmetry_cell_setting            triclinic
loop_
_symmetry_equiv_pos_as_xyz
  x,y,z
_cell_length_a                    22.2134
_cell_length_b                    21.4940
_cell_length_c                    20.3847
_cell_angle_alpha                 102.1180
_cell_angle_beta                  104.0250
_cell_angle_gamma                 108.0610
loop_
_atom_site_label
_atom_site_type_symbol
_atom_site_fract_x
_atom_site_fract_y
_atom_site_fract_z
_atom_site_U_iso_or_equiv
_atom_site_adp_type
_atom_site_occupancy
C1     C     0.85250   0.93751   0.15935   0.00000  Uiso   1.00
C2     C     0.80145   0.86626   0.11266   0.00000  Uiso   1.00
C3     C     0.79027   0.83725   0.04109   0.00000  Uiso   1.00
C4     C     0.74133   0.77148   0.00783   0.00000  Uiso   1.00
C5     C     0.66756   0.66625   0.92969   0.00000  Uiso   1.00
C6     C     0.81293   0.97522   0.19038   0.00000  Uiso   1.00
C7     C     0.81143   0.03783   0.18415   0.00000  Uiso   1.00
C8     C     0.77216   0.06378   0.21632   0.00000  Uiso   1.00
C9     C     0.71628   0.12774   0.25888   0.00000  Uiso   1.00
C10    C     0.89717   0.92634   0.22178   0.00000  Uiso   1.00
C11    C     0.96650   0.94788   0.24197   0.00000  Uiso   1.00
C12    C     0.99815   0.93270   0.30060   0.00000  Uiso   1.00
C13    C     0.07306   0.92078   0.39190   0.00000  Uiso   1.00
C14    C     0.78545   0.87227   0.22759   0.00000  Uiso   1.00
C15    C     0.76502   0.83082   0.14973   0.00000  Uiso   1.00
C16    C     0.71608   0.76508   0.11658   0.00000  Uiso   1.00
C17    C     0.70484   0.73598   0.04496   0.00000  Uiso   1.00
C18    C     0.77651   0.93978   0.22744   0.00000  Uiso   1.00
C19    C     0.73724   0.96565   0.25964   0.00000  Uiso   1.00
C20    C     0.73567   0.02829   0.25345   0.00000  Uiso   1.00
C21    C     0.86075   0.89091   0.25884   0.00000  Uiso   1.00
C22    C     0.89231   0.87570   0.31746   0.00000  Uiso   1.00
C23    C     0.96167   0.89721   0.33773   0.00000  Uiso   1.00
H24    H     0.88086   0.96510   0.13050   0.00000  Uiso   1.00
H25    H     0.81847   0.86469   0.01242   0.00000  Uiso   1.00
H26    H     0.83963   0.06524   0.15547   0.00000  Uiso   1.00
H27    H     0.99467   0.97530   0.21327   0.00000  Uiso   1.00
H28    H     0.73321   0.73777   0.89784   0.00000  Uiso   1.00
H29    H     0.77785   0.16064   0.19948   0.00000  Uiso   1.00
H30    H     0.10479   0.97099   0.32138   0.00000  Uiso   1.00
H31    H     0.75709   0.84468   0.25645   0.00000  Uiso   1.00
H32    H     0.68790   0.73767   0.14527   0.00000  Uiso   1.00
H33    H     0.70906   0.93822   0.28832   0.00000  Uiso   1.00
H34    H     0.86410   0.84828   0.34612   0.00000  Uiso   1.00
H35    H     0.62724   0.63467   0.00567   0.00000  Uiso   1.00
H36    H     0.67188   0.05755   0.30731   0.00000  Uiso   1.00
H37    H     0.99881   0.86789   0.42921   0.00000  Uiso   1.00
O38    O     0.63693   0.61800   0.87634   0.00000  Uiso   1.00
O39    O     0.69551   0.17281   0.27210   0.00000  Uiso   1.00
O40    O     0.12444   0.92398   0.43202   0.00000  Uiso   1.00
N41    N     0.71778   0.72818   0.93848   0.00000  Uiso   1.00
N42    N     0.75950   0.12354   0.22049   0.00000  Uiso   1.00
N43    N     0.06516   0.94625   0.33447   0.00000  Uiso   1.00
N44    N     0.66075   0.67271   0.99650   0.00000  Uiso   1.00
N45    N     0.70248   0.06807   0.27851   0.00000  Uiso   1.00
N46    N     0.00814   0.89077   0.39249   0.00000  Uiso   1.00
C47    C     0.20367   0.75514   0.03589   0.00000  Uiso   1.00
C48    C     0.15353   0.74187   0.96358   0.00000  Uiso   1.00
C49    C     0.09717   0.75865   0.95216   0.00000  Uiso   1.00
C50    C     0.05762   0.74223   0.88203   0.00000  Uiso   1.00
C51    C     0.97728   0.72647   0.77836   0.00000  Uiso   1.00
C52    C     0.20584   0.68541   0.03831   0.00000  Uiso   1.00
C53    C     0.19347   0.65474   0.08973   0.00000  Uiso   1.00
C54    C     0.19797   0.59080   0.08250   0.00000  Uiso   1.00
C55    C     0.19889   0.48742   0.09487   0.00000  Uiso   1.00
C56    C     0.27217   0.79768   0.03435   0.00000  Uiso   1.00
C57    C     0.31558   0.86140   0.08245   0.00000  Uiso   1.00
C58    C     0.37592   0.89197   0.07190   0.00000  Uiso   1.00
C59    C     0.47982   0.96290   0.07813   0.00000  Uiso   1.00
C60    C     0.23365   0.69612   0.93164   0.00000  Uiso   1.00
C61    C     0.16982   0.70981   0.90695   0.00000  Uiso   1.00
C62    C     0.13035   0.69336   0.83681   0.00000  Uiso   1.00
C63    C     0.07394   0.71012   0.82529   0.00000  Uiso   1.00
C64    C     0.22213   0.65336   0.98168   0.00000  Uiso   1.00
C65    C     0.22665   0.58945   0.97438   0.00000  Uiso   1.00
C66    C     0.21428   0.55868   0.02577   0.00000  Uiso   1.00
C67    C     0.28846   0.76563   0.97772   0.00000  Uiso   1.00
C68    C     0.34875   0.79610   0.96710   0.00000  Uiso   1.00
C69    C     0.39224   0.85986   0.01517   0.00000  Uiso   1.00
H70    H     0.19099   0.78009   0.07998   0.00000  Uiso   1.00
H71    H     0.08458   0.78345   0.99600   0.00000  Uiso   1.00
H72    H     0.18088   0.67956   0.13355   0.00000  Uiso   1.00
H73    H     0.30296   0.88619   0.12627   0.00000  Uiso   1.00
H74    H     0.97378   0.77303   0.87792   0.00000  Uiso   1.00
H75    H     0.17685   0.55397   0.16795   0.00000  Uiso   1.00
H76    H     0.43428   0.98968   0.15261   0.00000  Uiso   1.00
H77    H     0.24633   0.67116   0.88755   0.00000  Uiso   1.00
H78    H     0.14296   0.66855   0.79300   0.00000  Uiso   1.00
H79    H     0.23926   0.56466   0.93055   0.00000  Uiso   1.00
H80    H     0.36134   0.77128   0.92327   0.00000  Uiso   1.00
H81    H     0.02116   0.67977   0.71316   0.00000  Uiso   1.00
H82    H     0.22423   0.46071   0.00319   0.00000  Uiso   1.00
H83    H     0.48166   0.89642   0.98785   0.00000  Uiso   1.00
O84    O     0.92846   0.72662   0.73682   0.00000  Uiso   1.00
O85    O     0.19489   0.43924   0.11734   0.00000  Uiso   1.00
O86    O     0.53263   0.01089   0.09721   0.00000  Uiso   1.00
N87    N     0.99912   0.75145   0.85212   0.00000  Uiso   1.00
N88    N     0.18897   0.54664   0.12327   0.00000  Uiso   1.00
N89    N     0.42966   0.95399   0.10894   0.00000  Uiso   1.00
N90    N     0.02462   0.70127   0.76346   0.00000  Uiso   1.00
N91    N     0.21447   0.49646   0.03462   0.00000  Uiso   1.00
N92    N     0.45515   0.90381   0.02028   0.00000  Uiso   1.00
C93    C     0.99228   0.07666   0.80553   0.00000  Uiso   1.00
C94    C     0.91755   0.03420   0.76808   0.00000  Uiso   1.00
C95    C     0.87968   0.97807   0.78368   0.00000  Uiso   1.00
C96    C     0.81208   0.94613   0.74331   0.00000  Uiso   1.00
C97    C     0.70041   0.87661   0.69335   0.00000  Uiso   1.00
C98    C     0.02455   0.07444   0.74747   0.00000  Uiso   1.00
C99    C     0.07664   0.05215   0.74575   0.00000  Uiso   1.00
C100   C     0.09912   0.05410   0.68804   0.00000  Uiso   1.00
C101   C     0.15359   0.04710   0.60611   0.00000  Uiso   1.00
C102   C     0.99864   0.15090   0.83290   0.00000  Uiso   1.00
C103   C     0.02897   0.19290   0.90301   0.00000  Uiso   1.00
C104   C     0.02966   0.25924   0.91722   0.00000  Uiso   1.00
C105   C     0.04390   0.37095   0.96794   0.00000  Uiso   1.00
C106   C     0.93959   0.11977   0.70610   0.00000  Uiso   1.00
C107   C     0.88893   0.05761   0.71407   0.00000  Uiso   1.00
C108   C     0.82138   0.02576   0.67367   0.00000  Uiso   1.00
C109   C     0.78341   0.96959   0.68921   0.00000  Uiso   1.00
C110   C     0.99593   0.09785   0.69346   0.00000  Uiso   1.00
C111   C     0.01834   0.09984   0.63574   0.00000  Uiso   1.00
C112   C     0.07045   0.07756   0.63393   0.00000  Uiso   1.00
C113   C     0.97002   0.17431   0.77890   0.00000  Uiso   1.00
C114   C     0.97067   0.24059   0.79300   0.00000  Uiso   1.00
C115   C     0.00099   0.28269   0.86312   0.00000  Uiso   1.00
H116   H     0.01456   0.05844   0.84758   0.00000  Uiso   1.00
H117   H     0.90184   0.95996   0.82547   0.00000  Uiso   1.00
H118   H     0.09878   0.03404   0.78756   0.00000  Uiso   1.00
H119   H     0.05111   0.17477   0.94479   0.00000  Uiso   1.00
H120   H     0.76426   0.86109   0.77713   0.00000  Uiso   1.00
H121   H     0.17952   0.01731   0.69720   0.00000  Uiso   1.00
H122   H     0.07901   0.31407   0.02876   0.00000  Uiso   1.00
H123   H     0.91731   0.13800   0.66405   0.00000  Uiso   1.00
H124   H     0.79925   0.04389   0.63188   0.00000  Uiso   1.00
H125   H     0.99619   0.11797   0.59396   0.00000  Uiso   1.00
H126   H     0.94852   0.25870   0.75119   0.00000  Uiso   1.00
H127   H     0.68098   0.92920   0.62000   0.00000  Uiso   1.00
H128   H     0.09626   0.08543   0.54007   0.00000  Uiso   1.00
H129   H     0.99574   0.38219   0.87162   0.00000  Uiso   1.00
O130   O     0.64671   0.83179   0.68070   0.00000  Uiso   1.00
O131   O     0.19154   0.03676   0.57584   0.00000  Uiso   1.00
O132   O     0.05966   0.42609   0.01083   0.00000  Uiso   1.00
N133   N     0.76086   0.89004   0.74458   0.00000  Uiso   1.00
N134   N     0.14910   0.03609   0.66984   0.00000  Uiso   1.00
N135   N     0.05514   0.31354   0.97981   0.00000  Uiso   1.00
N136   N     0.71605   0.92670   0.66003   0.00000  Uiso   1.00
N137   N     0.10429   0.07275   0.58529   0.00000  Uiso   1.00
N138   N     0.01034   0.35020   0.89526   0.00000  Uiso   1.00
C139   C     0.33681   0.61415   0.52144   0.00000  Uiso   1.00
C140   C     0.30999   0.56198   0.44749   0.00000  Uiso   1.00
C141   C     0.31557   0.49843   0.43120   0.00000  Uiso   1.00
C142   C     0.28770   0.45820   0.36035   0.00000  Uiso   1.00
C143   C     0.25093   0.37375   0.25353   0.00000  Uiso   1.00
C144   C     0.27680   0.62816   0.53446   0.00000  Uiso   1.00
C145   C     0.25449   0.62027   0.59131   0.00000  Uiso   1.00
C146   C     0.19868   0.63575   0.59367   0.00000  Uiso   1.00
C147   C     0.11041   0.65410   0.62192   0.00000  Uiso   1.00
C148   C     0.38293   0.68078   0.51597   0.00000  Uiso   1.00
C149   C     0.44984   0.71713   0.55729   0.00000  Uiso   1.00
C150   C     0.48339   0.77693   0.54409   0.00000  Uiso   1.00
C151   C     0.55990   0.87696   0.54363   0.00000  Uiso   1.00
C152   C     0.27740   0.65570   0.42456   0.00000  Uiso   1.00
C153   C     0.27771   0.58455   0.39487   0.00000  Uiso   1.00
C154   C     0.24983   0.54440   0.32402   0.00000  Uiso   1.00
C155   C     0.25537   0.48081   0.30763   0.00000  Uiso   1.00
C156   C     0.24453   0.65073   0.48185   0.00000  Uiso   1.00
C157   C     0.18875   0.66624   0.48413   0.00000  Uiso   1.00
C158   C     0.16635   0.65836   0.54096   0.00000  Uiso   1.00
C159   C     0.35065   0.70335   0.46335   0.00000  Uiso   1.00
C160   C     0.38410   0.76310   0.45010   0.00000  Uiso   1.00
C161   C     0.45105   0.79954   0.49138   0.00000  Uiso   1.00
H162   H     0.36194   0.59658   0.56241   0.00000  Uiso   1.00
H163   H     0.34055   0.48098   0.47194   0.00000  Uiso   1.00
H164   H     0.27948   0.60281   0.63202   0.00000  Uiso   1.00
H165   H     0.47480   0.69965   0.59800   0.00000  Uiso   1.00
H166   H     0.30258   0.36276   0.34844   0.00000  Uiso   1.00
H167   H     0.17382   0.61966   0.68600   0.00000  Uiso   1.00
H168   H     0.58570   0.82388   0.61426   0.00000  Uiso   1.00
H169   H     0.25227   0.67327   0.38359   0.00000  Uiso   1.00
H170   H     0.22486   0.56188   0.28331   0.00000  Uiso   1.00
H171   H     0.16378   0.68371   0.44340   0.00000  Uiso   1.00
H172   H     0.35911   0.78055   0.40938   0.00000  Uiso   1.00
H173   H     0.20868   0.42842   0.19534   0.00000  Uiso   1.00
H174   H     0.07992   0.68532   0.53291   0.00000  Uiso   1.00
H175   H     0.49180   0.88954   0.46116   0.00000  Uiso   1.00
O176   O     0.23956   0.32092   0.20915   0.00000  Uiso   1.00
O177   O     0.07064   0.65797   0.65203   0.00000  Uiso   1.00
O178   O     0.61102   0.92590   0.55790   0.00000  Uiso   1.00
N179   N     0.28425   0.39351   0.32617   0.00000  Uiso   1.00
N180   N     0.16386   0.63368   0.64176   0.00000  Uiso   1.00
N181   N     0.54893   0.82462   0.57470   0.00000  Uiso   1.00
N182   N     0.23372   0.42884   0.24379   0.00000  Uiso   1.00
N183   N     0.11333   0.66901   0.55938   0.00000  Uiso   1.00
N184   N     0.49841   0.85995   0.49232   0.00000  Uiso   1.00
C185   C     0.67059   0.41376   0.30997   0.00000  Uiso   1.00
C186   C     0.63200   0.33613   0.27913   0.00000  Uiso   1.00
C187   C     0.58239   0.29731   0.30079   0.00000  Uiso   1.00
C188   C     0.55311   0.22701   0.26590   0.00000  Uiso   1.00
C189   C     0.49017   0.11109   0.22630   0.00000  Uiso   1.00
C190   C     0.65991   0.44220   0.24743   0.00000  Uiso   1.00
C191   C     0.63378   0.49256   0.24245   0.00000  Uiso   1.00
C192   C     0.62801   0.51154   0.18088   0.00000  Uiso   1.00
C193   C     0.60845   0.56033   0.09208   0.00000  Uiso   1.00
C194   C     0.74467   0.42469   0.33447   0.00000  Uiso   1.00
C195   C     0.78981   0.46034   0.40267   0.00000  Uiso   1.00
C196   C     0.85540   0.46460   0.41438   0.00000  Uiso   1.00
C197   C     0.96745   0.48620   0.46073   0.00000  Uiso   1.00
C198   C     0.70680   0.35793   0.20949   0.00000  Uiso   1.00
C199   C     0.65167   0.30581   0.22455   0.00000  Uiso   1.00
C200   C     0.62246   0.23555   0.18962   0.00000  Uiso   1.00
C201   C     0.57282   0.19663   0.21123   0.00000  Uiso   1.00
C202   C     0.67958   0.41188   0.19285   0.00000  Uiso   1.00
C203   C     0.67385   0.43079   0.13128   0.00000  Uiso   1.00
C204   C     0.64771   0.48117   0.12620   0.00000  Uiso   1.00
C205   C     0.76434   0.39436   0.27990   0.00000  Uiso   1.00
C206   C     0.82988   0.39857   0.29150   0.00000  Uiso   1.00
C207   C     0.87511   0.43423   0.35970   0.00000  Uiso   1.00
H208   H     0.65527   0.43737   0.35245   0.00000  Uiso   1.00
H209   H     0.56718   0.32080   0.34303   0.00000  Uiso   1.00
H210   H     0.61857   0.51602   0.28470   0.00000  Uiso   1.00
H211   H     0.77457   0.48380   0.44489   0.00000  Uiso   1.00
H212   H     0.47817   0.17819   0.30849   0.00000  Uiso   1.00
H213   H     0.58655   0.58984   0.18550   0.00000  Uiso   1.00
H214   H     0.91551   0.52191   0.52331   0.00000  Uiso   1.00
H215   H     0.72212   0.33432   0.16699   0.00000  Uiso   1.00
H216   H     0.63769   0.21210   0.14739   0.00000  Uiso   1.00
H217   H     0.68908   0.40732   0.08906   0.00000  Uiso   1.00
H218   H     0.84508   0.37510   0.24925   0.00000  Uiso   1.00
H219   H     0.53539   0.08996   0.14970   0.00000  Uiso   1.00
H220   H     0.64378   0.50162   0.02671   0.00000  Uiso   1.00
H221   H     0.97274   0.43369   0.36452   0.00000  Uiso   1.00
O222   O     0.45002   0.05553   0.21953   0.00000  Uiso   1.00
O223   O     0.59222   0.59561   0.05818   0.00000  Uiso   1.00
O224   O     0.02381   0.50649   0.50137   0.00000  Uiso   1.00
N225   N     0.50323   0.17420   0.27382   0.00000  Uiso   1.00
N226   N     0.60455   0.55906   0.15883   0.00000  Uiso   1.00
N227   N     0.91211   0.49557   0.47464   0.00000  Uiso   1.00
N228   N     0.53402   0.12672   0.18837   0.00000  Uiso   1.00
N229   N     0.63534   0.51159   0.07339   0.00000  Uiso   1.00
N230   N     0.94290   0.44809   0.38920   0.00000  Uiso   1.00
C231   C     0.48833   0.27073   0.60258   0.00000  Uiso   1.00
C232   C     0.42284   0.21047   0.55726   0.00000  Uiso   1.00
C233   C     0.38634   0.20055   0.48762   0.00000  Uiso   1.00
C234   C     0.32773   0.14217   0.45537   0.00000  Uiso   1.00
C235   C     0.22930   0.05569   0.37949   0.00000  Uiso   1.00
C236   C     0.53919   0.23913   0.62666   0.00000  Uiso   1.00
C237   C     0.60053   0.25333   0.61537   0.00000  Uiso   1.00
C238   C     0.63987   0.21909   0.64155   0.00000  Uiso   1.00
C239   C     0.72209   0.17715   0.67345   0.00000  Uiso   1.00
C240   C     0.47610   0.30362   0.66945   0.00000  Uiso   1.00
C241   C     0.48441   0.37204   0.69415   0.00000  Uiso   1.00
C242   C     0.47065   0.39209   0.75637   0.00000  Uiso   1.00
C243   C     0.45492   0.45027   0.85471   0.00000  Uiso   1.00
C244   C     0.44913   0.18469   0.66915   0.00000  Uiso   1.00
C245   C     0.40155   0.16373   0.59342   0.00000  Uiso   1.00
C246   C     0.34298   0.10535   0.56127   0.00000  Uiso   1.00
C247   C     0.30640   0.09535   0.49159   0.00000  Uiso   1.00
C248   C     0.51790   0.19240   0.66281   0.00000  Uiso   1.00
C249   C     0.55716   0.15813   0.68902   0.00000  Uiso   1.00
C250   C     0.61854   0.17227   0.67778   0.00000  Uiso   1.00
C251   C     0.45481   0.25688   0.70561   0.00000  Uiso   1.00
C252   C     0.44104   0.27684   0.76780   0.00000  Uiso   1.00
C253   C     0.44932   0.34527   0.79259   0.00000  Uiso   1.00
H254   H     0.50491   0.30711   0.57444   0.00000  Uiso   1.00
H255   H     0.40284   0.23673   0.45965   0.00000  Uiso   1.00
H256   H     0.61699   0.28950   0.58740   0.00000  Uiso   1.00
H257   H     0.50088   0.40819   0.66616   0.00000  Uiso   1.00
H258   H     0.28030   0.13807   0.34834   0.00000  Uiso   1.00
H259   H     0.73187   0.24936   0.61771   0.00000  Uiso   1.00
H260   H     0.48704   0.49964   0.78380   0.00000  Uiso   1.00
H261   H     0.43256   0.14830   0.69730   0.00000  Uiso   1.00
H262   H     0.32651   0.06920   0.58926   0.00000  Uiso   1.00
H263   H     0.54067   0.12197   0.71700   0.00000  Uiso   1.00
H264   H     0.42456   0.24066   0.79577   0.00000  Uiso   1.00
H265   H     0.21836   0.00209   0.45353   0.00000  Uiso   1.00
H266   H     0.66992   0.11339   0.72290   0.00000  Uiso   1.00
H267   H     0.42509   0.36366   0.88899   0.00000  Uiso   1.00
O268   O     0.18089   0.02090   0.32764   0.00000  Uiso   1.00
O269   O     0.77333   0.16693   0.68105   0.00000  Uiso   1.00
O270   O     0.45211   0.49527   0.89895   0.00000  Uiso   1.00
N271   N     0.28027   0.11693   0.38793   0.00000  Uiso   1.00
N272   N     0.70245   0.22098   0.63976   0.00000  Uiso   1.00
N273   N     0.47357   0.45496   0.79505   0.00000  Uiso   1.00
N274   N     0.24694   0.04376   0.44453   0.00000  Uiso   1.00
N275   N     0.66912   0.14781   0.69636   0.00000  Uiso   1.00
N276   N     0.44024   0.38180   0.85165   0.00000  Uiso   1.00
C277   C     0.27271   0.85368   0.80151   0.00000  Uiso   1.00
C278   C     0.30787   0.92663   0.85311   0.00000  Uiso   1.00
C279   C     0.30527   0.94758   0.92121   0.00000  Uiso   1.00
C280   C     0.34091   0.01657   0.96003   0.00000  Uiso   1.00
C281   C     0.38991   0.12280   0.04449   0.00000  Uiso   1.00
C282   C     0.32757   0.83375   0.78151   0.00000  Uiso   1.00
C283   C     0.34152   0.77659   0.78941   0.00000  Uiso   1.00
C284   C     0.39373   0.76738   0.76794   0.00000  Uiso   1.00
C285   C     0.47328   0.72938   0.74119   0.00000  Uiso   1.00
C286   C     0.22925   0.85909   0.73415   0.00000  Uiso   1.00
C287   C     0.16053   0.82323   0.70220   0.00000  Uiso   1.00
C288   C     0.12997   0.83534   0.64085   0.00000  Uiso   1.00
C289   C     0.05687   0.83668   0.54055   0.00000  Uiso   1.00
C290   C     0.34063   0.93895   0.74934   0.00000  Uiso   1.00
C291   C     0.34476   0.97295   0.82478   0.00000  Uiso   1.00
C292   C     0.38041   0.04193   0.86350   0.00000  Uiso   1.00
C293   C     0.37786   0.06297   0.93165   0.00000  Uiso   1.00
C294   C     0.36446   0.88006   0.75318   0.00000  Uiso   1.00
C295   C     0.41666   0.87094   0.73169   0.00000  Uiso   1.00
C296   C     0.43069   0.81378   0.73956   0.00000  Uiso   1.00
C297   C     0.26614   0.90541   0.70581   0.00000  Uiso   1.00
C298   C     0.23568   0.91758   0.64449   0.00000  Uiso   1.00
C299   C     0.16693   0.88174   0.61246   0.00000  Uiso   1.00
H300   H     0.24400   0.81761   0.82356   0.00000  Uiso   1.00
H301   H     0.27672   0.91172   0.94313   0.00000  Uiso   1.00
H302   H     0.31296   0.74075   0.81133   0.00000  Uiso   1.00
H303   H     0.13200   0.78739   0.72414   0.00000  Uiso   1.00
H304   H     0.32929   0.03647   0.06320   0.00000  Uiso   1.00
H305   H     0.40568   0.67597   0.78528   0.00000  Uiso   1.00
H306   H     0.02411   0.77430   0.60142   0.00000  Uiso   1.00
H307   H     0.36935   0.97501   0.72728   0.00000  Uiso   1.00
H308   H     0.40895   0.07776   0.84156   0.00000  Uiso   1.00
H309   H     0.44519   0.90679   0.70977   0.00000  Uiso   1.00
H310   H     0.26424   0.95342   0.62258   0.00000  Uiso   1.00
H311   H     0.43662   0.17123   0.98076   0.00000  Uiso   1.00
H312   H     0.51301   0.81072   0.70284   0.00000  Uiso   1.00
H313   H     0.13144   0.90906   0.51899   0.00000  Uiso   1.00
O314   O     0.40676   0.16859   0.09890   0.00000  Uiso   1.00
O315   O     0.50698   0.69562   0.73427   0.00000  Uiso   1.00
O316   O     0.00636   0.82464   0.49306   0.00000  Uiso   1.00
N317   N     0.34910   0.05409   0.02811   0.00000  Uiso   1.00
N318   N     0.42054   0.71704   0.76828   0.00000  Uiso   1.00
N319   N     0.06380   0.80897   0.59638   0.00000  Uiso   1.00
N320   N     0.40685   0.12660   0.98375   0.00000  Uiso   1.00
N321   N     0.47829   0.78956   0.72392   0.00000  Uiso   1.00
N322   N     0.12155   0.88148   0.55202   0.00000  Uiso   1.00
C323   C     0.82751   0.08661   0.91621   0.00000  Uiso   1.00
C324   C     0.88743   0.09863   0.97971   0.00000  Uiso   1.00
C325   C     0.93836   0.07463   0.97734   0.00000  Uiso   1.00
C326   C     0.98871   0.09115   0.04125   0.00000  Uiso   1.00
C327   C     0.08186   0.10388   0.13012   0.00000  Uiso   1.00
C328   C     0.82908   0.15779   0.91497   0.00000  Uiso   1.00
C329   C     0.83094   0.18352   0.85817   0.00000  Uiso   1.00
C330   C     0.83216   0.24983   0.86759   0.00000  Uiso   1.00
C331   C     0.83468   0.35439   0.85593   0.00000  Uiso   1.00
C332   C     0.76523   0.05278   0.93460   0.00000  Uiso   1.00
C333   C     0.71340   0.99023   0.89430   0.00000  Uiso   1.00
C334   C     0.66086   0.96815   0.92024   0.00000  Uiso   1.00
C335   C     0.56424   0.90967   0.93907   0.00000  Uiso   1.00
C336   C     0.82636   0.15862   0.03391   0.00000  Uiso   1.00
C337   C     0.88681   0.13774   0.04364   0.00000  Uiso   1.00
C338   C     0.93709   0.15429   0.10757   0.00000  Uiso   1.00
C339   C     0.98809   0.13033   0.10530   0.00000  Uiso   1.00
C340   C     0.82846   0.19689   0.97890   0.00000  Uiso   1.00
C341   C     0.82967   0.26318   0.98840   0.00000  Uiso   1.00
C342   C     0.83154   0.28901   0.93163   0.00000  Uiso   1.00
C343   C     0.76461   0.09189   0.99854   0.00000  Uiso   1.00
C344   C     0.71214   0.06990   0.02453   0.00000  Uiso   1.00
C345   C     0.66023   0.00733   0.98429   0.00000  Uiso   1.00
H346   H     0.82799   0.05617   0.86643   0.00000  Uiso   1.00
H347   H     0.93882   0.04437   0.92785   0.00000  Uiso   1.00
H348   H     0.83141   0.15324   0.80870   0.00000  Uiso   1.00
H349   H     0.71389   0.95999   0.84483   0.00000  Uiso   1.00
H350   H     0.06144   0.04856   0.02414   0.00000  Uiso   1.00
H351   H     0.83494   0.27811   0.77290   0.00000  Uiso   1.00
H352   H     0.58712   0.87059   0.84908   0.00000  Uiso   1.00
H353   H     0.82588   0.18907   0.08369   0.00000  Uiso   1.00
H354   H     0.93660   0.18456   0.15703   0.00000  Uiso   1.00
H355   H     0.82919   0.29343   0.03788   0.00000  Uiso   1.00
H356   H     0.71167   0.10017   0.07401   0.00000  Uiso   1.00
H357   H     0.05964   0.16235   0.21015   0.00000  Uiso   1.00
H358   H     0.83313   0.39189   0.95891   0.00000  Uiso   1.00
H359   H     0.58532   0.98437   0.03509   0.00000  Uiso   1.00
O360   O     0.13342   0.10011   0.16147   0.00000  Uiso   1.00
O361   O     0.83625   0.40126   0.83184   0.00000  Uiso   1.00
O362   O     0.51113   0.86660   0.93180   0.00000  Uiso   1.00
N363   N     0.04581   0.07595   0.05785   0.00000  Uiso   1.00
N364   N     0.83406   0.29056   0.82296   0.00000  Uiso   1.00
N365   N     0.60237   0.90958   0.89417   0.00000  Uiso   1.00
N366   N     0.04484   0.13717   0.15795   0.00000  Uiso   1.00
N367   N     0.83309   0.35179   0.92305   0.00000  Uiso   1.00
N368   N     0.60140   0.97080   0.99427   0.00000  Uiso   1.00
C369   C     0.97789   0.75317   0.08915   0.00000  Uiso   1.00
C370   C     0.04824   0.80815   0.12759   0.00000  Uiso   1.00
C371   C     0.07195   0.87238   0.11832   0.00000  Uiso   1.00
C372   C     0.13782   0.91530   0.15849   0.00000  Uiso   1.00
C373   C     0.24086   0.00383   0.21094   0.00000  Uiso   1.00
C374   C     0.94943   0.73647   0.14714   0.00000  Uiso   1.00
C375   C     0.89004   0.74043   0.15430   0.00000  Uiso   1.00
C376   C     0.87273   0.72300   0.21092   0.00000  Uiso   1.00
C377   C     0.82234   0.70019   0.29369   0.00000  Uiso   1.00
C378   C     0.98727   0.68885   0.05291   0.00000  Uiso   1.00
C379   C     0.95970   0.65275   0.98084   0.00000  Uiso   1.00
C380   C     0.97424   0.59521   0.95812   0.00000  Uiso   1.00
C381   C     0.98261   0.49846   0.89459   0.00000  Uiso   1.00
C382   C     0.05272   0.71517   0.17696   0.00000  Uiso   1.00
C383   C     0.08888   0.78751   0.17528   0.00000  Uiso   1.00
C384   C     0.15474   0.83034   0.21547   0.00000  Uiso   1.00
C385   C     0.17854   0.89463   0.20627   0.00000  Uiso   1.00
C386   C     0.99007   0.71584   0.19483   0.00000  Uiso   1.00
C387   C     0.97284   0.69839   0.25145   0.00000  Uiso   1.00
C388   C     0.91345   0.70232   0.25870   0.00000  Uiso   1.00
C389   C     0.02792   0.66821   0.10060   0.00000  Uiso   1.00
C390   C     0.04249   0.61071   0.07799   0.00000  Uiso   1.00
C391   C     0.01495   0.57453   0.00590   0.00000  Uiso   1.00
H392   H     0.94624   0.76924   0.05202   0.00000  Uiso   1.00
H393   H     0.04047   0.88834   0.08141   0.00000  Uiso   1.00
H394   H     0.85860   0.75640   0.11738   0.00000  Uiso   1.00
H395   H     0.92825   0.66874   0.94395   0.00000  Uiso   1.00
H396   H     0.16286   0.01129   0.13505   0.00000  Uiso   1.00
H397   H     0.77936   0.73306   0.21087   0.00000  Uiso   1.00
H398   H     0.92623   0.54821   0.84516   0.00000  Uiso   1.00
H399   H     0.08436   0.69910   0.21410   0.00000  Uiso   1.00
H400   H     0.18618   0.81436   0.25238   0.00000  Uiso   1.00
H401   H     0.00430   0.68241   0.28835   0.00000  Uiso   1.00
H402   H     0.07395   0.59475   0.11492   0.00000  Uiso   1.00
H403   H     0.28112   0.95125   0.27381   0.00000  Uiso   1.00
H404   H     0.89761   0.67301   0.34964   0.00000  Uiso   1.00
H405   H     0.04448   0.48816   0.98392   0.00000  Uiso   1.00
O406   O     0.28647   0.05836   0.22671   0.00000  Uiso   1.00
O407   O     0.78332   0.69332   0.32618   0.00000  Uiso   1.00
O408   O     0.97601   0.45080   0.84637   0.00000  Uiso   1.00
N409   N     0.17673   0.98134   0.16244   0.00000  Uiso   1.00
N410   N     0.81818   0.72122   0.23334   0.00000  Uiso   1.00
N411   N     0.95547   0.54839   0.89143   0.00000  Uiso   1.00
N412   N     0.24036   0.94903   0.23711   0.00000  Uiso   1.00
N413   N     0.88181   0.68891   0.30801   0.00000  Uiso   1.00
N414   N     0.01910   0.51608   0.96610   0.00000  Uiso   1.00
C415   C     0.77037   0.25680   0.44267   0.00000  Uiso   1.00
C416   C     0.80166   0.30807   0.51740   0.00000  Uiso   1.00
C417   C     0.79846   0.37251   0.53704   0.00000  Uiso   1.00
C418   C     0.83035   0.41168   0.60805   0.00000  Uiso   1.00
C419   C     0.87381   0.49503   0.71656   0.00000  Uiso   1.00
C420   C     0.82757   0.24092   0.42395   0.00000  Uiso   1.00
C421   C     0.84614   0.24890   0.36500   0.00000  Uiso   1.00
C422   C     0.89983   0.23154   0.35734   0.00000  Uiso   1.00
C423   C     0.98348   0.21058   0.32072   0.00000  Uiso   1.00
C424   C     0.72460   0.19055   0.44915   0.00000  Uiso   1.00
C425   C     0.65660   0.15616   0.41138   0.00000  Uiso   1.00
C426   C     0.62360   0.09637   0.42492   0.00000  Uiso   1.00
C427   C     0.54738   0.99721   0.42743   0.00000  Uiso   1.00
C428   C     0.83269   0.21177   0.53386   0.00000  Uiso   1.00
C429   C     0.83551   0.28361   0.56693   0.00000  Uiso   1.00
C430   C     0.86741   0.32269   0.63794   0.00000  Uiso   1.00
C431   C     0.86425   0.38718   0.65768   0.00000  Uiso   1.00
C432   C     0.86142   0.21647   0.47348   0.00000  Uiso   1.00
C433   C     0.91509   0.19908   0.46590   0.00000  Uiso   1.00
C434   C     0.93374   0.20703   0.40696   0.00000  Uiso   1.00
C435   C     0.75845   0.16609   0.49868   0.00000  Uiso   1.00
C436   C     0.72555   0.10634   0.51228   0.00000  Uiso   1.00
C437   C     0.65751   0.07187   0.47454   0.00000  Uiso   1.00
H438   H     0.74402   0.27584   0.40410   0.00000  Uiso   1.00
H439   H     0.77226   0.39142   0.49869   0.00000  Uiso   1.00
H440   H     0.81993   0.26782   0.32668   0.00000  Uiso   1.00
H441   H     0.63042   0.17510   0.37305   0.00000  Uiso   1.00
H442   H     0.81852   0.50879   0.62540   0.00000  Uiso   1.00
H443   H     0.91902   0.24815   0.26269   0.00000  Uiso   1.00
H444   H     0.51940   0.05263   0.36047   0.00000  Uiso   1.00
H445   H     0.85905   0.19273   0.57243   0.00000  Uiso   1.00
H446   H     0.89360   0.30375   0.67626   0.00000  Uiso   1.00
H447   H     0.94127   0.18015   0.50424   0.00000  Uiso   1.00
H448   H     0.75176   0.08743   0.55061   0.00000  Uiso   1.00
H449   H     0.91701   0.43764   0.76952   0.00000  Uiso   1.00
H450   H     0.01750   0.17699   0.40680   0.00000  Uiso   1.00
H451   H     0.61788   0.98147   0.50459   0.00000  Uiso   1.00
O452   O     0.88844   0.54776   0.76272   0.00000  Uiso   1.00
O453   O     0.02027   0.20579   0.28684   0.00000  Uiso   1.00
O454   O     0.49598   0.94928   0.41514   0.00000  Uiso   1.00
N455   N     0.83695   0.47681   0.64507   0.00000  Uiso   1.00
N456   N     0.93091   0.23313   0.30596   0.00000  Uiso   1.00
N457   N     0.55730   0.05032   0.39737   0.00000  Uiso   1.00
N458   N     0.88994   0.43852   0.72262   0.00000  Uiso   1.00
N459   N     0.98390   0.19484   0.38351   0.00000  Uiso   1.00
N460   N     0.61030   0.01203   0.47492   0.00000  Uiso   1.00
C461   C     0.30418   0.34312   0.53325   0.00000  Uiso   1.00
C462   C     0.36749   0.40849   0.56186   0.00000  Uiso   1.00
C463   C     0.42343   0.41850   0.54018   0.00000  Uiso   1.00
C464   C     0.47623   0.48196   0.57285   0.00000  Uiso   1.00
C465   C     0.57502   0.57561   0.60932   0.00000  Uiso   1.00
C466   C     0.29502   0.32090   0.59765   0.00000  Uiso   1.00
C467   C     0.29001   0.25725   0.60605   0.00000  Uiso   1.00
C468   C     0.28179   0.24697   0.66884   0.00000  Uiso   1.00
C469   C     0.26801   0.20461   0.76085   0.00000  Uiso   1.00
C470   C     0.24613   0.36500   0.50643   0.00000  Uiso   1.00
C471   C     0.20000   0.33843   0.43814   0.00000  Uiso   1.00
C472   C     0.15061   0.36527   0.42414   0.00000  Uiso   1.00
C473   C     0.06093   0.39139   0.37452   0.00000  Uiso   1.00
C474   C     0.29848   0.43802   0.62983   0.00000  Uiso   1.00
C475   C     0.36439   0.46003   0.61432   0.00000  Uiso   1.00
C476   C     0.41712   0.52350   0.64703   0.00000  Uiso   1.00
C477   C     0.47312   0.53360   0.62540   0.00000  Uiso   1.00
C478   C     0.29192   0.37244   0.65011   0.00000  Uiso   1.00
C479   C     0.28370   0.36225   0.71290   0.00000  Uiso   1.00
C480   C     0.27868   0.29861   0.72139   0.00000  Uiso   1.00
C481   C     0.24303   0.41655   0.55889   0.00000  Uiso   1.00
C482   C     0.19370   0.44343   0.54499   0.00000  Uiso   1.00
C483   C     0.14751   0.41691   0.47669   0.00000  Uiso   1.00
H484   H     0.30659   0.30299   0.49241   0.00000  Uiso   1.00
H485   H     0.42581   0.37860   0.49959   0.00000  Uiso   1.00
H486   H     0.29240   0.21737   0.56544   0.00000  Uiso   1.00
H487   H     0.20242   0.29854   0.39756   0.00000  Uiso   1.00
H488   H     0.55663   0.48515   0.53069   0.00000  Uiso   1.00
H489   H     0.27531   0.14519   0.66954   0.00000  Uiso   1.00
H490   H     0.08555   0.31635   0.31553   0.00000  Uiso   1.00
H491   H     0.29606   0.47815   0.67067   0.00000  Uiso   1.00
H492   H     0.41471   0.56337   0.68762   0.00000  Uiso   1.00
H493   H     0.28130   0.40214   0.75348   0.00000  Uiso   1.00
H494   H     0.19131   0.48331   0.58560   0.00000  Uiso   1.00
H495   H     0.54762   0.63512   0.68331   0.00000  Uiso   1.00
H496   H     0.26629   0.29515   0.82216   0.00000  Uiso   1.00
H497   H     0.07654   0.46631   0.46815   0.00000  Uiso   1.00
O498   O     0.63037   0.61303   0.61495   0.00000  Uiso   1.00
O499   O     0.26127   0.16701   0.79711   0.00000  Uiso   1.00
O500   O     0.01233   0.39157   0.33265   0.00000  Uiso   1.00
N501   N     0.53822   0.50875   0.56427   0.00000  Uiso   1.00
N502   N     0.27521   0.19091   0.69409   0.00000  Uiso   1.00
N503   N     0.09780   0.35092   0.36313   0.00000  Uiso   1.00
N504   N     0.53337   0.58945   0.64640   0.00000  Uiso   1.00
N505   N     0.27036   0.27161   0.77622   0.00000  Uiso   1.00
N506   N     0.09295   0.43162   0.44525   0.00000  Uiso   1.00
C507   C     0.42716   0.61522   0.26625   0.00000  Uiso   1.00
C508   C     0.50041   0.63099   0.30616   0.00000  Uiso   1.00
C509   C     0.52375   0.61572   0.36795   0.00000  Uiso   1.00
C510   C     0.59260   0.63435   0.39627   0.00000  Uiso   1.00
C511   C     0.69968   0.65389   0.46319   0.00000  Uiso   1.00
C512   C     0.42338   0.68380   0.26128   0.00000  Uiso   1.00
C513   C     0.38194   0.71292   0.28532   0.00000  Uiso   1.00
C514   C     0.38594   0.77601   0.27584   0.00000  Uiso   1.00
C515   C     0.37338   0.87751   0.27302   0.00000  Uiso   1.00
C516   C     0.41302   0.57218   0.19048   0.00000  Uiso   1.00
C517   C     0.36286   0.50745   0.15498   0.00000  Uiso   1.00
C518   C     0.35813   0.47657   0.08588   0.00000  Uiso   1.00
C519   C     0.32949   0.40476   0.97314   0.00000  Uiso   1.00
C520   C     0.50791   0.67549   0.20666   0.00000  Uiso   1.00
C521   C     0.54428   0.66373   0.27379   0.00000  Uiso   1.00
C522   C     0.61310   0.68239   0.30202   0.00000  Uiso   1.00
C523   C     0.63654   0.66714   0.36384   0.00000  Uiso   1.00
C524   C     0.46724   0.71654   0.22891   0.00000  Uiso   1.00
C525   C     0.47129   0.77959   0.21939   0.00000  Uiso   1.00
C526   C     0.42988   0.80880   0.24341   0.00000  Uiso   1.00
C527   C     0.45689   0.60491   0.15811   0.00000  Uiso   1.00
C528   C     0.45222   0.57412   0.08905   0.00000  Uiso   1.00
C529   C     0.40207   0.50936   0.05346   0.00000  Uiso   1.00
H530   H     0.39300   0.58975   0.29145   0.00000  Uiso   1.00
H531   H     0.48979   0.59039   0.39299   0.00000  Uiso   1.00
H532   H     0.34800   0.68758   0.31036   0.00000  Uiso   1.00
H533   H     0.32893   0.48214   0.18004   0.00000  Uiso   1.00
H534   H     0.61645   0.60556   0.49131   0.00000  Uiso   1.00
H535   H     0.31745   0.81047   0.31705   0.00000  Uiso   1.00
H536   H     0.27723   0.37727   0.04226   0.00000  Uiso   1.00
H537   H     0.54207   0.70097   0.18146   0.00000  Uiso   1.00
H538   H     0.64704   0.70772   0.27696   0.00000  Uiso   1.00
H539   H     0.50524   0.80490   0.19433   0.00000  Uiso   1.00
H540   H     0.48617   0.59947   0.06402   0.00000  Uiso   1.00
H541   H     0.74407   0.70079   0.39714   0.00000  Uiso   1.00
H542   H     0.44507   0.90570   0.22288   0.00000  Uiso   1.00
H543   H     0.40486   0.47250   0.94809   0.00000  Uiso   1.00
O544   O     0.74662   0.65563   0.50905   0.00000  Uiso   1.00
O545   O     0.35434   0.92446   0.28042   0.00000  Uiso   1.00
O546   O     0.30158   0.35610   0.91990   0.00000  Uiso   1.00
N547   N     0.63208   0.62704   0.45603   0.00000  Uiso   1.00
N548   N     0.35254   0.81862   0.29312   0.00000  Uiso   1.00
N549   N     0.31493   0.41362   0.03620   0.00000  Uiso   1.00
N550   N     0.70075   0.67828   0.40536   0.00000  Uiso   1.00
N551   N     0.42121   0.86986   0.24245   0.00000  Uiso   1.00
N552   N     0.38360   0.46486   0.98553   0.00000  Uiso   1.00
