data_job_00995
_audit_creation_date              2018-12-19
_audit_creation_method            'Materials Studio'
_symmetry_space_group_name_H-M    'P1'
_symmetry_Int_Tables_number       1
_symmetry_cell_setting            triclinic
loop_
_symmetry_equiv_pos_as_xyz
  x,y,z
_cell_length_a                    11.3812
_cell_length_b                    11.7286
_cell_length_c                    15.4170
_cell_angle_alpha                 108.4408
_cell_angle_beta                  77.2259
_cell_angle_gamma                 114.1275
loop_
_atom_site_label
_atom_site_type_symbol
_atom_site_fract_x
_atom_site_fract_y
_atom_site_fract_z
_atom_site_U_iso_or_equiv
_atom_site_adp_type
_atom_site_occupancy
C1     C     0.33468   0.52542   0.87980   0.00000  Uiso   1.00
C2     C     0.46988   0.59174   0.83586   0.00000  Uiso   1.00
C3     C     0.58555   0.61144   0.86454   0.00000  Uiso   1.00
C4     C     0.69899   0.67405   0.81525   0.00000  Uiso   1.00
C5     C     0.90927   0.77079   0.75849   0.00000  Uiso   1.00
C6     C     0.26717   0.62206   0.90549   0.00000  Uiso   1.00
C7     C     0.21239   0.66725   0.99270   0.00000  Uiso   1.00
C8     C     0.15518   0.75538   0.00202   0.00000  Uiso   1.00
C9     C     0.05066   0.89912   0.05335   0.00000  Uiso   1.00
C10    C     0.26411   0.41466   0.80314   0.00000  Uiso   1.00
C11    C     0.20671   0.28546   0.80430   0.00000  Uiso   1.00
C12    C     0.14689   0.19896   0.72746   0.00000  Uiso   1.00
C13    C     0.03762   0.02068   0.61987   0.00000  Uiso   1.00
C14    C     0.33046   0.60156   0.74128   0.00000  Uiso   1.00
C15    C     0.46758   0.63309   0.76062   0.00000  Uiso   1.00
C16    C     0.58088   0.69568   0.71128   0.00000  Uiso   1.00
C17    C     0.69670   0.71548   0.73987   0.00000  Uiso   1.00
C18    C     0.26488   0.66342   0.83025   0.00000  Uiso   1.00
C19    C     0.20772   0.75149   0.83944   0.00000  Uiso   1.00
C20    C     0.15288   0.79681   0.92665   0.00000  Uiso   1.00
C21    C     0.26181   0.45601   0.72789   0.00000  Uiso   1.00
C22    C     0.20205   0.36970   0.65104   0.00000  Uiso   1.00
C23    C     0.14459   0.24039   0.65209   0.00000  Uiso   1.00
H24    H     0.33646   0.49323   0.93838   0.00000  Uiso   1.00
H25    H     0.58728   0.57944   0.92277   0.00000  Uiso   1.00
H26    H     0.21417   0.63522   0.05091   0.00000  Uiso   1.00
H27    H     0.20851   0.25349   0.86254   0.00000  Uiso   1.00
H28    H     0.86435   0.69329   0.87231   0.00000  Uiso   1.00
H29    H     0.07759   0.81089   0.14249   0.00000  Uiso   1.00
H30    H     0.06564   0.00593   0.74527   0.00000  Uiso   1.00
H31    H     0.32867   0.63376   0.68270   0.00000  Uiso   1.00
H32    H     0.57907   0.72768   0.65305   0.00000  Uiso   1.00
H33    H     0.20596   0.78347   0.78120   0.00000  Uiso   1.00
H34    H     0.20030   0.40174   0.59283   0.00000  Uiso   1.00
H35    H     0.85769   0.81362   0.65340   0.00000  Uiso   1.00
H36    H     0.07092   0.93121   0.92358   0.00000  Uiso   1.00
H37    H     0.05898   0.12625   0.52636   0.00000  Uiso   1.00
O38    O     0.02588   0.81274   0.74798   0.00000  Uiso   1.00
O39    O     0.99366   0.96700   0.10245   0.00000  Uiso   1.00
O40    O     0.97799   0.91091   0.58131   0.00000  Uiso   1.00
N41    N     0.82842   0.70870   0.82484   0.00000  Uiso   1.00
N42    N     0.09286   0.81866   0.07745   0.00000  Uiso   1.00
N43    N     0.08166   0.06609   0.70610   0.00000  Uiso   1.00
N44    N     0.82484   0.77344   0.70705   0.00000  Uiso   1.00
N45    N     0.08928   0.88340   0.95966   0.00000  Uiso   1.00
N46    N     0.07807   0.13084   0.58830   0.00000  Uiso   1.00
C47    C     0.66532   0.47458   0.12020   0.00000  Uiso   1.00
C48    C     0.53012   0.40826   0.16414   0.00000  Uiso   1.00
C49    C     0.41445   0.38856   0.13546   0.00000  Uiso   1.00
C50    C     0.30101   0.32595   0.18475   0.00000  Uiso   1.00
C51    C     0.09073   0.22921   0.24151   0.00000  Uiso   1.00
C52    C     0.73283   0.37794   0.09451   0.00000  Uiso   1.00
C53    C     0.78761   0.33275   0.00730   0.00000  Uiso   1.00
C54    C     0.84482   0.24462   0.99798   0.00000  Uiso   1.00
C55    C     0.94934   0.10088   0.94665   0.00000  Uiso   1.00
C56    C     0.73589   0.58534   0.19686   0.00000  Uiso   1.00
C57    C     0.79329   0.71454   0.19570   0.00000  Uiso   1.00
C58    C     0.85311   0.80104   0.27254   0.00000  Uiso   1.00
C59    C     0.96238   0.97932   0.38013   0.00000  Uiso   1.00
C60    C     0.66954   0.39844   0.25872   0.00000  Uiso   1.00
C61    C     0.53242   0.36691   0.23938   0.00000  Uiso   1.00
C62    C     0.41912   0.30432   0.28872   0.00000  Uiso   1.00
C63    C     0.30330   0.28452   0.26013   0.00000  Uiso   1.00
C64    C     0.73512   0.33658   0.16975   0.00000  Uiso   1.00
C65    C     0.79228   0.24851   0.16056   0.00000  Uiso   1.00
C66    C     0.84712   0.20319   0.07335   0.00000  Uiso   1.00
C67    C     0.73819   0.54399   0.27211   0.00000  Uiso   1.00
C68    C     0.79795   0.63030   0.34896   0.00000  Uiso   1.00
C69    C     0.85541   0.75961   0.34791   0.00000  Uiso   1.00
H70    H     0.66354   0.50677   0.06162   0.00000  Uiso   1.00
H71    H     0.41272   0.42056   0.07723   0.00000  Uiso   1.00
H72    H     0.78583   0.36478   0.94909   0.00000  Uiso   1.00
H73    H     0.79149   0.74651   0.13746   0.00000  Uiso   1.00
H74    H     0.13565   0.30671   0.12769   0.00000  Uiso   1.00
H75    H     0.92241   0.18911   0.85751   0.00000  Uiso   1.00
H76    H     0.93436   0.99407   0.25473   0.00000  Uiso   1.00
H77    H     0.67133   0.36624   0.31730   0.00000  Uiso   1.00
H78    H     0.42093   0.27232   0.34695   0.00000  Uiso   1.00
H79    H     0.79404   0.21653   0.21880   0.00000  Uiso   1.00
H80    H     0.79970   0.59826   0.40717   0.00000  Uiso   1.00
H81    H     0.14231   0.18638   0.34660   0.00000  Uiso   1.00
H82    H     0.92908   0.06879   0.07642   0.00000  Uiso   1.00
H83    H     0.94102   0.87375   0.47364   0.00000  Uiso   1.00
O84    O     0.97412   0.18726   0.25202   0.00000  Uiso   1.00
O85    O     0.00634   0.03300   0.89755   0.00000  Uiso   1.00
O86    O     0.02201   0.08909   0.41869   0.00000  Uiso   1.00
N87    N     0.17158   0.29130   0.17516   0.00000  Uiso   1.00
N88    N     0.90714   0.18134   0.92255   0.00000  Uiso   1.00
N89    N     0.91834   0.93391   0.29390   0.00000  Uiso   1.00
N90    N     0.17516   0.22656   0.29295   0.00000  Uiso   1.00
N91    N     0.91072   0.11660   0.04034   0.00000  Uiso   1.00
N92    N     0.92193   0.86916   0.41170   0.00000  Uiso   1.00
