data_job_01150
_audit_creation_date              2018-12-19
_audit_creation_method            'Materials Studio'
_symmetry_space_group_name_H-M    'P1'
_symmetry_Int_Tables_number       1
_symmetry_cell_setting            triclinic
loop_
_symmetry_equiv_pos_as_xyz
  x,y,z
_cell_length_a                    17.9268
_cell_length_b                    24.5215
_cell_length_c                    10.7710
_cell_angle_alpha                 90.0000
_cell_angle_beta                  90.0000
_cell_angle_gamma                 90.0000
loop_
_atom_site_label
_atom_site_type_symbol
_atom_site_fract_x
_atom_site_fract_y
_atom_site_fract_z
_atom_site_U_iso_or_equiv
_atom_site_adp_type
_atom_site_occupancy
C1     C     0.86968   0.07993   0.33263   0.00000  Uiso   1.00
C2     C     0.90661   0.08003   0.20509   0.00000  Uiso   1.00
C3     C     0.97807   0.09852   0.17896   0.00000  Uiso   1.00
C4     C     0.00158   0.09517   0.05638   0.00000  Uiso   1.00
C5     C     0.06596   0.09857   0.87248   0.00000  Uiso   1.00
C6     C     0.79739   0.11208   0.31819   0.00000  Uiso   1.00
C7     C     0.77702   0.15751   0.38718   0.00000  Uiso   1.00
C8     C     0.70858   0.18113   0.35981   0.00000  Uiso   1.00
C9     C     0.60337   0.23426   0.35157   0.00000  Uiso   1.00
C10    C     0.84657   0.02107   0.35726   0.00000  Uiso   1.00
C11    C     0.86753   0.98997   0.45911   0.00000  Uiso   1.00
C12    C     0.84047   0.93697   0.46466   0.00000  Uiso   1.00
C13    C     0.81161   0.84879   0.51708   0.00000  Uiso   1.00
C14    C     0.78435   0.04111   0.16140   0.00000  Uiso   1.00
C15    C     0.86026   0.05895   0.11209   0.00000  Uiso   1.00
C16    C     0.88367   0.05557   0.98951   0.00000  Uiso   1.00
C17    C     0.95515   0.07404   0.96320   0.00000  Uiso   1.00
C18    C     0.75104   0.09100   0.22519   0.00000  Uiso   1.00
C19    C     0.68261   0.11456   0.19773   0.00000  Uiso   1.00
C20    C     0.66215   0.16001   0.26664   0.00000  Uiso   1.00
C21    C     0.80022   0.99998   0.26426   0.00000  Uiso   1.00
C22    C     0.77312   0.94702   0.26966   0.00000  Uiso   1.00
C23    C     0.79404   0.91585   0.37149   0.00000  Uiso   1.00
H24    H     0.90576   0.09635   0.40504   0.00000  Uiso   1.00
H25    H     0.01392   0.11484   0.25096   0.00000  Uiso   1.00
H26    H     0.81290   0.17381   0.45915   0.00000  Uiso   1.00
H27    H     0.90339   0.00630   0.53106   0.00000  Uiso   1.00
H28    H     0.11339   0.12606   0.03911   0.00000  Uiso   1.00
H29    H     0.68950   0.25040   0.47812   0.00000  Uiso   1.00
H30    H     0.88033   0.89717   0.62977   0.00000  Uiso   1.00
H31    H     0.74827   0.02469   0.08899   0.00000  Uiso   1.00
H32    H     0.84779   0.03925   0.91756   0.00000  Uiso   1.00
H33    H     0.64676   0.09823   0.12575   0.00000  Uiso   1.00
H34    H     0.73726   0.93072   0.19767   0.00000  Uiso   1.00
H35    H     0.97855   0.06471   0.76851   0.00000  Uiso   1.00
H36    H     0.55466   0.18906   0.20752   0.00000  Uiso   1.00
H37    H     0.74549   0.83583   0.35917   0.00000  Uiso   1.00
O38    O     0.11427   0.10627   0.79673   0.00000  Uiso   1.00
O39    O     0.55814   0.26940   0.37271   0.00000  Uiso   1.00
O40    O     0.80850   0.80597   0.57167   0.00000  Uiso   1.00
N41    N     0.06800   0.10961   0.99895   0.00000  Uiso   1.00
N42    N     0.67170   0.22587   0.40939   0.00000  Uiso   1.00
N43    N     0.85009   0.89564   0.55119   0.00000  Uiso   1.00
N44    N     0.99544   0.07660   0.85334   0.00000  Uiso   1.00
N45    N     0.59914   0.19286   0.26378   0.00000  Uiso   1.00
N46    N     0.77753   0.86263   0.40558   0.00000  Uiso   1.00
C47    C     0.86968   0.57993   0.83263   0.00000  Uiso   1.00
C48    C     0.90661   0.58003   0.70509   0.00000  Uiso   1.00
C49    C     0.97807   0.59852   0.67896   0.00000  Uiso   1.00
C50    C     0.00158   0.59517   0.55638   0.00000  Uiso   1.00
C51    C     0.06596   0.59857   0.37248   0.00000  Uiso   1.00
C52    C     0.79739   0.61208   0.81819   0.00000  Uiso   1.00
C53    C     0.77702   0.65751   0.88718   0.00000  Uiso   1.00
C54    C     0.70858   0.68113   0.85981   0.00000  Uiso   1.00
C55    C     0.60337   0.73426   0.85157   0.00000  Uiso   1.00
C56    C     0.84657   0.52107   0.85726   0.00000  Uiso   1.00
C57    C     0.86753   0.48997   0.95911   0.00000  Uiso   1.00
C58    C     0.84047   0.43697   0.96466   0.00000  Uiso   1.00
C59    C     0.81161   0.34879   0.01708   0.00000  Uiso   1.00
C60    C     0.78435   0.54111   0.66140   0.00000  Uiso   1.00
C61    C     0.86026   0.55895   0.61209   0.00000  Uiso   1.00
C62    C     0.88367   0.55557   0.48951   0.00000  Uiso   1.00
C63    C     0.95515   0.57404   0.46320   0.00000  Uiso   1.00
C64    C     0.75104   0.59100   0.72519   0.00000  Uiso   1.00
C65    C     0.68261   0.61456   0.69773   0.00000  Uiso   1.00
C66    C     0.66215   0.66001   0.76664   0.00000  Uiso   1.00
C67    C     0.80022   0.49998   0.76426   0.00000  Uiso   1.00
C68    C     0.77312   0.44702   0.76966   0.00000  Uiso   1.00
C69    C     0.79404   0.41585   0.87149   0.00000  Uiso   1.00
H70    H     0.90576   0.59635   0.90504   0.00000  Uiso   1.00
H71    H     0.01392   0.61484   0.75096   0.00000  Uiso   1.00
H72    H     0.81290   0.67381   0.95915   0.00000  Uiso   1.00
H73    H     0.90339   0.50630   0.03106   0.00000  Uiso   1.00
H74    H     0.11339   0.62606   0.53911   0.00000  Uiso   1.00
H75    H     0.68950   0.75040   0.97812   0.00000  Uiso   1.00
H76    H     0.88033   0.39717   0.12977   0.00000  Uiso   1.00
H77    H     0.74827   0.52469   0.58899   0.00000  Uiso   1.00
H78    H     0.84779   0.53925   0.41756   0.00000  Uiso   1.00
H79    H     0.64676   0.59823   0.62575   0.00000  Uiso   1.00
H80    H     0.73726   0.43072   0.69767   0.00000  Uiso   1.00
H81    H     0.97855   0.56471   0.26851   0.00000  Uiso   1.00
H82    H     0.55466   0.68906   0.70752   0.00000  Uiso   1.00
H83    H     0.74549   0.33583   0.85917   0.00000  Uiso   1.00
O84    O     0.11427   0.60627   0.29673   0.00000  Uiso   1.00
O85    O     0.55814   0.76940   0.87271   0.00000  Uiso   1.00
O86    O     0.80850   0.30597   0.07167   0.00000  Uiso   1.00
N87    N     0.06800   0.60961   0.49895   0.00000  Uiso   1.00
N88    N     0.67170   0.72587   0.90939   0.00000  Uiso   1.00
N89    N     0.85009   0.39564   0.05119   0.00000  Uiso   1.00
N90    N     0.99544   0.57660   0.35334   0.00000  Uiso   1.00
N91    N     0.59914   0.69286   0.76378   0.00000  Uiso   1.00
N92    N     0.77753   0.36263   0.90558   0.00000  Uiso   1.00
C93    C     0.13032   0.92007   0.33263   0.00000  Uiso   1.00
C94    C     0.09339   0.91997   0.20509   0.00000  Uiso   1.00
C95    C     0.02193   0.90148   0.17896   0.00000  Uiso   1.00
C96    C     0.99842   0.90483   0.05638   0.00000  Uiso   1.00
C97    C     0.93404   0.90143   0.87248   0.00000  Uiso   1.00
C98    C     0.20261   0.88792   0.31819   0.00000  Uiso   1.00
C99    C     0.22298   0.84249   0.38718   0.00000  Uiso   1.00
C100   C     0.29142   0.81887   0.35981   0.00000  Uiso   1.00
C101   C     0.39663   0.76574   0.35157   0.00000  Uiso   1.00
C102   C     0.15343   0.97893   0.35726   0.00000  Uiso   1.00
C103   C     0.13247   0.01003   0.45911   0.00000  Uiso   1.00
C104   C     0.15953   0.06303   0.46466   0.00000  Uiso   1.00
C105   C     0.18839   0.15121   0.51708   0.00000  Uiso   1.00
C106   C     0.21565   0.95889   0.16140   0.00000  Uiso   1.00
C107   C     0.13974   0.94105   0.11209   0.00000  Uiso   1.00
C108   C     0.11633   0.94443   0.98951   0.00000  Uiso   1.00
C109   C     0.04485   0.92596   0.96320   0.00000  Uiso   1.00
C110   C     0.24896   0.90900   0.22519   0.00000  Uiso   1.00
C111   C     0.31739   0.88544   0.19773   0.00000  Uiso   1.00
C112   C     0.33785   0.83999   0.26664   0.00000  Uiso   1.00
C113   C     0.19978   0.00002   0.26426   0.00000  Uiso   1.00
C114   C     0.22688   0.05298   0.26966   0.00000  Uiso   1.00
C115   C     0.20596   0.08415   0.37149   0.00000  Uiso   1.00
H116   H     0.09424   0.90365   0.40504   0.00000  Uiso   1.00
H117   H     0.98608   0.88516   0.25096   0.00000  Uiso   1.00
H118   H     0.18710   0.82619   0.45915   0.00000  Uiso   1.00
H119   H     0.09661   0.99370   0.53106   0.00000  Uiso   1.00
H120   H     0.88661   0.87394   0.03911   0.00000  Uiso   1.00
H121   H     0.31050   0.74960   0.47812   0.00000  Uiso   1.00
H122   H     0.11967   0.10283   0.62977   0.00000  Uiso   1.00
H123   H     0.25173   0.97531   0.08899   0.00000  Uiso   1.00
H124   H     0.15221   0.96075   0.91756   0.00000  Uiso   1.00
H125   H     0.35324   0.90177   0.12575   0.00000  Uiso   1.00
H126   H     0.26274   0.06928   0.19767   0.00000  Uiso   1.00
H127   H     0.02145   0.93529   0.76851   0.00000  Uiso   1.00
H128   H     0.44534   0.81094   0.20752   0.00000  Uiso   1.00
H129   H     0.25451   0.16417   0.35917   0.00000  Uiso   1.00
O130   O     0.88573   0.89373   0.79673   0.00000  Uiso   1.00
O131   O     0.44186   0.73060   0.37271   0.00000  Uiso   1.00
O132   O     0.19150   0.19403   0.57167   0.00000  Uiso   1.00
N133   N     0.93200   0.89039   0.99895   0.00000  Uiso   1.00
N134   N     0.32830   0.77413   0.40939   0.00000  Uiso   1.00
N135   N     0.14991   0.10436   0.55119   0.00000  Uiso   1.00
N136   N     0.00456   0.92340   0.85334   0.00000  Uiso   1.00
N137   N     0.40086   0.80714   0.26378   0.00000  Uiso   1.00
N138   N     0.22247   0.13737   0.40558   0.00000  Uiso   1.00
C139   C     0.13032   0.42007   0.83263   0.00000  Uiso   1.00
C140   C     0.09339   0.41997   0.70509   0.00000  Uiso   1.00
C141   C     0.02193   0.40148   0.67896   0.00000  Uiso   1.00
C142   C     0.99842   0.40483   0.55638   0.00000  Uiso   1.00
C143   C     0.93404   0.40143   0.37248   0.00000  Uiso   1.00
C144   C     0.20261   0.38792   0.81819   0.00000  Uiso   1.00
C145   C     0.22298   0.34249   0.88718   0.00000  Uiso   1.00
C146   C     0.29142   0.31887   0.85981   0.00000  Uiso   1.00
C147   C     0.39663   0.26574   0.85157   0.00000  Uiso   1.00
C148   C     0.15343   0.47893   0.85726   0.00000  Uiso   1.00
C149   C     0.13247   0.51003   0.95911   0.00000  Uiso   1.00
C150   C     0.15953   0.56303   0.96466   0.00000  Uiso   1.00
C151   C     0.18839   0.65121   0.01708   0.00000  Uiso   1.00
C152   C     0.21565   0.45889   0.66140   0.00000  Uiso   1.00
C153   C     0.13974   0.44105   0.61209   0.00000  Uiso   1.00
C154   C     0.11633   0.44443   0.48951   0.00000  Uiso   1.00
C155   C     0.04485   0.42596   0.46320   0.00000  Uiso   1.00
C156   C     0.24896   0.40900   0.72519   0.00000  Uiso   1.00
C157   C     0.31739   0.38544   0.69773   0.00000  Uiso   1.00
C158   C     0.33785   0.33999   0.76664   0.00000  Uiso   1.00
C159   C     0.19978   0.50002   0.76426   0.00000  Uiso   1.00
C160   C     0.22688   0.55298   0.76966   0.00000  Uiso   1.00
C161   C     0.20596   0.58415   0.87149   0.00000  Uiso   1.00
H162   H     0.09424   0.40365   0.90504   0.00000  Uiso   1.00
H163   H     0.98608   0.38516   0.75096   0.00000  Uiso   1.00
H164   H     0.18710   0.32619   0.95915   0.00000  Uiso   1.00
H165   H     0.09661   0.49370   0.03106   0.00000  Uiso   1.00
H166   H     0.88661   0.37394   0.53911   0.00000  Uiso   1.00
H167   H     0.31050   0.24960   0.97812   0.00000  Uiso   1.00
H168   H     0.11967   0.60283   0.12977   0.00000  Uiso   1.00
H169   H     0.25173   0.47531   0.58899   0.00000  Uiso   1.00
H170   H     0.15221   0.46075   0.41756   0.00000  Uiso   1.00
H171   H     0.35324   0.40177   0.62575   0.00000  Uiso   1.00
H172   H     0.26274   0.56928   0.69767   0.00000  Uiso   1.00
H173   H     0.02145   0.43529   0.26851   0.00000  Uiso   1.00
H174   H     0.44534   0.31094   0.70752   0.00000  Uiso   1.00
H175   H     0.25451   0.66417   0.85917   0.00000  Uiso   1.00
O176   O     0.88573   0.39373   0.29673   0.00000  Uiso   1.00
O177   O     0.44186   0.23060   0.87271   0.00000  Uiso   1.00
O178   O     0.19150   0.69403   0.07167   0.00000  Uiso   1.00
N179   N     0.93200   0.39039   0.49895   0.00000  Uiso   1.00
N180   N     0.32830   0.27413   0.90939   0.00000  Uiso   1.00
N181   N     0.14991   0.60436   0.05119   0.00000  Uiso   1.00
N182   N     0.00456   0.42340   0.35334   0.00000  Uiso   1.00
N183   N     0.40086   0.30714   0.76378   0.00000  Uiso   1.00
N184   N     0.22247   0.63737   0.90558   0.00000  Uiso   1.00
C185   C     0.36968   0.42007   0.33263   0.00000  Uiso   1.00
C186   C     0.40661   0.41997   0.20509   0.00000  Uiso   1.00
C187   C     0.47807   0.40148   0.17896   0.00000  Uiso   1.00
C188   C     0.50158   0.40483   0.05638   0.00000  Uiso   1.00
C189   C     0.56596   0.40143   0.87248   0.00000  Uiso   1.00
C190   C     0.29739   0.38792   0.31819   0.00000  Uiso   1.00
C191   C     0.27702   0.34249   0.38718   0.00000  Uiso   1.00
C192   C     0.20858   0.31887   0.35981   0.00000  Uiso   1.00
C193   C     0.10337   0.26574   0.35157   0.00000  Uiso   1.00
C194   C     0.34657   0.47893   0.35726   0.00000  Uiso   1.00
C195   C     0.36753   0.51003   0.45911   0.00000  Uiso   1.00
C196   C     0.34047   0.56303   0.46466   0.00000  Uiso   1.00
C197   C     0.31161   0.65121   0.51708   0.00000  Uiso   1.00
C198   C     0.28435   0.45889   0.16140   0.00000  Uiso   1.00
C199   C     0.36026   0.44105   0.11209   0.00000  Uiso   1.00
C200   C     0.38367   0.44443   0.98951   0.00000  Uiso   1.00
C201   C     0.45515   0.42596   0.96320   0.00000  Uiso   1.00
C202   C     0.25104   0.40900   0.22519   0.00000  Uiso   1.00
C203   C     0.18261   0.38544   0.19773   0.00000  Uiso   1.00
C204   C     0.16215   0.33999   0.26664   0.00000  Uiso   1.00
C205   C     0.30022   0.50002   0.26426   0.00000  Uiso   1.00
C206   C     0.27312   0.55298   0.26966   0.00000  Uiso   1.00
C207   C     0.29404   0.58415   0.37149   0.00000  Uiso   1.00
H208   H     0.40576   0.40365   0.40504   0.00000  Uiso   1.00
H209   H     0.51392   0.38516   0.25096   0.00000  Uiso   1.00
H210   H     0.31290   0.32619   0.45915   0.00000  Uiso   1.00
H211   H     0.40339   0.49370   0.53106   0.00000  Uiso   1.00
H212   H     0.61339   0.37394   0.03911   0.00000  Uiso   1.00
H213   H     0.18950   0.24960   0.47812   0.00000  Uiso   1.00
H214   H     0.38033   0.60283   0.62977   0.00000  Uiso   1.00
H215   H     0.24827   0.47531   0.08899   0.00000  Uiso   1.00
H216   H     0.34779   0.46075   0.91756   0.00000  Uiso   1.00
H217   H     0.14676   0.40177   0.12575   0.00000  Uiso   1.00
H218   H     0.23726   0.56928   0.19767   0.00000  Uiso   1.00
H219   H     0.47855   0.43529   0.76851   0.00000  Uiso   1.00
H220   H     0.05466   0.31094   0.20752   0.00000  Uiso   1.00
H221   H     0.24549   0.66417   0.35917   0.00000  Uiso   1.00
O222   O     0.61427   0.39373   0.79673   0.00000  Uiso   1.00
O223   O     0.05814   0.23060   0.37271   0.00000  Uiso   1.00
O224   O     0.30850   0.69403   0.57167   0.00000  Uiso   1.00
N225   N     0.56800   0.39039   0.99895   0.00000  Uiso   1.00
N226   N     0.17170   0.27413   0.40939   0.00000  Uiso   1.00
N227   N     0.35009   0.60436   0.55119   0.00000  Uiso   1.00
N228   N     0.49544   0.42340   0.85334   0.00000  Uiso   1.00
N229   N     0.09914   0.30714   0.26378   0.00000  Uiso   1.00
N230   N     0.27753   0.63737   0.40558   0.00000  Uiso   1.00
C231   C     0.36968   0.92007   0.83263   0.00000  Uiso   1.00
C232   C     0.40661   0.91997   0.70509   0.00000  Uiso   1.00
C233   C     0.47807   0.90148   0.67896   0.00000  Uiso   1.00
C234   C     0.50158   0.90483   0.55638   0.00000  Uiso   1.00
C235   C     0.56596   0.90143   0.37248   0.00000  Uiso   1.00
C236   C     0.29739   0.88792   0.81819   0.00000  Uiso   1.00
C237   C     0.27702   0.84249   0.88718   0.00000  Uiso   1.00
C238   C     0.20858   0.81887   0.85981   0.00000  Uiso   1.00
C239   C     0.10337   0.76574   0.85157   0.00000  Uiso   1.00
C240   C     0.34657   0.97893   0.85726   0.00000  Uiso   1.00
C241   C     0.36753   0.01003   0.95911   0.00000  Uiso   1.00
C242   C     0.34047   0.06303   0.96466   0.00000  Uiso   1.00
C243   C     0.31161   0.15121   0.01708   0.00000  Uiso   1.00
C244   C     0.28435   0.95889   0.66140   0.00000  Uiso   1.00
C245   C     0.36026   0.94105   0.61209   0.00000  Uiso   1.00
C246   C     0.38367   0.94443   0.48951   0.00000  Uiso   1.00
C247   C     0.45515   0.92596   0.46320   0.00000  Uiso   1.00
C248   C     0.25104   0.90900   0.72519   0.00000  Uiso   1.00
C249   C     0.18261   0.88544   0.69773   0.00000  Uiso   1.00
C250   C     0.16215   0.83999   0.76664   0.00000  Uiso   1.00
C251   C     0.30022   0.00002   0.76426   0.00000  Uiso   1.00
C252   C     0.27312   0.05298   0.76966   0.00000  Uiso   1.00
C253   C     0.29404   0.08415   0.87149   0.00000  Uiso   1.00
H254   H     0.40576   0.90365   0.90504   0.00000  Uiso   1.00
H255   H     0.51392   0.88516   0.75096   0.00000  Uiso   1.00
H256   H     0.31290   0.82619   0.95915   0.00000  Uiso   1.00
H257   H     0.40339   0.99370   0.03106   0.00000  Uiso   1.00
H258   H     0.61339   0.87394   0.53911   0.00000  Uiso   1.00
H259   H     0.18950   0.74960   0.97812   0.00000  Uiso   1.00
H260   H     0.38033   0.10283   0.12977   0.00000  Uiso   1.00
H261   H     0.24827   0.97531   0.58899   0.00000  Uiso   1.00
H262   H     0.34779   0.96075   0.41756   0.00000  Uiso   1.00
H263   H     0.14676   0.90177   0.62575   0.00000  Uiso   1.00
H264   H     0.23726   0.06928   0.69767   0.00000  Uiso   1.00
H265   H     0.47855   0.93529   0.26851   0.00000  Uiso   1.00
H266   H     0.05466   0.81094   0.70752   0.00000  Uiso   1.00
H267   H     0.24549   0.16417   0.85917   0.00000  Uiso   1.00
O268   O     0.61427   0.89373   0.29673   0.00000  Uiso   1.00
O269   O     0.05814   0.73060   0.87271   0.00000  Uiso   1.00
O270   O     0.30850   0.19403   0.07167   0.00000  Uiso   1.00
N271   N     0.56800   0.89039   0.49895   0.00000  Uiso   1.00
N272   N     0.17170   0.77413   0.90939   0.00000  Uiso   1.00
N273   N     0.35009   0.10436   0.05119   0.00000  Uiso   1.00
N274   N     0.49544   0.92340   0.35334   0.00000  Uiso   1.00
N275   N     0.09914   0.80714   0.76378   0.00000  Uiso   1.00
N276   N     0.27753   0.13737   0.90558   0.00000  Uiso   1.00
C277   C     0.63032   0.57993   0.33263   0.00000  Uiso   1.00
C278   C     0.59339   0.58003   0.20509   0.00000  Uiso   1.00
C279   C     0.52193   0.59852   0.17896   0.00000  Uiso   1.00
C280   C     0.49842   0.59517   0.05638   0.00000  Uiso   1.00
C281   C     0.43404   0.59857   0.87248   0.00000  Uiso   1.00
C282   C     0.70261   0.61208   0.31819   0.00000  Uiso   1.00
C283   C     0.72298   0.65751   0.38718   0.00000  Uiso   1.00
C284   C     0.79142   0.68113   0.35981   0.00000  Uiso   1.00
C285   C     0.89663   0.73426   0.35157   0.00000  Uiso   1.00
C286   C     0.65343   0.52107   0.35726   0.00000  Uiso   1.00
C287   C     0.63247   0.48997   0.45911   0.00000  Uiso   1.00
C288   C     0.65953   0.43697   0.46466   0.00000  Uiso   1.00
C289   C     0.68839   0.34879   0.51708   0.00000  Uiso   1.00
C290   C     0.71565   0.54111   0.16140   0.00000  Uiso   1.00
C291   C     0.63974   0.55895   0.11209   0.00000  Uiso   1.00
C292   C     0.61633   0.55557   0.98951   0.00000  Uiso   1.00
C293   C     0.54485   0.57404   0.96320   0.00000  Uiso   1.00
C294   C     0.74896   0.59100   0.22519   0.00000  Uiso   1.00
C295   C     0.81739   0.61456   0.19773   0.00000  Uiso   1.00
C296   C     0.83785   0.66001   0.26664   0.00000  Uiso   1.00
C297   C     0.69978   0.49998   0.26426   0.00000  Uiso   1.00
C298   C     0.72688   0.44702   0.26966   0.00000  Uiso   1.00
C299   C     0.70596   0.41585   0.37149   0.00000  Uiso   1.00
H300   H     0.59424   0.59635   0.40504   0.00000  Uiso   1.00
H301   H     0.48608   0.61484   0.25096   0.00000  Uiso   1.00
H302   H     0.68710   0.67381   0.45915   0.00000  Uiso   1.00
H303   H     0.59661   0.50630   0.53106   0.00000  Uiso   1.00
H304   H     0.38661   0.62606   0.03911   0.00000  Uiso   1.00
H305   H     0.81050   0.75040   0.47812   0.00000  Uiso   1.00
H306   H     0.61967   0.39717   0.62977   0.00000  Uiso   1.00
H307   H     0.75173   0.52469   0.08899   0.00000  Uiso   1.00
H308   H     0.65221   0.53925   0.91756   0.00000  Uiso   1.00
H309   H     0.85324   0.59823   0.12575   0.00000  Uiso   1.00
H310   H     0.76274   0.43072   0.19767   0.00000  Uiso   1.00
H311   H     0.52145   0.56471   0.76851   0.00000  Uiso   1.00
H312   H     0.94534   0.68906   0.20752   0.00000  Uiso   1.00
H313   H     0.75451   0.33583   0.35917   0.00000  Uiso   1.00
O314   O     0.38573   0.60627   0.79673   0.00000  Uiso   1.00
O315   O     0.94186   0.76940   0.37271   0.00000  Uiso   1.00
O316   O     0.69150   0.30597   0.57167   0.00000  Uiso   1.00
N317   N     0.43200   0.60961   0.99895   0.00000  Uiso   1.00
N318   N     0.82830   0.72587   0.40939   0.00000  Uiso   1.00
N319   N     0.64991   0.39564   0.55119   0.00000  Uiso   1.00
N320   N     0.50456   0.57660   0.85334   0.00000  Uiso   1.00
N321   N     0.90086   0.69286   0.26378   0.00000  Uiso   1.00
N322   N     0.72247   0.36263   0.40558   0.00000  Uiso   1.00
C323   C     0.63032   0.07993   0.83263   0.00000  Uiso   1.00
C324   C     0.59339   0.08003   0.70509   0.00000  Uiso   1.00
C325   C     0.52193   0.09852   0.67896   0.00000  Uiso   1.00
C326   C     0.49842   0.09517   0.55638   0.00000  Uiso   1.00
C327   C     0.43404   0.09857   0.37248   0.00000  Uiso   1.00
C328   C     0.70261   0.11208   0.81819   0.00000  Uiso   1.00
C329   C     0.72298   0.15751   0.88718   0.00000  Uiso   1.00
C330   C     0.79142   0.18113   0.85981   0.00000  Uiso   1.00
C331   C     0.89663   0.23426   0.85157   0.00000  Uiso   1.00
C332   C     0.65343   0.02107   0.85726   0.00000  Uiso   1.00
C333   C     0.63247   0.98997   0.95911   0.00000  Uiso   1.00
C334   C     0.65953   0.93697   0.96466   0.00000  Uiso   1.00
C335   C     0.68839   0.84879   0.01708   0.00000  Uiso   1.00
C336   C     0.71565   0.04111   0.66140   0.00000  Uiso   1.00
C337   C     0.63974   0.05895   0.61209   0.00000  Uiso   1.00
C338   C     0.61633   0.05557   0.48951   0.00000  Uiso   1.00
C339   C     0.54485   0.07404   0.46320   0.00000  Uiso   1.00
C340   C     0.74896   0.09100   0.72519   0.00000  Uiso   1.00
C341   C     0.81739   0.11456   0.69773   0.00000  Uiso   1.00
C342   C     0.83785   0.16001   0.76664   0.00000  Uiso   1.00
C343   C     0.69978   0.99998   0.76426   0.00000  Uiso   1.00
C344   C     0.72688   0.94702   0.76966   0.00000  Uiso   1.00
C345   C     0.70596   0.91585   0.87149   0.00000  Uiso   1.00
H346   H     0.59424   0.09635   0.90504   0.00000  Uiso   1.00
H347   H     0.48608   0.11484   0.75096   0.00000  Uiso   1.00
H348   H     0.68710   0.17381   0.95915   0.00000  Uiso   1.00
H349   H     0.59661   0.00630   0.03106   0.00000  Uiso   1.00
H350   H     0.38661   0.12606   0.53911   0.00000  Uiso   1.00
H351   H     0.81050   0.25040   0.97812   0.00000  Uiso   1.00
H352   H     0.61967   0.89717   0.12977   0.00000  Uiso   1.00
H353   H     0.75173   0.02469   0.58899   0.00000  Uiso   1.00
H354   H     0.65221   0.03925   0.41756   0.00000  Uiso   1.00
H355   H     0.85324   0.09823   0.62575   0.00000  Uiso   1.00
H356   H     0.76274   0.93072   0.69767   0.00000  Uiso   1.00
H357   H     0.52145   0.06471   0.26851   0.00000  Uiso   1.00
H358   H     0.94534   0.18906   0.70752   0.00000  Uiso   1.00
H359   H     0.75451   0.83583   0.85917   0.00000  Uiso   1.00
O360   O     0.38573   0.10627   0.29673   0.00000  Uiso   1.00
O361   O     0.94186   0.26940   0.87271   0.00000  Uiso   1.00
O362   O     0.69150   0.80597   0.07167   0.00000  Uiso   1.00
N363   N     0.43200   0.10961   0.49895   0.00000  Uiso   1.00
N364   N     0.82830   0.22587   0.90939   0.00000  Uiso   1.00
N365   N     0.64991   0.89564   0.05119   0.00000  Uiso   1.00
N366   N     0.50456   0.07660   0.35334   0.00000  Uiso   1.00
N367   N     0.90086   0.19286   0.76378   0.00000  Uiso   1.00
N368   N     0.72247   0.86263   0.90558   0.00000  Uiso   1.00
