data_job_01969
_audit_creation_date              2018-12-19
_audit_creation_method            'Materials Studio'
_symmetry_space_group_name_H-M    'P1'
_symmetry_Int_Tables_number       1
_symmetry_cell_setting            triclinic
loop_
_symmetry_equiv_pos_as_xyz
  x,y,z
_cell_length_a                    13.4151
_cell_length_b                    11.7243
_cell_length_c                    15.1908
_cell_angle_alpha                 90.0000
_cell_angle_beta                  90.0000
_cell_angle_gamma                 90.0000
loop_
_atom_site_label
_atom_site_type_symbol
_atom_site_fract_x
_atom_site_fract_y
_atom_site_fract_z
_atom_site_U_iso_or_equiv
_atom_site_adp_type
_atom_site_occupancy
C1     C     0.26890   0.89410   0.00641   0.00000  Uiso   1.00
C2     C     0.28408   0.80756   0.08014   0.00000  Uiso   1.00
C3     C     0.21830   0.78675   0.14879   0.00000  Uiso   1.00
C4     C     0.24581   0.70417   0.20963   0.00000  Uiso   1.00
C5     C     0.25570   0.57889   0.32530   0.00000  Uiso   1.00
C6     C     0.35961   0.97242   0.00886   0.00000  Uiso   1.00
C7     C     0.35733   0.09023   0.01757   0.00000  Uiso   1.00
C8     C     0.44842   0.14643   0.01838   0.00000  Uiso   1.00
C9     C     0.57557   0.27712   0.02332   0.00000  Uiso   1.00
C10    C     0.27667   0.82718   0.92061   0.00000  Uiso   1.00
C11    C     0.20466   0.82288   0.85510   0.00000  Uiso   1.00
C12    C     0.22593   0.75682   0.78160   0.00000  Uiso   1.00
C13    C     0.22429   0.66200   0.64952   0.00000  Uiso   1.00
C14    C     0.43474   0.78445   0.99237   0.00000  Uiso   1.00
C15    C     0.37416   0.74800   0.07251   0.00000  Uiso   1.00
C16    C     0.40178   0.66543   0.13326   0.00000  Uiso   1.00
C17    C     0.33605   0.64449   0.20199   0.00000  Uiso   1.00
C18    C     0.44968   0.91287   0.00123   0.00000  Uiso   1.00
C19    C     0.54081   0.96891   0.00203   0.00000  Uiso   1.00
C20    C     0.53866   0.08677   0.01074   0.00000  Uiso   1.00
C21    C     0.36674   0.76762   0.91298   0.00000  Uiso   1.00
C22    C     0.38813   0.70156   0.83957   0.00000  Uiso   1.00
C23    C     0.31617   0.69716   0.77396   0.00000  Uiso   1.00
H24    H     0.19878   0.94047   0.01235   0.00000  Uiso   1.00
H25    H     0.14860   0.83286   0.15468   0.00000  Uiso   1.00
H26    H     0.28761   0.13630   0.02346   0.00000  Uiso   1.00
H27    H     0.13496   0.86898   0.86103   0.00000  Uiso   1.00
H28    H     0.13271   0.68732   0.30913   0.00000  Uiso   1.00
H29    H     0.42581   0.32713   0.03242   0.00000  Uiso   1.00
H30    H     0.10393   0.76346   0.68989   0.00000  Uiso   1.00
H31    H     0.50487   0.73808   0.98643   0.00000  Uiso   1.00
H32    H     0.47149   0.61935   0.12734   0.00000  Uiso   1.00
H33    H     0.61050   0.92279   0.99612   0.00000  Uiso   1.00
H34    H     0.45785   0.65548   0.83369   0.00000  Uiso   1.00
H35    H     0.39478   0.51403   0.28694   0.00000  Uiso   1.00
H36    H     0.68788   0.15385   0.01023   0.00000  Uiso   1.00
H37    H     0.36599   0.59017   0.66770   0.00000  Uiso   1.00
O38    O     0.23628   0.52626   0.39122   0.00000  Uiso   1.00
O39    O     0.62081   0.36567   0.02817   0.00000  Uiso   1.00
O40    O     0.19850   0.62613   0.57878   0.00000  Uiso   1.00
N41    N     0.19896   0.66281   0.28456   0.00000  Uiso   1.00
N42    N     0.47300   0.26100   0.02587   0.00000  Uiso   1.00
N43    N     0.17207   0.73403   0.70562   0.00000  Uiso   1.00
N44    N     0.33998   0.56957   0.27262   0.00000  Uiso   1.00
N45    N     0.61401   0.16775   0.01393   0.00000  Uiso   1.00
N46    N     0.31308   0.64079   0.69368   0.00000  Uiso   1.00
C47    C     0.23110   0.10590   0.50641   0.00000  Uiso   1.00
C48    C     0.21592   0.19244   0.58014   0.00000  Uiso   1.00
C49    C     0.28170   0.21325   0.64879   0.00000  Uiso   1.00
C50    C     0.25419   0.29583   0.70963   0.00000  Uiso   1.00
C51    C     0.24430   0.42111   0.82530   0.00000  Uiso   1.00
C52    C     0.14039   0.02758   0.50886   0.00000  Uiso   1.00
C53    C     0.14267   0.90977   0.51757   0.00000  Uiso   1.00
C54    C     0.05158   0.85357   0.51838   0.00000  Uiso   1.00
C55    C     0.92443   0.72288   0.52332   0.00000  Uiso   1.00
C56    C     0.22333   0.17282   0.42061   0.00000  Uiso   1.00
C57    C     0.29534   0.17712   0.35510   0.00000  Uiso   1.00
C58    C     0.27407   0.24318   0.28160   0.00000  Uiso   1.00
C59    C     0.27571   0.33800   0.14952   0.00000  Uiso   1.00
C60    C     0.06526   0.21555   0.49237   0.00000  Uiso   1.00
C61    C     0.12584   0.25200   0.57251   0.00000  Uiso   1.00
C62    C     0.09822   0.33457   0.63326   0.00000  Uiso   1.00
C63    C     0.16395   0.35551   0.70199   0.00000  Uiso   1.00
C64    C     0.05032   0.08713   0.50123   0.00000  Uiso   1.00
C65    C     0.95919   0.03109   0.50203   0.00000  Uiso   1.00
C66    C     0.96134   0.91323   0.51074   0.00000  Uiso   1.00
C67    C     0.13326   0.23238   0.41298   0.00000  Uiso   1.00
C68    C     0.11187   0.29844   0.33957   0.00000  Uiso   1.00
C69    C     0.18383   0.30284   0.27396   0.00000  Uiso   1.00
H70    H     0.30122   0.05953   0.51235   0.00000  Uiso   1.00
H71    H     0.35140   0.16714   0.65468   0.00000  Uiso   1.00
H72    H     0.21239   0.86370   0.52346   0.00000  Uiso   1.00
H73    H     0.36504   0.13102   0.36103   0.00000  Uiso   1.00
H74    H     0.36729   0.31268   0.80913   0.00000  Uiso   1.00
H75    H     0.07419   0.67287   0.53242   0.00000  Uiso   1.00
H76    H     0.39607   0.23654   0.18989   0.00000  Uiso   1.00
H77    H     0.99513   0.26192   0.48643   0.00000  Uiso   1.00
H78    H     0.02851   0.38065   0.62734   0.00000  Uiso   1.00
H79    H     0.88950   0.07721   0.49612   0.00000  Uiso   1.00
H80    H     0.04215   0.34452   0.33369   0.00000  Uiso   1.00
H81    H     0.10522   0.48597   0.78694   0.00000  Uiso   1.00
H82    H     0.81212   0.84615   0.51023   0.00000  Uiso   1.00
H83    H     0.13401   0.40983   0.16770   0.00000  Uiso   1.00
O84    O     0.26372   0.47374   0.89122   0.00000  Uiso   1.00
O85    O     0.87919   0.63433   0.52817   0.00000  Uiso   1.00
O86    O     0.30150   0.37387   0.07878   0.00000  Uiso   1.00
N87    N     0.30104   0.33719   0.78456   0.00000  Uiso   1.00
N88    N     0.02700   0.73900   0.52587   0.00000  Uiso   1.00
N89    N     0.32793   0.26597   0.20562   0.00000  Uiso   1.00
N90    N     0.16002   0.43043   0.77262   0.00000  Uiso   1.00
N91    N     0.88599   0.83225   0.51393   0.00000  Uiso   1.00
N92    N     0.18692   0.35921   0.19368   0.00000  Uiso   1.00
C93    C     0.73110   0.39410   0.49359   0.00000  Uiso   1.00
C94    C     0.71592   0.30756   0.41986   0.00000  Uiso   1.00
C95    C     0.78170   0.28675   0.35121   0.00000  Uiso   1.00
C96    C     0.75419   0.20417   0.29037   0.00000  Uiso   1.00
C97    C     0.74430   0.07889   0.17470   0.00000  Uiso   1.00
C98    C     0.64039   0.47242   0.49114   0.00000  Uiso   1.00
C99    C     0.64267   0.59023   0.48243   0.00000  Uiso   1.00
C100   C     0.55158   0.64643   0.48162   0.00000  Uiso   1.00
C101   C     0.42443   0.77712   0.47668   0.00000  Uiso   1.00
C102   C     0.72333   0.32718   0.57939   0.00000  Uiso   1.00
C103   C     0.79534   0.32288   0.64490   0.00000  Uiso   1.00
C104   C     0.77407   0.25682   0.71840   0.00000  Uiso   1.00
C105   C     0.77571   0.16200   0.85048   0.00000  Uiso   1.00
C106   C     0.56526   0.28445   0.50763   0.00000  Uiso   1.00
C107   C     0.62584   0.24800   0.42749   0.00000  Uiso   1.00
C108   C     0.59822   0.16543   0.36674   0.00000  Uiso   1.00
C109   C     0.66395   0.14449   0.29801   0.00000  Uiso   1.00
C110   C     0.55032   0.41287   0.49877   0.00000  Uiso   1.00
C111   C     0.45919   0.46891   0.49797   0.00000  Uiso   1.00
C112   C     0.46134   0.58677   0.48926   0.00000  Uiso   1.00
C113   C     0.63326   0.26762   0.58702   0.00000  Uiso   1.00
C114   C     0.61187   0.20156   0.66043   0.00000  Uiso   1.00
C115   C     0.68383   0.19716   0.72604   0.00000  Uiso   1.00
H116   H     0.80122   0.44047   0.48765   0.00000  Uiso   1.00
H117   H     0.85140   0.33286   0.34532   0.00000  Uiso   1.00
H118   H     0.71239   0.63630   0.47654   0.00000  Uiso   1.00
H119   H     0.86504   0.36898   0.63897   0.00000  Uiso   1.00
H120   H     0.86729   0.18732   0.19087   0.00000  Uiso   1.00
H121   H     0.57419   0.82713   0.46758   0.00000  Uiso   1.00
H122   H     0.89607   0.26346   0.81011   0.00000  Uiso   1.00
H123   H     0.49513   0.23808   0.51357   0.00000  Uiso   1.00
H124   H     0.52851   0.11935   0.37266   0.00000  Uiso   1.00
H125   H     0.38950   0.42279   0.50388   0.00000  Uiso   1.00
H126   H     0.54215   0.15548   0.66631   0.00000  Uiso   1.00
H127   H     0.60522   0.01403   0.21306   0.00000  Uiso   1.00
H128   H     0.31212   0.65385   0.48977   0.00000  Uiso   1.00
H129   H     0.63401   0.09017   0.83230   0.00000  Uiso   1.00
O130   O     0.76372   0.02626   0.10878   0.00000  Uiso   1.00
O131   O     0.37919   0.86567   0.47183   0.00000  Uiso   1.00
O132   O     0.80150   0.12613   0.92122   0.00000  Uiso   1.00
N133   N     0.80104   0.16281   0.21544   0.00000  Uiso   1.00
N134   N     0.52700   0.76100   0.47413   0.00000  Uiso   1.00
N135   N     0.82793   0.23403   0.79438   0.00000  Uiso   1.00
N136   N     0.66002   0.06957   0.22738   0.00000  Uiso   1.00
N137   N     0.38599   0.66775   0.48607   0.00000  Uiso   1.00
N138   N     0.68692   0.14079   0.80632   0.00000  Uiso   1.00
C139   C     0.76890   0.60590   0.99359   0.00000  Uiso   1.00
C140   C     0.78408   0.69244   0.91986   0.00000  Uiso   1.00
C141   C     0.71830   0.71325   0.85121   0.00000  Uiso   1.00
C142   C     0.74581   0.79583   0.79037   0.00000  Uiso   1.00
C143   C     0.75570   0.92111   0.67470   0.00000  Uiso   1.00
C144   C     0.85961   0.52758   0.99114   0.00000  Uiso   1.00
C145   C     0.85733   0.40977   0.98243   0.00000  Uiso   1.00
C146   C     0.94842   0.35357   0.98162   0.00000  Uiso   1.00
C147   C     0.07557   0.22288   0.97668   0.00000  Uiso   1.00
C148   C     0.77667   0.67282   0.07939   0.00000  Uiso   1.00
C149   C     0.70466   0.67712   0.14490   0.00000  Uiso   1.00
C150   C     0.72593   0.74318   0.21840   0.00000  Uiso   1.00
C151   C     0.72429   0.83800   0.35048   0.00000  Uiso   1.00
C152   C     0.93474   0.71555   0.00763   0.00000  Uiso   1.00
C153   C     0.87416   0.75200   0.92749   0.00000  Uiso   1.00
C154   C     0.90178   0.83457   0.86674   0.00000  Uiso   1.00
C155   C     0.83605   0.85551   0.79801   0.00000  Uiso   1.00
C156   C     0.94968   0.58713   0.99877   0.00000  Uiso   1.00
C157   C     0.04081   0.53109   0.99797   0.00000  Uiso   1.00
C158   C     0.03866   0.41323   0.98926   0.00000  Uiso   1.00
C159   C     0.86674   0.73238   0.08702   0.00000  Uiso   1.00
C160   C     0.88813   0.79844   0.16043   0.00000  Uiso   1.00
C161   C     0.81617   0.80284   0.22604   0.00000  Uiso   1.00
H162   H     0.69878   0.55953   0.98765   0.00000  Uiso   1.00
H163   H     0.64860   0.66714   0.84532   0.00000  Uiso   1.00
H164   H     0.78761   0.36370   0.97654   0.00000  Uiso   1.00
H165   H     0.63496   0.63102   0.13897   0.00000  Uiso   1.00
H166   H     0.63271   0.81268   0.69087   0.00000  Uiso   1.00
H167   H     0.92581   0.17287   0.96758   0.00000  Uiso   1.00
H168   H     0.60393   0.73654   0.31011   0.00000  Uiso   1.00
H169   H     0.00487   0.76192   0.01357   0.00000  Uiso   1.00
H170   H     0.97149   0.88065   0.87266   0.00000  Uiso   1.00
H171   H     0.11050   0.57721   0.00388   0.00000  Uiso   1.00
H172   H     0.95785   0.84452   0.16631   0.00000  Uiso   1.00
H173   H     0.89478   0.98597   0.71306   0.00000  Uiso   1.00
H174   H     0.18788   0.34615   0.98977   0.00000  Uiso   1.00
H175   H     0.86599   0.90983   0.33230   0.00000  Uiso   1.00
O176   O     0.73628   0.97374   0.60878   0.00000  Uiso   1.00
O177   O     0.12081   0.13433   0.97183   0.00000  Uiso   1.00
O178   O     0.69850   0.87387   0.42122   0.00000  Uiso   1.00
N179   N     0.69896   0.83719   0.71544   0.00000  Uiso   1.00
N180   N     0.97300   0.23900   0.97413   0.00000  Uiso   1.00
N181   N     0.67207   0.76597   0.29438   0.00000  Uiso   1.00
N182   N     0.83998   0.93043   0.72738   0.00000  Uiso   1.00
N183   N     0.11401   0.33225   0.98607   0.00000  Uiso   1.00
N184   N     0.81308   0.85921   0.30632   0.00000  Uiso   1.00
