data_job_03028
_audit_creation_date              2018-12-19
_audit_creation_method            'Materials Studio'
_symmetry_space_group_name_H-M    'P1'
_symmetry_Int_Tables_number       1
_symmetry_cell_setting            triclinic
loop_
_symmetry_equiv_pos_as_xyz
  x,y,z
_cell_length_a                    12.6170
_cell_length_b                    12.6170
_cell_length_c                    46.0621
_cell_angle_alpha                 90.0000
_cell_angle_beta                  90.0000
_cell_angle_gamma                 120.0000
loop_
_atom_site_label
_atom_site_type_symbol
_atom_site_fract_x
_atom_site_fract_y
_atom_site_fract_z
_atom_site_U_iso_or_equiv
_atom_site_adp_type
_atom_site_occupancy
C1     C     0.94307   0.33128   0.28990   0.00000  Uiso   1.00
C2     C     0.85373   0.26459   0.26519   0.00000  Uiso   1.00
C3     C     0.72724   0.20917   0.26683   0.00000  Uiso   1.00
C4     C     0.66166   0.15288   0.24183   0.00000  Uiso   1.00
C5     C     0.51398   0.04939   0.20737   0.00000  Uiso   1.00
C6     C     0.01894   0.26860   0.29344   0.00000  Uiso   1.00
C7     C     0.03136   0.21658   0.31883   0.00000  Uiso   1.00
C8     C     0.10488   0.16369   0.31762   0.00000  Uiso   1.00
C9     C     0.21376   0.06651   0.32703   0.00000  Uiso   1.00
C10    C     0.03087   0.45965   0.27864   0.00000  Uiso   1.00
C11    C     0.05335   0.56828   0.29160   0.00000  Uiso   1.00
C12    C     0.13693   0.67624   0.27792   0.00000  Uiso   1.00
C13    C     0.26433   0.87571   0.26436   0.00000  Uiso   1.00
C14    C     0.05155   0.32985   0.24259   0.00000  Uiso   1.00
C15    C     0.91266   0.26381   0.23949   0.00000  Uiso   1.00
C16    C     0.84726   0.20759   0.21448   0.00000  Uiso   1.00
C17    C     0.72068   0.15211   0.21608   0.00000  Uiso   1.00
C18    C     0.07787   0.26782   0.26775   0.00000  Uiso   1.00
C19    C     0.15138   0.21500   0.26649   0.00000  Uiso   1.00
C20    C     0.16391   0.16291   0.29187   0.00000  Uiso   1.00
C21    C     0.08980   0.45888   0.25294   0.00000  Uiso   1.00
C22    C     0.17337   0.56670   0.23925   0.00000  Uiso   1.00
C23    C     0.19596   0.67547   0.25218   0.00000  Uiso   1.00
H24    H     0.89720   0.33188   0.30991   0.00000  Uiso   1.00
H25    H     0.68167   0.20978   0.28672   0.00000  Uiso   1.00
H26    H     0.98576   0.21721   0.33872   0.00000  Uiso   1.00
H27    H     0.00774   0.56885   0.31148   0.00000  Uiso   1.00
H28    H     0.46870   0.07404   0.24968   0.00000  Uiso   1.00
H29    H     0.10993   0.08973   0.35933   0.00000  Uiso   1.00
H30    H     0.15627   0.83123   0.30189   0.00000  Uiso   1.00
H31    H     0.09743   0.32924   0.22258   0.00000  Uiso   1.00
H32    H     0.89288   0.20701   0.19460   0.00000  Uiso   1.00
H33    H     0.19697   0.21442   0.24660   0.00000  Uiso   1.00
H34    H     0.21895   0.56606   0.21936   0.00000  Uiso   1.00
H35    H     0.64012   0.07178   0.17491   0.00000  Uiso   1.00
H36    H     0.28136   0.08747   0.28456   0.00000  Uiso   1.00
H37    H     0.32770   0.82897   0.22713   0.00000  Uiso   1.00
O38    O     0.41624   0.99251   0.19547   0.00000  Uiso   1.00
O39    O     0.25752   0.01311   0.33932   0.00000  Uiso   1.00
O40    O     0.31832   0.98594   0.26397   0.00000  Uiso   1.00
N41    N     0.53712   0.09030   0.23592   0.00000  Uiso   1.00
N42    N     0.13661   0.10495   0.33844   0.00000  Uiso   1.00
N43    N     0.17996   0.79820   0.28474   0.00000  Uiso   1.00
N44    N     0.62936   0.08909   0.19569   0.00000  Uiso   1.00
N45    N     0.22885   0.10374   0.29820   0.00000  Uiso   1.00
N46    N     0.27221   0.79698   0.24451   0.00000  Uiso   1.00
C47    C     0.66872   0.61179   0.62323   0.00000  Uiso   1.00
C48    C     0.73541   0.58915   0.59852   0.00000  Uiso   1.00
C49    C     0.79083   0.51806   0.60016   0.00000  Uiso   1.00
C50    C     0.84712   0.50878   0.57516   0.00000  Uiso   1.00
C51    C     0.95061   0.46458   0.54071   0.00000  Uiso   1.00
C52    C     0.73140   0.75034   0.62678   0.00000  Uiso   1.00
C53    C     0.78342   0.81478   0.65217   0.00000  Uiso   1.00
C54    C     0.83631   0.94119   0.65095   0.00000  Uiso   1.00
C55    C     0.93349   0.14724   0.66036   0.00000  Uiso   1.00
C56    C     0.54035   0.57122   0.61198   0.00000  Uiso   1.00
C57    C     0.43172   0.48507   0.62493   0.00000  Uiso   1.00
C58    C     0.32376   0.46069   0.61125   0.00000  Uiso   1.00
C59    C     0.12429   0.38863   0.59769   0.00000  Uiso   1.00
C60    C     0.67015   0.72170   0.57592   0.00000  Uiso   1.00
C61    C     0.73619   0.64885   0.57283   0.00000  Uiso   1.00
C62    C     0.79241   0.63967   0.54782   0.00000  Uiso   1.00
C63    C     0.84789   0.56858   0.54941   0.00000  Uiso   1.00
C64    C     0.73218   0.81004   0.60108   0.00000  Uiso   1.00
C65    C     0.78500   0.93638   0.59982   0.00000  Uiso   1.00
C66    C     0.83709   0.00100   0.62521   0.00000  Uiso   1.00
C67    C     0.54112   0.63092   0.58628   0.00000  Uiso   1.00
C68    C     0.43330   0.60667   0.57258   0.00000  Uiso   1.00
C69    C     0.32453   0.52050   0.58551   0.00000  Uiso   1.00
H70    H     0.66812   0.56532   0.64324   0.00000  Uiso   1.00
H71    H     0.79022   0.47189   0.62005   0.00000  Uiso   1.00
H72    H     0.78279   0.76856   0.67205   0.00000  Uiso   1.00
H73    H     0.43115   0.43889   0.64481   0.00000  Uiso   1.00
H74    H     0.92596   0.39466   0.58301   0.00000  Uiso   1.00
H75    H     0.91027   0.02020   0.69266   0.00000  Uiso   1.00
H76    H     0.16877   0.32504   0.63523   0.00000  Uiso   1.00
H77    H     0.67076   0.76819   0.55591   0.00000  Uiso   1.00
H78    H     0.79299   0.68588   0.52793   0.00000  Uiso   1.00
H79    H     0.78558   0.98255   0.57993   0.00000  Uiso   1.00
H80    H     0.43394   0.65289   0.55270   0.00000  Uiso   1.00
H81    H     0.92822   0.56835   0.50825   0.00000  Uiso   1.00
H82    H     0.91253   0.19389   0.61790   0.00000  Uiso   1.00
H83    H     0.17103   0.49873   0.56046   0.00000  Uiso   1.00
O84    O     0.00749   0.42373   0.52880   0.00000  Uiso   1.00
O85    O     0.98689   0.24441   0.67266   0.00000  Uiso   1.00
O86    O     0.01406   0.33238   0.59730   0.00000  Uiso   1.00
N87    N     0.90970   0.44681   0.56926   0.00000  Uiso   1.00
N88    N     0.89505   0.03166   0.67177   0.00000  Uiso   1.00
N89    N     0.20180   0.38177   0.61808   0.00000  Uiso   1.00
N90    N     0.91091   0.54027   0.52902   0.00000  Uiso   1.00
N91    N     0.89626   0.12512   0.63154   0.00000  Uiso   1.00
N92    N     0.20302   0.47522   0.57785   0.00000  Uiso   1.00
C93    C     0.38821   0.05693   0.95657   0.00000  Uiso   1.00
C94    C     0.41085   0.14627   0.93186   0.00000  Uiso   1.00
C95    C     0.48194   0.27276   0.93349   0.00000  Uiso   1.00
C96    C     0.49122   0.33834   0.90849   0.00000  Uiso   1.00
C97    C     0.53542   0.48602   0.87404   0.00000  Uiso   1.00
C98    C     0.24966   0.98106   0.96011   0.00000  Uiso   1.00
C99    C     0.18522   0.96864   0.98550   0.00000  Uiso   1.00
C100   C     0.05881   0.89512   0.98428   0.00000  Uiso   1.00
C101   C     0.85276   0.78624   0.99370   0.00000  Uiso   1.00
C102   C     0.42878   0.96913   0.94531   0.00000  Uiso   1.00
C103   C     0.51493   0.94665   0.95826   0.00000  Uiso   1.00
C104   C     0.53931   0.86307   0.94459   0.00000  Uiso   1.00
C105   C     0.61137   0.73567   0.93102   0.00000  Uiso   1.00
C106   C     0.27830   0.94845   0.90925   0.00000  Uiso   1.00
C107   C     0.35115   0.08734   0.90616   0.00000  Uiso   1.00
C108   C     0.36033   0.15274   0.88115   0.00000  Uiso   1.00
C109   C     0.43142   0.27932   0.88275   0.00000  Uiso   1.00
C110   C     0.18996   0.92213   0.93441   0.00000  Uiso   1.00
C111   C     0.06362   0.84862   0.93316   0.00000  Uiso   1.00
C112   C     0.99900   0.83609   0.95854   0.00000  Uiso   1.00
C113   C     0.36908   0.91020   0.91961   0.00000  Uiso   1.00
C114   C     0.39333   0.82663   0.90592   0.00000  Uiso   1.00
C115   C     0.47950   0.80404   0.91884   0.00000  Uiso   1.00
H116   H     0.43468   0.10280   0.97657   0.00000  Uiso   1.00
H117   H     0.52811   0.31833   0.95339   0.00000  Uiso   1.00
H118   H     0.23144   0.01424   0.00539   0.00000  Uiso   1.00
H119   H     0.56111   0.99226   0.97815   0.00000  Uiso   1.00
H120   H     0.60534   0.53130   0.91635   0.00000  Uiso   1.00
H121   H     0.97980   0.89007   0.02599   0.00000  Uiso   1.00
H122   H     0.67496   0.84373   0.96856   0.00000  Uiso   1.00
H123   H     0.23181   0.90257   0.88925   0.00000  Uiso   1.00
H124   H     0.31412   0.10712   0.86127   0.00000  Uiso   1.00
H125   H     0.01745   0.80303   0.91327   0.00000  Uiso   1.00
H126   H     0.34711   0.78105   0.88603   0.00000  Uiso   1.00
H127   H     0.43165   0.35988   0.84158   0.00000  Uiso   1.00
H128   H     0.80611   0.71864   0.95123   0.00000  Uiso   1.00
H129   H     0.50127   0.67230   0.89379   0.00000  Uiso   1.00
O130   O     0.57627   0.58376   0.86214   0.00000  Uiso   1.00
O131   O     0.75559   0.74248   0.00599   0.00000  Uiso   1.00
O132   O     0.66762   0.68168   0.93064   0.00000  Uiso   1.00
N133   N     0.55319   0.46288   0.90259   0.00000  Uiso   1.00
N134   N     0.96834   0.86339   0.00510   0.00000  Uiso   1.00
N135   N     0.61823   0.82004   0.95141   0.00000  Uiso   1.00
N136   N     0.45973   0.37064   0.86236   0.00000  Uiso   1.00
N137   N     0.87488   0.77115   0.96487   0.00000  Uiso   1.00
N138   N     0.52478   0.72779   0.91118   0.00000  Uiso   1.00
C139   C     0.66872   0.05693   0.37677   0.00000  Uiso   1.00
C140   C     0.73541   0.14627   0.40148   0.00000  Uiso   1.00
C141   C     0.79083   0.27276   0.39984   0.00000  Uiso   1.00
C142   C     0.84712   0.33834   0.42484   0.00000  Uiso   1.00
C143   C     0.95061   0.48602   0.45929   0.00000  Uiso   1.00
C144   C     0.73140   0.98106   0.37322   0.00000  Uiso   1.00
C145   C     0.78342   0.96864   0.34783   0.00000  Uiso   1.00
C146   C     0.83631   0.89512   0.34905   0.00000  Uiso   1.00
C147   C     0.93349   0.78624   0.33964   0.00000  Uiso   1.00
C148   C     0.54035   0.96913   0.38802   0.00000  Uiso   1.00
C149   C     0.43172   0.94665   0.37507   0.00000  Uiso   1.00
C150   C     0.32376   0.86307   0.38875   0.00000  Uiso   1.00
C151   C     0.12429   0.73567   0.40231   0.00000  Uiso   1.00
C152   C     0.67015   0.94845   0.42408   0.00000  Uiso   1.00
C153   C     0.73619   0.08734   0.42717   0.00000  Uiso   1.00
C154   C     0.79241   0.15274   0.45218   0.00000  Uiso   1.00
C155   C     0.84789   0.27932   0.45059   0.00000  Uiso   1.00
C156   C     0.73218   0.92213   0.39892   0.00000  Uiso   1.00
C157   C     0.78500   0.84862   0.40018   0.00000  Uiso   1.00
C158   C     0.83709   0.83609   0.37479   0.00000  Uiso   1.00
C159   C     0.54112   0.91020   0.41372   0.00000  Uiso   1.00
C160   C     0.43330   0.82663   0.42742   0.00000  Uiso   1.00
C161   C     0.32453   0.80404   0.41449   0.00000  Uiso   1.00
H162   H     0.66812   0.10280   0.35676   0.00000  Uiso   1.00
H163   H     0.79022   0.31833   0.37995   0.00000  Uiso   1.00
H164   H     0.78279   0.01424   0.32795   0.00000  Uiso   1.00
H165   H     0.43115   0.99226   0.35519   0.00000  Uiso   1.00
H166   H     0.92596   0.53130   0.41699   0.00000  Uiso   1.00
H167   H     0.91027   0.89007   0.30734   0.00000  Uiso   1.00
H168   H     0.16877   0.84373   0.36477   0.00000  Uiso   1.00
H169   H     0.67076   0.90257   0.44409   0.00000  Uiso   1.00
H170   H     0.79299   0.10712   0.47207   0.00000  Uiso   1.00
H171   H     0.78558   0.80303   0.42007   0.00000  Uiso   1.00
H172   H     0.43394   0.78105   0.44730   0.00000  Uiso   1.00
H173   H     0.92822   0.35988   0.49175   0.00000  Uiso   1.00
H174   H     0.91253   0.71864   0.38210   0.00000  Uiso   1.00
H175   H     0.17103   0.67230   0.43954   0.00000  Uiso   1.00
O176   O     0.00749   0.58376   0.47120   0.00000  Uiso   1.00
O177   O     0.98689   0.74248   0.32734   0.00000  Uiso   1.00
O178   O     0.01406   0.68168   0.40270   0.00000  Uiso   1.00
N179   N     0.90970   0.46288   0.43074   0.00000  Uiso   1.00
N180   N     0.89505   0.86339   0.32823   0.00000  Uiso   1.00
N181   N     0.20180   0.82004   0.38192   0.00000  Uiso   1.00
N182   N     0.91091   0.37064   0.47098   0.00000  Uiso   1.00
N183   N     0.89626   0.77115   0.36846   0.00000  Uiso   1.00
N184   N     0.20302   0.72779   0.42215   0.00000  Uiso   1.00
C185   C     0.38821   0.33128   0.04343   0.00000  Uiso   1.00
C186   C     0.41085   0.26459   0.06814   0.00000  Uiso   1.00
C187   C     0.48194   0.20917   0.06651   0.00000  Uiso   1.00
C188   C     0.49122   0.15288   0.09151   0.00000  Uiso   1.00
C189   C     0.53542   0.04939   0.12596   0.00000  Uiso   1.00
C190   C     0.24966   0.26860   0.03989   0.00000  Uiso   1.00
C191   C     0.18522   0.21658   0.01450   0.00000  Uiso   1.00
C192   C     0.05881   0.16369   0.01572   0.00000  Uiso   1.00
C193   C     0.85276   0.06651   0.00630   0.00000  Uiso   1.00
C194   C     0.42878   0.45965   0.05469   0.00000  Uiso   1.00
C195   C     0.51493   0.56828   0.04174   0.00000  Uiso   1.00
C196   C     0.53931   0.67624   0.05541   0.00000  Uiso   1.00
C197   C     0.61137   0.87571   0.06898   0.00000  Uiso   1.00
C198   C     0.27830   0.32985   0.09075   0.00000  Uiso   1.00
C199   C     0.35115   0.26381   0.09384   0.00000  Uiso   1.00
C200   C     0.36033   0.20759   0.11885   0.00000  Uiso   1.00
C201   C     0.43142   0.15211   0.11725   0.00000  Uiso   1.00
C202   C     0.18996   0.26782   0.06559   0.00000  Uiso   1.00
C203   C     0.06362   0.21500   0.06684   0.00000  Uiso   1.00
C204   C     0.99900   0.16291   0.04146   0.00000  Uiso   1.00
C205   C     0.36908   0.45888   0.08039   0.00000  Uiso   1.00
C206   C     0.39333   0.56670   0.09408   0.00000  Uiso   1.00
C207   C     0.47950   0.67547   0.08116   0.00000  Uiso   1.00
H208   H     0.43468   0.33188   0.02343   0.00000  Uiso   1.00
H209   H     0.52811   0.20978   0.04661   0.00000  Uiso   1.00
H210   H     0.23144   0.21721   0.99461   0.00000  Uiso   1.00
H211   H     0.56111   0.56885   0.02185   0.00000  Uiso   1.00
H212   H     0.60534   0.07404   0.08365   0.00000  Uiso   1.00
H213   H     0.97980   0.08973   0.97401   0.00000  Uiso   1.00
H214   H     0.67496   0.83123   0.03144   0.00000  Uiso   1.00
H215   H     0.23181   0.32924   0.11075   0.00000  Uiso   1.00
H216   H     0.31412   0.20701   0.13873   0.00000  Uiso   1.00
H217   H     0.01745   0.21442   0.08673   0.00000  Uiso   1.00
H218   H     0.34711   0.56606   0.11397   0.00000  Uiso   1.00
H219   H     0.43165   0.07178   0.15842   0.00000  Uiso   1.00
H220   H     0.80611   0.08747   0.04877   0.00000  Uiso   1.00
H221   H     0.50127   0.82897   0.10621   0.00000  Uiso   1.00
O222   O     0.57627   0.99251   0.13786   0.00000  Uiso   1.00
O223   O     0.75559   0.01311   0.99401   0.00000  Uiso   1.00
O224   O     0.66762   0.98594   0.06936   0.00000  Uiso   1.00
N225   N     0.55319   0.09030   0.09741   0.00000  Uiso   1.00
N226   N     0.96834   0.10495   0.99490   0.00000  Uiso   1.00
N227   N     0.61823   0.79820   0.04859   0.00000  Uiso   1.00
N228   N     0.45973   0.08909   0.13764   0.00000  Uiso   1.00
N229   N     0.87488   0.10374   0.03513   0.00000  Uiso   1.00
N230   N     0.52478   0.79698   0.08882   0.00000  Uiso   1.00
C231   C     0.94307   0.61179   0.71010   0.00000  Uiso   1.00
C232   C     0.85373   0.58915   0.73481   0.00000  Uiso   1.00
C233   C     0.72724   0.51806   0.73317   0.00000  Uiso   1.00
C234   C     0.66166   0.50878   0.75817   0.00000  Uiso   1.00
C235   C     0.51398   0.46458   0.79263   0.00000  Uiso   1.00
C236   C     0.01894   0.75034   0.70656   0.00000  Uiso   1.00
C237   C     0.03136   0.81478   0.68117   0.00000  Uiso   1.00
C238   C     0.10488   0.94119   0.68238   0.00000  Uiso   1.00
C239   C     0.21376   0.14724   0.67297   0.00000  Uiso   1.00
C240   C     0.03087   0.57122   0.72136   0.00000  Uiso   1.00
C241   C     0.05335   0.48507   0.70840   0.00000  Uiso   1.00
C242   C     0.13693   0.46069   0.72208   0.00000  Uiso   1.00
C243   C     0.26433   0.38863   0.73564   0.00000  Uiso   1.00
C244   C     0.05155   0.72170   0.75741   0.00000  Uiso   1.00
C245   C     0.91266   0.64885   0.76051   0.00000  Uiso   1.00
C246   C     0.84726   0.63967   0.78552   0.00000  Uiso   1.00
C247   C     0.72068   0.56858   0.78392   0.00000  Uiso   1.00
C248   C     0.07787   0.81004   0.73225   0.00000  Uiso   1.00
C249   C     0.15138   0.93638   0.73351   0.00000  Uiso   1.00
C250   C     0.16391   0.00100   0.70813   0.00000  Uiso   1.00
C251   C     0.08980   0.63092   0.74706   0.00000  Uiso   1.00
C252   C     0.17337   0.60667   0.76075   0.00000  Uiso   1.00
C253   C     0.19596   0.52050   0.74782   0.00000  Uiso   1.00
H254   H     0.89720   0.56532   0.69009   0.00000  Uiso   1.00
H255   H     0.68167   0.47189   0.71328   0.00000  Uiso   1.00
H256   H     0.98576   0.76856   0.66128   0.00000  Uiso   1.00
H257   H     0.00774   0.43889   0.68852   0.00000  Uiso   1.00
H258   H     0.46870   0.39466   0.75032   0.00000  Uiso   1.00
H259   H     0.10993   0.02020   0.64067   0.00000  Uiso   1.00
H260   H     0.15627   0.32504   0.69811   0.00000  Uiso   1.00
H261   H     0.09743   0.76819   0.77742   0.00000  Uiso   1.00
H262   H     0.89288   0.68588   0.80540   0.00000  Uiso   1.00
H263   H     0.19697   0.98255   0.75340   0.00000  Uiso   1.00
H264   H     0.21895   0.65289   0.78064   0.00000  Uiso   1.00
H265   H     0.64012   0.56835   0.82509   0.00000  Uiso   1.00
H266   H     0.28136   0.19389   0.71544   0.00000  Uiso   1.00
H267   H     0.32770   0.49873   0.77287   0.00000  Uiso   1.00
O268   O     0.41624   0.42373   0.80453   0.00000  Uiso   1.00
O269   O     0.25752   0.24441   0.66068   0.00000  Uiso   1.00
O270   O     0.31832   0.33238   0.73603   0.00000  Uiso   1.00
N271   N     0.53712   0.44681   0.76408   0.00000  Uiso   1.00
N272   N     0.13661   0.03166   0.66156   0.00000  Uiso   1.00
N273   N     0.17996   0.38177   0.71526   0.00000  Uiso   1.00
N274   N     0.62936   0.54027   0.80431   0.00000  Uiso   1.00
N275   N     0.22885   0.12512   0.70180   0.00000  Uiso   1.00
N276   N     0.27221   0.47522   0.75549   0.00000  Uiso   1.00
