data_job_02431
_audit_creation_date              2018-12-19
_audit_creation_method            'Materials Studio'
_symmetry_space_group_name_H-M    'P1'
_symmetry_Int_Tables_number       1
_symmetry_cell_setting            triclinic
loop_
_symmetry_equiv_pos_as_xyz
  x,y,z
_cell_length_a                    16.7881
_cell_length_b                    16.7881
_cell_length_c                    9.9399
_cell_angle_alpha                 90.0000
_cell_angle_beta                  90.0000
_cell_angle_gamma                 90.0000
loop_
_atom_site_label
_atom_site_type_symbol
_atom_site_fract_x
_atom_site_fract_y
_atom_site_fract_z
_atom_site_U_iso_or_equiv
_atom_site_adp_type
_atom_site_occupancy
C1     C     0.30518   0.81781   0.94993   0.00000  Uiso   1.00
C2     C     0.32238   0.88518   0.85121   0.00000  Uiso   1.00
C3     C     0.31544   0.88069   0.71230   0.00000  Uiso   1.00
C4     C     0.33395   0.94887   0.63968   0.00000  Uiso   1.00
C5     C     0.35697   0.04280   0.47664   0.00000  Uiso   1.00
C6     C     0.38116   0.80667   0.03186   0.00000  Uiso   1.00
C7     C     0.42363   0.73616   0.04484   0.00000  Uiso   1.00
C8     C     0.49162   0.73824   0.12430   0.00000  Uiso   1.00
C9     C     0.60585   0.71026   0.24180   0.00000  Uiso   1.00
C10    C     0.24299   0.85002   0.04761   0.00000  Uiso   1.00
C11    C     0.16929   0.81596   0.07386   0.00000  Uiso   1.00
C12    C     0.12095   0.85454   0.16661   0.00000  Uiso   1.00
C13    C     0.02065   0.89388   0.30856   0.00000  Uiso   1.00
C14    C     0.35040   0.94687   0.06798   0.00000  Uiso   1.00
C15    C     0.34695   0.95528   0.91534   0.00000  Uiso   1.00
C16    C     0.36547   0.02348   0.84291   0.00000  Uiso   1.00
C17    C     0.35855   0.01910   0.70391   0.00000  Uiso   1.00
C18    C     0.40572   0.87676   0.09598   0.00000  Uiso   1.00
C19    C     0.47366   0.87895   0.17545   0.00000  Uiso   1.00
C20    C     0.51622   0.80846   0.18854   0.00000  Uiso   1.00
C21    C     0.26755   0.92013   0.11173   0.00000  Uiso   1.00
C22    C     0.21932   0.95876   0.20447   0.00000  Uiso   1.00
C23    C     0.14555   0.92476   0.23085   0.00000  Uiso   1.00
H24    H     0.28606   0.76323   0.90001   0.00000  Uiso   1.00
H25    H     0.29644   0.82643   0.66271   0.00000  Uiso   1.00
H26    H     0.40460   0.68192   0.99522   0.00000  Uiso   1.00
H27    H     0.15030   0.76172   0.02422   0.00000  Uiso   1.00
H28    H     0.31880   0.92740   0.42790   0.00000  Uiso   1.00
H29    H     0.54686   0.62268   0.12904   0.00000  Uiso   1.00
H30    H     0.01061   0.79094   0.19021   0.00000  Uiso   1.00
H31    H     0.36952   0.00145   0.11791   0.00000  Uiso   1.00
H32    H     0.38448   0.07772   0.89256   0.00000  Uiso   1.00
H33    H     0.49265   0.93320   0.22506   0.00000  Uiso   1.00
H34    H     0.23834   0.01300   0.25407   0.00000  Uiso   1.00
H35    H     0.39026   0.13136   0.61445   0.00000  Uiso   1.00
H36    H     0.61832   0.82663   0.31559   0.00000  Uiso   1.00
H37    H     0.08207   0.99490   0.37676   0.00000  Uiso   1.00
O38    O     0.36289   0.07525   0.36900   0.00000  Uiso   1.00
O39    O     0.66209   0.67546   0.28889   0.00000  Uiso   1.00
O40    O     0.95854   0.89622   0.36913   0.00000  Uiso   1.00
N41    N     0.33355   0.96494   0.50273   0.00000  Uiso   1.00
N42    N     0.54678   0.68005   0.15824   0.00000  Uiso   1.00
N43    N     0.04544   0.83735   0.21545   0.00000  Uiso   1.00
N44    N     0.37200   0.07469   0.60311   0.00000  Uiso   1.00
N45    N     0.58523   0.78979   0.25862   0.00000  Uiso   1.00
N46    N     0.08389   0.94709   0.31584   0.00000  Uiso   1.00
C47    C     0.69482   0.18219   0.94993   0.00000  Uiso   1.00
C48    C     0.67762   0.11482   0.85121   0.00000  Uiso   1.00
C49    C     0.68456   0.11931   0.71230   0.00000  Uiso   1.00
C50    C     0.66605   0.05113   0.63968   0.00000  Uiso   1.00
C51    C     0.64303   0.95720   0.47664   0.00000  Uiso   1.00
C52    C     0.61884   0.19333   0.03186   0.00000  Uiso   1.00
C53    C     0.57637   0.26384   0.04484   0.00000  Uiso   1.00
C54    C     0.50838   0.26176   0.12430   0.00000  Uiso   1.00
C55    C     0.39415   0.28974   0.24180   0.00000  Uiso   1.00
C56    C     0.75701   0.14998   0.04761   0.00000  Uiso   1.00
C57    C     0.83071   0.18404   0.07386   0.00000  Uiso   1.00
C58    C     0.87905   0.14546   0.16661   0.00000  Uiso   1.00
C59    C     0.97935   0.10612   0.30856   0.00000  Uiso   1.00
C60    C     0.64960   0.05313   0.06798   0.00000  Uiso   1.00
C61    C     0.65305   0.04472   0.91534   0.00000  Uiso   1.00
C62    C     0.63453   0.97652   0.84291   0.00000  Uiso   1.00
C63    C     0.64145   0.98090   0.70391   0.00000  Uiso   1.00
C64    C     0.59428   0.12324   0.09598   0.00000  Uiso   1.00
C65    C     0.52634   0.12105   0.17545   0.00000  Uiso   1.00
C66    C     0.48378   0.19154   0.18854   0.00000  Uiso   1.00
C67    C     0.73245   0.07987   0.11173   0.00000  Uiso   1.00
C68    C     0.78068   0.04124   0.20447   0.00000  Uiso   1.00
C69    C     0.85445   0.07524   0.23085   0.00000  Uiso   1.00
H70    H     0.71394   0.23677   0.90001   0.00000  Uiso   1.00
H71    H     0.70356   0.17357   0.66271   0.00000  Uiso   1.00
H72    H     0.59540   0.31808   0.99522   0.00000  Uiso   1.00
H73    H     0.84970   0.23828   0.02422   0.00000  Uiso   1.00
H74    H     0.68120   0.07260   0.42790   0.00000  Uiso   1.00
H75    H     0.45314   0.37732   0.12904   0.00000  Uiso   1.00
H76    H     0.98939   0.20906   0.19021   0.00000  Uiso   1.00
H77    H     0.63048   0.99855   0.11791   0.00000  Uiso   1.00
H78    H     0.61552   0.92228   0.89256   0.00000  Uiso   1.00
H79    H     0.50735   0.06680   0.22506   0.00000  Uiso   1.00
H80    H     0.76166   0.98700   0.25407   0.00000  Uiso   1.00
H81    H     0.60974   0.86864   0.61445   0.00000  Uiso   1.00
H82    H     0.38168   0.17337   0.31559   0.00000  Uiso   1.00
H83    H     0.91793   0.00510   0.37676   0.00000  Uiso   1.00
O84    O     0.63711   0.92475   0.36900   0.00000  Uiso   1.00
O85    O     0.33791   0.32454   0.28889   0.00000  Uiso   1.00
O86    O     0.04146   0.10378   0.36913   0.00000  Uiso   1.00
N87    N     0.66645   0.03506   0.50273   0.00000  Uiso   1.00
N88    N     0.45322   0.31995   0.15824   0.00000  Uiso   1.00
N89    N     0.95456   0.16265   0.21545   0.00000  Uiso   1.00
N90    N     0.62800   0.92531   0.60311   0.00000  Uiso   1.00
N91    N     0.41477   0.21021   0.25862   0.00000  Uiso   1.00
N92    N     0.91611   0.05291   0.31584   0.00000  Uiso   1.00
C93    C     0.81781   0.69482   0.05007   0.00000  Uiso   1.00
C94    C     0.88518   0.67762   0.14879   0.00000  Uiso   1.00
C95    C     0.88069   0.68456   0.28770   0.00000  Uiso   1.00
C96    C     0.94887   0.66605   0.36032   0.00000  Uiso   1.00
C97    C     0.04280   0.64303   0.52336   0.00000  Uiso   1.00
C98    C     0.80667   0.61884   0.96814   0.00000  Uiso   1.00
C99    C     0.73616   0.57637   0.95516   0.00000  Uiso   1.00
C100   C     0.73824   0.50838   0.87570   0.00000  Uiso   1.00
C101   C     0.71026   0.39415   0.75820   0.00000  Uiso   1.00
C102   C     0.85002   0.75701   0.95239   0.00000  Uiso   1.00
C103   C     0.81596   0.83071   0.92614   0.00000  Uiso   1.00
C104   C     0.85454   0.87905   0.83339   0.00000  Uiso   1.00
C105   C     0.89388   0.97935   0.69144   0.00000  Uiso   1.00
C106   C     0.94687   0.64960   0.93202   0.00000  Uiso   1.00
C107   C     0.95528   0.65305   0.08466   0.00000  Uiso   1.00
C108   C     0.02348   0.63453   0.15709   0.00000  Uiso   1.00
C109   C     0.01910   0.64145   0.29609   0.00000  Uiso   1.00
C110   C     0.87676   0.59428   0.90402   0.00000  Uiso   1.00
C111   C     0.87895   0.52634   0.82455   0.00000  Uiso   1.00
C112   C     0.80846   0.48378   0.81146   0.00000  Uiso   1.00
C113   C     0.92013   0.73245   0.88827   0.00000  Uiso   1.00
C114   C     0.95876   0.78068   0.79553   0.00000  Uiso   1.00
C115   C     0.92476   0.85445   0.76915   0.00000  Uiso   1.00
H116   H     0.76323   0.71394   0.09999   0.00000  Uiso   1.00
H117   H     0.82643   0.70356   0.33729   0.00000  Uiso   1.00
H118   H     0.68192   0.59540   0.00478   0.00000  Uiso   1.00
H119   H     0.76172   0.84970   0.97578   0.00000  Uiso   1.00
H120   H     0.92740   0.68120   0.57210   0.00000  Uiso   1.00
H121   H     0.62268   0.45314   0.87096   0.00000  Uiso   1.00
H122   H     0.79094   0.98939   0.80979   0.00000  Uiso   1.00
H123   H     0.00145   0.63048   0.88209   0.00000  Uiso   1.00
H124   H     0.07772   0.61552   0.10744   0.00000  Uiso   1.00
H125   H     0.93320   0.50735   0.77494   0.00000  Uiso   1.00
H126   H     0.01300   0.76166   0.74593   0.00000  Uiso   1.00
H127   H     0.13136   0.60974   0.38555   0.00000  Uiso   1.00
H128   H     0.82663   0.38168   0.68441   0.00000  Uiso   1.00
H129   H     0.99490   0.91793   0.62324   0.00000  Uiso   1.00
O130   O     0.07525   0.63711   0.63100   0.00000  Uiso   1.00
O131   O     0.67546   0.33791   0.71111   0.00000  Uiso   1.00
O132   O     0.89622   0.04146   0.63087   0.00000  Uiso   1.00
N133   N     0.96494   0.66645   0.49727   0.00000  Uiso   1.00
N134   N     0.68005   0.45322   0.84176   0.00000  Uiso   1.00
N135   N     0.83735   0.95456   0.78455   0.00000  Uiso   1.00
N136   N     0.07469   0.62800   0.39689   0.00000  Uiso   1.00
N137   N     0.78979   0.41477   0.74138   0.00000  Uiso   1.00
N138   N     0.94709   0.91611   0.68416   0.00000  Uiso   1.00
C139   C     0.18219   0.30518   0.05007   0.00000  Uiso   1.00
C140   C     0.11482   0.32238   0.14879   0.00000  Uiso   1.00
C141   C     0.11931   0.31544   0.28770   0.00000  Uiso   1.00
C142   C     0.05113   0.33395   0.36032   0.00000  Uiso   1.00
C143   C     0.95720   0.35697   0.52336   0.00000  Uiso   1.00
C144   C     0.19333   0.38116   0.96814   0.00000  Uiso   1.00
C145   C     0.26384   0.42363   0.95516   0.00000  Uiso   1.00
C146   C     0.26176   0.49162   0.87570   0.00000  Uiso   1.00
C147   C     0.28974   0.60585   0.75820   0.00000  Uiso   1.00
C148   C     0.14998   0.24299   0.95239   0.00000  Uiso   1.00
C149   C     0.18404   0.16929   0.92614   0.00000  Uiso   1.00
C150   C     0.14546   0.12095   0.83339   0.00000  Uiso   1.00
C151   C     0.10612   0.02065   0.69144   0.00000  Uiso   1.00
C152   C     0.05313   0.35040   0.93202   0.00000  Uiso   1.00
C153   C     0.04472   0.34695   0.08466   0.00000  Uiso   1.00
C154   C     0.97652   0.36547   0.15709   0.00000  Uiso   1.00
C155   C     0.98090   0.35855   0.29609   0.00000  Uiso   1.00
C156   C     0.12324   0.40572   0.90402   0.00000  Uiso   1.00
C157   C     0.12105   0.47366   0.82455   0.00000  Uiso   1.00
C158   C     0.19154   0.51622   0.81146   0.00000  Uiso   1.00
C159   C     0.07987   0.26755   0.88827   0.00000  Uiso   1.00
C160   C     0.04124   0.21932   0.79553   0.00000  Uiso   1.00
C161   C     0.07524   0.14555   0.76915   0.00000  Uiso   1.00
H162   H     0.23677   0.28606   0.09999   0.00000  Uiso   1.00
H163   H     0.17357   0.29644   0.33729   0.00000  Uiso   1.00
H164   H     0.31808   0.40460   0.00478   0.00000  Uiso   1.00
H165   H     0.23828   0.15030   0.97578   0.00000  Uiso   1.00
H166   H     0.07260   0.31880   0.57210   0.00000  Uiso   1.00
H167   H     0.37732   0.54686   0.87096   0.00000  Uiso   1.00
H168   H     0.20906   0.01061   0.80979   0.00000  Uiso   1.00
H169   H     0.99855   0.36952   0.88209   0.00000  Uiso   1.00
H170   H     0.92228   0.38448   0.10744   0.00000  Uiso   1.00
H171   H     0.06680   0.49265   0.77494   0.00000  Uiso   1.00
H172   H     0.98700   0.23834   0.74593   0.00000  Uiso   1.00
H173   H     0.86864   0.39026   0.38555   0.00000  Uiso   1.00
H174   H     0.17337   0.61832   0.68441   0.00000  Uiso   1.00
H175   H     0.00510   0.08207   0.62324   0.00000  Uiso   1.00
O176   O     0.92475   0.36289   0.63100   0.00000  Uiso   1.00
O177   O     0.32454   0.66209   0.71111   0.00000  Uiso   1.00
O178   O     0.10378   0.95854   0.63087   0.00000  Uiso   1.00
N179   N     0.03506   0.33355   0.49727   0.00000  Uiso   1.00
N180   N     0.31995   0.54678   0.84176   0.00000  Uiso   1.00
N181   N     0.16265   0.04544   0.78455   0.00000  Uiso   1.00
N182   N     0.92531   0.37200   0.39689   0.00000  Uiso   1.00
N183   N     0.21021   0.58523   0.74138   0.00000  Uiso   1.00
N184   N     0.05291   0.08389   0.68416   0.00000  Uiso   1.00
