data_job_05514
_audit_creation_date              2018-12-19
_audit_creation_method            'Materials Studio'
_symmetry_space_group_name_H-M    'P1'
_symmetry_Int_Tables_number       1
_symmetry_cell_setting            triclinic
loop_
_symmetry_equiv_pos_as_xyz
  x,y,z
_cell_length_a                    20.5944
_cell_length_b                    8.0414
_cell_length_c                    21.6665
_cell_angle_alpha                 90.0000
_cell_angle_beta                  62.3466
_cell_angle_gamma                 90.0000
loop_
_atom_site_label
_atom_site_type_symbol
_atom_site_fract_x
_atom_site_fract_y
_atom_site_fract_z
_atom_site_U_iso_or_equiv
_atom_site_adp_type
_atom_site_occupancy
C1     C     0.81668   0.90894   0.51682   0.00000  Uiso   1.00
C2     C     0.75738   0.85006   0.49845   0.00000  Uiso   1.00
C3     C     0.69403   0.93656   0.51132   0.00000  Uiso   1.00
C4     C     0.64662   0.86148   0.49056   0.00000  Uiso   1.00
C5     C     0.55217   0.79375   0.46701   0.00000  Uiso   1.00
C6     C     0.82397   0.77284   0.56223   0.00000  Uiso   1.00
C7     C     0.81663   0.79443   0.62872   0.00000  Uiso   1.00
C8     C     0.82530   0.65434   0.66164   0.00000  Uiso   1.00
C9     C     0.83429   0.46675   0.73709   0.00000  Uiso   1.00
C10    C     0.88819   0.90712   0.44884   0.00000  Uiso   1.00
C11    C     0.93486   0.04160   0.41999   0.00000  Uiso   1.00
C12    C     0.99760   0.01456   0.35745   0.00000  Uiso   1.00
C13    C     0.10630   0.03546   0.25683   0.00000  Uiso   1.00
C14    C     0.84514   0.62178   0.45706   0.00000  Uiso   1.00
C15    C     0.77284   0.69409   0.46599   0.00000  Uiso   1.00
C16    C     0.72552   0.61886   0.44520   0.00000  Uiso   1.00
C17    C     0.66211   0.70524   0.45804   0.00000  Uiso   1.00
C18    C     0.83943   0.61687   0.52977   0.00000  Uiso   1.00
C19    C     0.84812   0.47672   0.56260   0.00000  Uiso   1.00
C20    C     0.84078   0.49809   0.62913   0.00000  Uiso   1.00
C21    C     0.90365   0.75115   0.41637   0.00000  Uiso   1.00
C22    C     0.96634   0.72390   0.35387   0.00000  Uiso   1.00
C23    C     0.01309   0.85831   0.32493   0.00000  Uiso   1.00
H24    H     0.80465   0.03036   0.54210   0.00000  Uiso   1.00
H25    H     0.68208   0.05726   0.53645   0.00000  Uiso   1.00
H26    H     0.80467   0.91514   0.65382   0.00000  Uiso   1.00
H27    H     0.92288   0.16228   0.44512   0.00000  Uiso   1.00
H28    H     0.55300   0.01826   0.51590   0.00000  Uiso   1.00
H29    H     0.81151   0.71862   0.76338   0.00000  Uiso   1.00
H30    H     0.06077   0.23976   0.32330   0.00000  Uiso   1.00
H31    H     0.85718   0.50035   0.43179   0.00000  Uiso   1.00
H32    H     0.73750   0.49816   0.42008   0.00000  Uiso   1.00
H33    H     0.86008   0.35605   0.53746   0.00000  Uiso   1.00
H34    H     0.97829   0.60318   0.32876   0.00000  Uiso   1.00
H35    H     0.59797   0.56447   0.42146   0.00000  Uiso   1.00
H36    H     0.85649   0.26484   0.66894   0.00000  Uiso   1.00
H37    H     0.10575   0.78597   0.22885   0.00000  Uiso   1.00
O38    O     0.49580   0.79947   0.46299   0.00000  Uiso   1.00
O39    O     0.83497   0.40636   0.78767   0.00000  Uiso   1.00
O40    O     0.16199   0.09008   0.21029   0.00000  Uiso   1.00
N41    N     0.58002   0.91178   0.49526   0.00000  Uiso   1.00
N42    N     0.82170   0.63163   0.72665   0.00000  Uiso   1.00
N43    N     0.05475   0.11884   0.31522   0.00000  Uiso   1.00
N44    N     0.60422   0.66760   0.44444   0.00000  Uiso   1.00
N45    N     0.84590   0.38745   0.67583   0.00000  Uiso   1.00
N46    N     0.07895   0.87466   0.26440   0.00000  Uiso   1.00
C47    C     0.18332   0.90894   0.98318   0.00000  Uiso   1.00
C48    C     0.24262   0.85006   0.00155   0.00000  Uiso   1.00
C49    C     0.30597   0.93656   0.98868   0.00000  Uiso   1.00
C50    C     0.35338   0.86148   0.00944   0.00000  Uiso   1.00
C51    C     0.44783   0.79375   0.03299   0.00000  Uiso   1.00
C52    C     0.17603   0.77284   0.93777   0.00000  Uiso   1.00
C53    C     0.18337   0.79443   0.87128   0.00000  Uiso   1.00
C54    C     0.17470   0.65434   0.83836   0.00000  Uiso   1.00
C55    C     0.16571   0.46675   0.76291   0.00000  Uiso   1.00
C56    C     0.11181   0.90712   0.05116   0.00000  Uiso   1.00
C57    C     0.06514   0.04160   0.08001   0.00000  Uiso   1.00
C58    C     0.00240   0.01456   0.14255   0.00000  Uiso   1.00
C59    C     0.89370   0.03546   0.24317   0.00000  Uiso   1.00
C60    C     0.15486   0.62178   0.04294   0.00000  Uiso   1.00
C61    C     0.22716   0.69409   0.03401   0.00000  Uiso   1.00
C62    C     0.27448   0.61886   0.05480   0.00000  Uiso   1.00
C63    C     0.33789   0.70524   0.04196   0.00000  Uiso   1.00
C64    C     0.16057   0.61687   0.97023   0.00000  Uiso   1.00
C65    C     0.15188   0.47672   0.93740   0.00000  Uiso   1.00
C66    C     0.15922   0.49809   0.87087   0.00000  Uiso   1.00
C67    C     0.09635   0.75115   0.08363   0.00000  Uiso   1.00
C68    C     0.03366   0.72390   0.14613   0.00000  Uiso   1.00
C69    C     0.98691   0.85831   0.17507   0.00000  Uiso   1.00
H70    H     0.19535   0.03036   0.95790   0.00000  Uiso   1.00
H71    H     0.31792   0.05726   0.96355   0.00000  Uiso   1.00
H72    H     0.19533   0.91514   0.84618   0.00000  Uiso   1.00
H73    H     0.07712   0.16228   0.05488   0.00000  Uiso   1.00
H74    H     0.44700   0.01826   0.98410   0.00000  Uiso   1.00
H75    H     0.18849   0.71862   0.73662   0.00000  Uiso   1.00
H76    H     0.93923   0.23976   0.17670   0.00000  Uiso   1.00
H77    H     0.14282   0.50035   0.06821   0.00000  Uiso   1.00
H78    H     0.26250   0.49816   0.07992   0.00000  Uiso   1.00
H79    H     0.13992   0.35605   0.96254   0.00000  Uiso   1.00
H80    H     0.02171   0.60318   0.17124   0.00000  Uiso   1.00
H81    H     0.40203   0.56447   0.07854   0.00000  Uiso   1.00
H82    H     0.14351   0.26484   0.83106   0.00000  Uiso   1.00
H83    H     0.89425   0.78597   0.27115   0.00000  Uiso   1.00
O84    O     0.50420   0.79947   0.03701   0.00000  Uiso   1.00
O85    O     0.16503   0.40636   0.71233   0.00000  Uiso   1.00
O86    O     0.83801   0.09008   0.28971   0.00000  Uiso   1.00
N87    N     0.41998   0.91178   0.00474   0.00000  Uiso   1.00
N88    N     0.17830   0.63163   0.77335   0.00000  Uiso   1.00
N89    N     0.94525   0.11884   0.18478   0.00000  Uiso   1.00
N90    N     0.39578   0.66760   0.05556   0.00000  Uiso   1.00
N91    N     0.15410   0.38745   0.82417   0.00000  Uiso   1.00
N92    N     0.92105   0.87466   0.23560   0.00000  Uiso   1.00
C93    C     0.18332   0.09106   0.48318   0.00000  Uiso   1.00
C94    C     0.24262   0.14994   0.50155   0.00000  Uiso   1.00
C95    C     0.30597   0.06344   0.48868   0.00000  Uiso   1.00
C96    C     0.35338   0.13852   0.50944   0.00000  Uiso   1.00
C97    C     0.44783   0.20625   0.53299   0.00000  Uiso   1.00
C98    C     0.17603   0.22716   0.43777   0.00000  Uiso   1.00
C99    C     0.18337   0.20557   0.37128   0.00000  Uiso   1.00
C100   C     0.17470   0.34566   0.33836   0.00000  Uiso   1.00
C101   C     0.16571   0.53325   0.26291   0.00000  Uiso   1.00
C102   C     0.11181   0.09288   0.55116   0.00000  Uiso   1.00
C103   C     0.06514   0.95840   0.58001   0.00000  Uiso   1.00
C104   C     0.00240   0.98544   0.64255   0.00000  Uiso   1.00
C105   C     0.89370   0.96454   0.74317   0.00000  Uiso   1.00
C106   C     0.15486   0.37822   0.54294   0.00000  Uiso   1.00
C107   C     0.22716   0.30591   0.53401   0.00000  Uiso   1.00
C108   C     0.27448   0.38114   0.55480   0.00000  Uiso   1.00
C109   C     0.33789   0.29476   0.54196   0.00000  Uiso   1.00
C110   C     0.16057   0.38313   0.47023   0.00000  Uiso   1.00
C111   C     0.15188   0.52328   0.43740   0.00000  Uiso   1.00
C112   C     0.15922   0.50191   0.37087   0.00000  Uiso   1.00
C113   C     0.09635   0.24885   0.58363   0.00000  Uiso   1.00
C114   C     0.03366   0.27610   0.64613   0.00000  Uiso   1.00
C115   C     0.98691   0.14169   0.67507   0.00000  Uiso   1.00
H116   H     0.19535   0.96964   0.45790   0.00000  Uiso   1.00
H117   H     0.31792   0.94274   0.46355   0.00000  Uiso   1.00
H118   H     0.19533   0.08486   0.34618   0.00000  Uiso   1.00
H119   H     0.07712   0.83772   0.55488   0.00000  Uiso   1.00
H120   H     0.44700   0.98174   0.48410   0.00000  Uiso   1.00
H121   H     0.18849   0.28138   0.23662   0.00000  Uiso   1.00
H122   H     0.93923   0.76024   0.67670   0.00000  Uiso   1.00
H123   H     0.14282   0.49965   0.56821   0.00000  Uiso   1.00
H124   H     0.26250   0.50184   0.57992   0.00000  Uiso   1.00
H125   H     0.13992   0.64395   0.46254   0.00000  Uiso   1.00
H126   H     0.02171   0.39682   0.67124   0.00000  Uiso   1.00
H127   H     0.40203   0.43553   0.57854   0.00000  Uiso   1.00
H128   H     0.14351   0.73516   0.33106   0.00000  Uiso   1.00
H129   H     0.89425   0.21403   0.77115   0.00000  Uiso   1.00
O130   O     0.50420   0.20053   0.53701   0.00000  Uiso   1.00
O131   O     0.16503   0.59364   0.21233   0.00000  Uiso   1.00
O132   O     0.83801   0.90992   0.78971   0.00000  Uiso   1.00
N133   N     0.41998   0.08822   0.50474   0.00000  Uiso   1.00
N134   N     0.17830   0.36837   0.27335   0.00000  Uiso   1.00
N135   N     0.94525   0.88116   0.68478   0.00000  Uiso   1.00
N136   N     0.39578   0.33240   0.55556   0.00000  Uiso   1.00
N137   N     0.15410   0.61255   0.32417   0.00000  Uiso   1.00
N138   N     0.92105   0.12534   0.73560   0.00000  Uiso   1.00
C139   C     0.81668   0.09106   0.01682   0.00000  Uiso   1.00
C140   C     0.75738   0.14994   0.99845   0.00000  Uiso   1.00
C141   C     0.69403   0.06344   0.01132   0.00000  Uiso   1.00
C142   C     0.64662   0.13852   0.99056   0.00000  Uiso   1.00
C143   C     0.55217   0.20625   0.96701   0.00000  Uiso   1.00
C144   C     0.82397   0.22716   0.06223   0.00000  Uiso   1.00
C145   C     0.81663   0.20557   0.12872   0.00000  Uiso   1.00
C146   C     0.82530   0.34566   0.16164   0.00000  Uiso   1.00
C147   C     0.83429   0.53325   0.23709   0.00000  Uiso   1.00
C148   C     0.88819   0.09288   0.94884   0.00000  Uiso   1.00
C149   C     0.93486   0.95840   0.91999   0.00000  Uiso   1.00
C150   C     0.99760   0.98544   0.85745   0.00000  Uiso   1.00
C151   C     0.10630   0.96454   0.75683   0.00000  Uiso   1.00
C152   C     0.84514   0.37822   0.95706   0.00000  Uiso   1.00
C153   C     0.77284   0.30591   0.96599   0.00000  Uiso   1.00
C154   C     0.72552   0.38114   0.94520   0.00000  Uiso   1.00
C155   C     0.66211   0.29476   0.95804   0.00000  Uiso   1.00
C156   C     0.83943   0.38313   0.02977   0.00000  Uiso   1.00
C157   C     0.84812   0.52328   0.06260   0.00000  Uiso   1.00
C158   C     0.84078   0.50191   0.12913   0.00000  Uiso   1.00
C159   C     0.90365   0.24885   0.91637   0.00000  Uiso   1.00
C160   C     0.96634   0.27610   0.85387   0.00000  Uiso   1.00
C161   C     0.01309   0.14169   0.82493   0.00000  Uiso   1.00
H162   H     0.80465   0.96964   0.04210   0.00000  Uiso   1.00
H163   H     0.68208   0.94274   0.03645   0.00000  Uiso   1.00
H164   H     0.80467   0.08486   0.15382   0.00000  Uiso   1.00
H165   H     0.92288   0.83772   0.94512   0.00000  Uiso   1.00
H166   H     0.55300   0.98174   0.01590   0.00000  Uiso   1.00
H167   H     0.81151   0.28138   0.26338   0.00000  Uiso   1.00
H168   H     0.06077   0.76024   0.82330   0.00000  Uiso   1.00
H169   H     0.85718   0.49965   0.93179   0.00000  Uiso   1.00
H170   H     0.73750   0.50184   0.92008   0.00000  Uiso   1.00
H171   H     0.86008   0.64395   0.03746   0.00000  Uiso   1.00
H172   H     0.97829   0.39682   0.82876   0.00000  Uiso   1.00
H173   H     0.59797   0.43553   0.92146   0.00000  Uiso   1.00
H174   H     0.85649   0.73516   0.16894   0.00000  Uiso   1.00
H175   H     0.10575   0.21403   0.72885   0.00000  Uiso   1.00
O176   O     0.49580   0.20053   0.96299   0.00000  Uiso   1.00
O177   O     0.83497   0.59364   0.28767   0.00000  Uiso   1.00
O178   O     0.16199   0.90992   0.71029   0.00000  Uiso   1.00
N179   N     0.58002   0.08822   0.99526   0.00000  Uiso   1.00
N180   N     0.82170   0.36837   0.22665   0.00000  Uiso   1.00
N181   N     0.05475   0.88116   0.81522   0.00000  Uiso   1.00
N182   N     0.60422   0.33240   0.94444   0.00000  Uiso   1.00
N183   N     0.84590   0.61255   0.17583   0.00000  Uiso   1.00
N184   N     0.07895   0.12534   0.76440   0.00000  Uiso   1.00
