data_job_01314
_audit_creation_date              2018-12-19
_audit_creation_method            'Materials Studio'
_symmetry_space_group_name_H-M    'P1'
_symmetry_Int_Tables_number       1
_symmetry_cell_setting            triclinic
loop_
_symmetry_equiv_pos_as_xyz
  x,y,z
_cell_length_a                    12.4727
_cell_length_b                    12.7728
_cell_length_c                    19.7103
_cell_angle_alpha                 90.0000
_cell_angle_beta                  110.4460
_cell_angle_gamma                 90.0000
loop_
_atom_site_label
_atom_site_type_symbol
_atom_site_fract_x
_atom_site_fract_y
_atom_site_fract_z
_atom_site_U_iso_or_equiv
_atom_site_adp_type
_atom_site_occupancy
C1     C     0.09999   0.39832   0.85364   0.00000  Uiso   1.00
C2     C     0.97396   0.36857   0.82037   0.00000  Uiso   1.00
C3     C     0.92168   0.28516   0.84160   0.00000  Uiso   1.00
C4     C     0.80551   0.27105   0.80436   0.00000  Uiso   1.00
C5     C     0.61919   0.21464   0.76126   0.00000  Uiso   1.00
C6     C     0.14596   0.39897   0.79140   0.00000  Uiso   1.00
C7     C     0.23831   0.34112   0.78827   0.00000  Uiso   1.00
C8     C     0.26694   0.35261   0.72664   0.00000  Uiso   1.00
C9     C     0.34771   0.34344   0.63857   0.00000  Uiso   1.00
C10    C     0.10239   0.51190   0.87796   0.00000  Uiso   1.00
C11    C     0.15814   0.54902   0.94761   0.00000  Uiso   1.00
C12    C     0.15011   0.65560   0.95886   0.00000  Uiso   1.00
C13    C     0.16323   0.82178   0.00521   0.00000  Uiso   1.00
C14    C     0.98665   0.52160   0.74976   0.00000  Uiso   1.00
C15    C     0.91240   0.43553   0.76395   0.00000  Uiso   1.00
C16    C     0.79628   0.42155   0.72667   0.00000  Uiso   1.00
C17    C     0.74384   0.33813   0.74783   0.00000  Uiso   1.00
C18    C     0.08440   0.46592   0.73497   0.00000  Uiso   1.00
C19    C     0.11291   0.47751   0.67334   0.00000  Uiso   1.00
C20    C     0.20527   0.41969   0.67011   0.00000  Uiso   1.00
C21    C     0.04083   0.57886   0.82154   0.00000  Uiso   1.00
C22    C     0.03273   0.68540   0.83268   0.00000  Uiso   1.00
C23    C     0.08844   0.72268   0.90234   0.00000  Uiso   1.00
H24    H     0.14793   0.34619   0.89757   0.00000  Uiso   1.00
H25    H     0.96936   0.23335   0.88526   0.00000  Uiso   1.00
H26    H     0.28594   0.28932   0.83194   0.00000  Uiso   1.00
H27    H     0.20577   0.49718   0.99126   0.00000  Uiso   1.00
H28    H     0.74423   0.13776   0.84672   0.00000  Uiso   1.00
H29    H     0.41179   0.25578   0.73430   0.00000  Uiso   1.00
H30    H     0.24275   0.69411   0.07026   0.00000  Uiso   1.00
H31    H     0.93872   0.57373   0.70583   0.00000  Uiso   1.00
H32    H     0.74866   0.47337   0.68301   0.00000  Uiso   1.00
H33    H     0.06525   0.52933   0.62969   0.00000  Uiso   1.00
H34    H     0.98508   0.73720   0.78901   0.00000  Uiso   1.00
H35    H     0.56511   0.33256   0.68256   0.00000  Uiso   1.00
H36    H     0.23268   0.45059   0.57014   0.00000  Uiso   1.00
H37    H     0.06363   0.88891   0.90611   0.00000  Uiso   1.00
O38    O     0.53343   0.16502   0.75306   0.00000  Uiso   1.00
O39    O     0.40926   0.31988   0.60559   0.00000  Uiso   1.00
O40    O     0.18746   0.89494   0.04636   0.00000  Uiso   1.00
N41    N     0.72815   0.19739   0.81122   0.00000  Uiso   1.00
N42    N     0.35227   0.30772   0.70612   0.00000  Uiso   1.00
N43    N     0.19425   0.71752   0.02021   0.00000  Uiso   1.00
N44    N     0.63177   0.30221   0.72289   0.00000  Uiso   1.00
N45    N     0.25589   0.41255   0.61778   0.00000  Uiso   1.00
N46    N     0.09787   0.82235   0.93188   0.00000  Uiso   1.00
C47    C     0.90001   0.89832   0.64636   0.00000  Uiso   1.00
C48    C     0.02604   0.86857   0.67963   0.00000  Uiso   1.00
C49    C     0.07832   0.78516   0.65840   0.00000  Uiso   1.00
C50    C     0.19449   0.77105   0.69564   0.00000  Uiso   1.00
C51    C     0.38081   0.71464   0.73874   0.00000  Uiso   1.00
C52    C     0.85404   0.89897   0.70860   0.00000  Uiso   1.00
C53    C     0.76169   0.84112   0.71173   0.00000  Uiso   1.00
C54    C     0.73306   0.85261   0.77336   0.00000  Uiso   1.00
C55    C     0.65229   0.84344   0.86143   0.00000  Uiso   1.00
C56    C     0.89761   0.01190   0.62204   0.00000  Uiso   1.00
C57    C     0.84186   0.04902   0.55239   0.00000  Uiso   1.00
C58    C     0.84989   0.15560   0.54114   0.00000  Uiso   1.00
C59    C     0.83677   0.32178   0.49479   0.00000  Uiso   1.00
C60    C     0.01335   0.02160   0.75024   0.00000  Uiso   1.00
C61    C     0.08760   0.93553   0.73605   0.00000  Uiso   1.00
C62    C     0.20372   0.92155   0.77333   0.00000  Uiso   1.00
C63    C     0.25616   0.83813   0.75217   0.00000  Uiso   1.00
C64    C     0.91560   0.96592   0.76503   0.00000  Uiso   1.00
C65    C     0.88709   0.97751   0.82666   0.00000  Uiso   1.00
C66    C     0.79473   0.91969   0.82989   0.00000  Uiso   1.00
C67    C     0.95917   0.07886   0.67846   0.00000  Uiso   1.00
C68    C     0.96727   0.18540   0.66732   0.00000  Uiso   1.00
C69    C     0.91156   0.22268   0.59766   0.00000  Uiso   1.00
H70    H     0.85207   0.84619   0.60243   0.00000  Uiso   1.00
H71    H     0.03064   0.73335   0.61474   0.00000  Uiso   1.00
H72    H     0.71406   0.78932   0.66806   0.00000  Uiso   1.00
H73    H     0.79423   0.99718   0.50874   0.00000  Uiso   1.00
H74    H     0.25577   0.63776   0.65328   0.00000  Uiso   1.00
H75    H     0.58821   0.75578   0.76570   0.00000  Uiso   1.00
H76    H     0.75725   0.19411   0.42974   0.00000  Uiso   1.00
H77    H     0.06128   0.07373   0.79417   0.00000  Uiso   1.00
H78    H     0.25134   0.97337   0.81699   0.00000  Uiso   1.00
H79    H     0.93475   0.02933   0.87031   0.00000  Uiso   1.00
H80    H     0.01492   0.23720   0.71099   0.00000  Uiso   1.00
H81    H     0.43489   0.83256   0.81744   0.00000  Uiso   1.00
H82    H     0.76732   0.95059   0.92986   0.00000  Uiso   1.00
H83    H     0.93637   0.38891   0.59389   0.00000  Uiso   1.00
O84    O     0.46657   0.66502   0.74694   0.00000  Uiso   1.00
O85    O     0.59074   0.81988   0.89441   0.00000  Uiso   1.00
O86    O     0.81254   0.39494   0.45364   0.00000  Uiso   1.00
N87    N     0.27185   0.69739   0.68878   0.00000  Uiso   1.00
N88    N     0.64773   0.80772   0.79388   0.00000  Uiso   1.00
N89    N     0.80575   0.21752   0.47979   0.00000  Uiso   1.00
N90    N     0.36823   0.80221   0.77711   0.00000  Uiso   1.00
N91    N     0.74411   0.91255   0.88222   0.00000  Uiso   1.00
N92    N     0.90213   0.32235   0.56812   0.00000  Uiso   1.00
C93    C     0.90001   0.60168   0.14636   0.00000  Uiso   1.00
C94    C     0.02604   0.63143   0.17963   0.00000  Uiso   1.00
C95    C     0.07832   0.71484   0.15840   0.00000  Uiso   1.00
C96    C     0.19449   0.72895   0.19564   0.00000  Uiso   1.00
C97    C     0.38081   0.78536   0.23874   0.00000  Uiso   1.00
C98    C     0.85404   0.60103   0.20860   0.00000  Uiso   1.00
C99    C     0.76169   0.65888   0.21173   0.00000  Uiso   1.00
C100   C     0.73306   0.64739   0.27336   0.00000  Uiso   1.00
C101   C     0.65229   0.65656   0.36143   0.00000  Uiso   1.00
C102   C     0.89761   0.48810   0.12204   0.00000  Uiso   1.00
C103   C     0.84186   0.45098   0.05239   0.00000  Uiso   1.00
C104   C     0.84989   0.34440   0.04114   0.00000  Uiso   1.00
C105   C     0.83677   0.17822   0.99479   0.00000  Uiso   1.00
C106   C     0.01335   0.47840   0.25024   0.00000  Uiso   1.00
C107   C     0.08760   0.56447   0.23605   0.00000  Uiso   1.00
C108   C     0.20372   0.57845   0.27333   0.00000  Uiso   1.00
C109   C     0.25616   0.66187   0.25217   0.00000  Uiso   1.00
C110   C     0.91560   0.53408   0.26503   0.00000  Uiso   1.00
C111   C     0.88709   0.52249   0.32666   0.00000  Uiso   1.00
C112   C     0.79473   0.58031   0.32989   0.00000  Uiso   1.00
C113   C     0.95917   0.42114   0.17846   0.00000  Uiso   1.00
C114   C     0.96727   0.31460   0.16732   0.00000  Uiso   1.00
C115   C     0.91156   0.27732   0.09766   0.00000  Uiso   1.00
H116   H     0.85207   0.65381   0.10243   0.00000  Uiso   1.00
H117   H     0.03064   0.76665   0.11474   0.00000  Uiso   1.00
H118   H     0.71406   0.71068   0.16806   0.00000  Uiso   1.00
H119   H     0.79423   0.50282   0.00874   0.00000  Uiso   1.00
H120   H     0.25577   0.86224   0.15328   0.00000  Uiso   1.00
H121   H     0.58821   0.74422   0.26570   0.00000  Uiso   1.00
H122   H     0.75725   0.30589   0.92974   0.00000  Uiso   1.00
H123   H     0.06128   0.42627   0.29417   0.00000  Uiso   1.00
H124   H     0.25134   0.52663   0.31699   0.00000  Uiso   1.00
H125   H     0.93475   0.47067   0.37031   0.00000  Uiso   1.00
H126   H     0.01492   0.26280   0.21099   0.00000  Uiso   1.00
H127   H     0.43489   0.66744   0.31744   0.00000  Uiso   1.00
H128   H     0.76732   0.54941   0.42986   0.00000  Uiso   1.00
H129   H     0.93637   0.11109   0.09389   0.00000  Uiso   1.00
O130   O     0.46657   0.83498   0.24694   0.00000  Uiso   1.00
O131   O     0.59074   0.68012   0.39441   0.00000  Uiso   1.00
O132   O     0.81254   0.10506   0.95364   0.00000  Uiso   1.00
N133   N     0.27185   0.80261   0.18878   0.00000  Uiso   1.00
N134   N     0.64773   0.69228   0.29388   0.00000  Uiso   1.00
N135   N     0.80575   0.28248   0.97979   0.00000  Uiso   1.00
N136   N     0.36823   0.69779   0.27711   0.00000  Uiso   1.00
N137   N     0.74411   0.58745   0.38222   0.00000  Uiso   1.00
N138   N     0.90213   0.17765   0.06812   0.00000  Uiso   1.00
C139   C     0.09999   0.10168   0.35364   0.00000  Uiso   1.00
C140   C     0.97396   0.13143   0.32037   0.00000  Uiso   1.00
C141   C     0.92168   0.21484   0.34160   0.00000  Uiso   1.00
C142   C     0.80551   0.22895   0.30436   0.00000  Uiso   1.00
C143   C     0.61919   0.28536   0.26126   0.00000  Uiso   1.00
C144   C     0.14596   0.10103   0.29140   0.00000  Uiso   1.00
C145   C     0.23831   0.15888   0.28827   0.00000  Uiso   1.00
C146   C     0.26694   0.14739   0.22664   0.00000  Uiso   1.00
C147   C     0.34771   0.15656   0.13857   0.00000  Uiso   1.00
C148   C     0.10239   0.98810   0.37796   0.00000  Uiso   1.00
C149   C     0.15814   0.95098   0.44761   0.00000  Uiso   1.00
C150   C     0.15011   0.84440   0.45886   0.00000  Uiso   1.00
C151   C     0.16323   0.67822   0.50521   0.00000  Uiso   1.00
C152   C     0.98665   0.97840   0.24976   0.00000  Uiso   1.00
C153   C     0.91240   0.06447   0.26395   0.00000  Uiso   1.00
C154   C     0.79628   0.07845   0.22667   0.00000  Uiso   1.00
C155   C     0.74384   0.16187   0.24783   0.00000  Uiso   1.00
C156   C     0.08440   0.03408   0.23497   0.00000  Uiso   1.00
C157   C     0.11291   0.02249   0.17334   0.00000  Uiso   1.00
C158   C     0.20527   0.08031   0.17011   0.00000  Uiso   1.00
C159   C     0.04083   0.92114   0.32154   0.00000  Uiso   1.00
C160   C     0.03273   0.81460   0.33268   0.00000  Uiso   1.00
C161   C     0.08844   0.77732   0.40234   0.00000  Uiso   1.00
H162   H     0.14793   0.15381   0.39757   0.00000  Uiso   1.00
H163   H     0.96936   0.26665   0.38526   0.00000  Uiso   1.00
H164   H     0.28594   0.21068   0.33194   0.00000  Uiso   1.00
H165   H     0.20577   0.00282   0.49126   0.00000  Uiso   1.00
H166   H     0.74423   0.36224   0.34672   0.00000  Uiso   1.00
H167   H     0.41179   0.24422   0.23430   0.00000  Uiso   1.00
H168   H     0.24275   0.80589   0.57026   0.00000  Uiso   1.00
H169   H     0.93872   0.92627   0.20583   0.00000  Uiso   1.00
H170   H     0.74866   0.02663   0.18301   0.00000  Uiso   1.00
H171   H     0.06525   0.97067   0.12969   0.00000  Uiso   1.00
H172   H     0.98508   0.76280   0.28901   0.00000  Uiso   1.00
H173   H     0.56511   0.16744   0.18256   0.00000  Uiso   1.00
H174   H     0.23268   0.04941   0.07014   0.00000  Uiso   1.00
H175   H     0.06363   0.61109   0.40611   0.00000  Uiso   1.00
O176   O     0.53343   0.33498   0.25306   0.00000  Uiso   1.00
O177   O     0.40926   0.18012   0.10559   0.00000  Uiso   1.00
O178   O     0.18746   0.60506   0.54636   0.00000  Uiso   1.00
N179   N     0.72815   0.30261   0.31122   0.00000  Uiso   1.00
N180   N     0.35227   0.19228   0.20612   0.00000  Uiso   1.00
N181   N     0.19425   0.78248   0.52021   0.00000  Uiso   1.00
N182   N     0.63177   0.19779   0.22289   0.00000  Uiso   1.00
N183   N     0.25589   0.08745   0.11778   0.00000  Uiso   1.00
N184   N     0.09787   0.67765   0.43188   0.00000  Uiso   1.00
