data_job_03181
_audit_creation_date              2018-12-19
_audit_creation_method            'Materials Studio'
_symmetry_space_group_name_H-M    'P1'
_symmetry_Int_Tables_number       1
_symmetry_cell_setting            triclinic
loop_
_symmetry_equiv_pos_as_xyz
  x,y,z
_cell_length_a                    37.5649
_cell_length_b                    19.3579
_cell_length_c                    8.7999
_cell_angle_alpha                 90.0000
_cell_angle_beta                  90.0000
_cell_angle_gamma                 90.0000
loop_
_atom_site_label
_atom_site_type_symbol
_atom_site_fract_x
_atom_site_fract_y
_atom_site_fract_z
_atom_site_U_iso_or_equiv
_atom_site_adp_type
_atom_site_occupancy
C1     C     0.36940   0.67272   0.71633   0.00000  Uiso   1.00
C2     C     0.33279   0.63953   0.73265   0.00000  Uiso   1.00
C3     C     0.32155   0.59912   0.85377   0.00000  Uiso   1.00
C4     C     0.28706   0.57351   0.84736   0.00000  Uiso   1.00
C5     C     0.23362   0.51977   0.89140   0.00000  Uiso   1.00
C6     C     0.38437   0.64685   0.56564   0.00000  Uiso   1.00
C7     C     0.41652   0.61261   0.54637   0.00000  Uiso   1.00
C8     C     0.42546   0.59318   0.39936   0.00000  Uiso   1.00
C9     C     0.45213   0.55084   0.18412   0.00000  Uiso   1.00
C10    C     0.36276   0.74984   0.69527   0.00000  Uiso   1.00
C11    C     0.37674   0.80220   0.78496   0.00000  Uiso   1.00
C12    C     0.36748   0.86947   0.74707   0.00000  Uiso   1.00
C13    C     0.36059   0.98705   0.73310   0.00000  Uiso   1.00
C14    C     0.32812   0.69908   0.48954   0.00000  Uiso   1.00
C15    C     0.31037   0.65384   0.60946   0.00000  Uiso   1.00
C16    C     0.27588   0.62829   0.60286   0.00000  Uiso   1.00
C17    C     0.26460   0.58786   0.72397   0.00000  Uiso   1.00
C18    C     0.36196   0.66117   0.44247   0.00000  Uiso   1.00
C19    C     0.37085   0.64178   0.29546   0.00000  Uiso   1.00
C20    C     0.40300   0.60752   0.27596   0.00000  Uiso   1.00
C21    C     0.34034   0.76416   0.57209   0.00000  Uiso   1.00
C22    C     0.33106   0.83136   0.53405   0.00000  Uiso   1.00
C23    C     0.34502   0.88382   0.62367   0.00000  Uiso   1.00
H24    H     0.38686   0.66157   0.81222   0.00000  Uiso   1.00
H25    H     0.33891   0.58805   0.94908   0.00000  Uiso   1.00
H26    H     0.43387   0.60155   0.64171   0.00000  Uiso   1.00
H27    H     0.39409   0.79110   0.88027   0.00000  Uiso   1.00
H28    H     0.27587   0.51283   0.04645   0.00000  Uiso   1.00
H29    H     0.47609   0.54131   0.39835   0.00000  Uiso   1.00
H30    H     0.39221   0.94102   0.90141   0.00000  Uiso   1.00
H31    H     0.31067   0.71023   0.39363   0.00000  Uiso   1.00
H32    H     0.25854   0.63938   0.50752   0.00000  Uiso   1.00
H33    H     0.35349   0.65287   0.20016   0.00000  Uiso   1.00
H34    H     0.31371   0.84242   0.43872   0.00000  Uiso   1.00
H35    H     0.21064   0.55449   0.68807   0.00000  Uiso   1.00
H36    H     0.41086   0.58297   0.03997   0.00000  Uiso   1.00
H37    H     0.32698   0.98268   0.54302   0.00000  Uiso   1.00
O38    O     0.21034   0.48616   0.94971   0.00000  Uiso   1.00
O39    O     0.47303   0.52353   0.09943   0.00000  Uiso   1.00
O40    O     0.36297   0.04794   0.75943   0.00000  Uiso   1.00
N41    N     0.26767   0.53237   0.94649   0.00000  Uiso   1.00
N42    N     0.45486   0.55899   0.34056   0.00000  Uiso   1.00
N43    N     0.37645   0.93268   0.81085   0.00000  Uiso   1.00
N44    N     0.23257   0.55479   0.75365   0.00000  Uiso   1.00
N45    N     0.41976   0.58140   0.14772   0.00000  Uiso   1.00
N46    N     0.34135   0.95510   0.61801   0.00000  Uiso   1.00
C47    C     0.13060   0.82728   0.21633   0.00000  Uiso   1.00
C48    C     0.16721   0.86047   0.23265   0.00000  Uiso   1.00
C49    C     0.17845   0.90088   0.35377   0.00000  Uiso   1.00
C50    C     0.21294   0.92649   0.34736   0.00000  Uiso   1.00
C51    C     0.26638   0.98023   0.39140   0.00000  Uiso   1.00
C52    C     0.11563   0.85315   0.06564   0.00000  Uiso   1.00
C53    C     0.08348   0.88739   0.04637   0.00000  Uiso   1.00
C54    C     0.07454   0.90682   0.89936   0.00000  Uiso   1.00
C55    C     0.04787   0.94916   0.68412   0.00000  Uiso   1.00
C56    C     0.13724   0.75016   0.19527   0.00000  Uiso   1.00
C57    C     0.12326   0.69780   0.28496   0.00000  Uiso   1.00
C58    C     0.13252   0.63053   0.24707   0.00000  Uiso   1.00
C59    C     0.13941   0.51295   0.23310   0.00000  Uiso   1.00
C60    C     0.17188   0.80092   0.98954   0.00000  Uiso   1.00
C61    C     0.18963   0.84616   0.10946   0.00000  Uiso   1.00
C62    C     0.22412   0.87171   0.10286   0.00000  Uiso   1.00
C63    C     0.23540   0.91214   0.22397   0.00000  Uiso   1.00
C64    C     0.13804   0.83883   0.94247   0.00000  Uiso   1.00
C65    C     0.12915   0.85822   0.79546   0.00000  Uiso   1.00
C66    C     0.09700   0.89248   0.77596   0.00000  Uiso   1.00
C67    C     0.15966   0.73584   0.07209   0.00000  Uiso   1.00
C68    C     0.16894   0.66864   0.03405   0.00000  Uiso   1.00
C69    C     0.15498   0.61618   0.12367   0.00000  Uiso   1.00
H70    H     0.11314   0.83843   0.31222   0.00000  Uiso   1.00
H71    H     0.16109   0.91195   0.44908   0.00000  Uiso   1.00
H72    H     0.06613   0.89845   0.14171   0.00000  Uiso   1.00
H73    H     0.10591   0.70890   0.38027   0.00000  Uiso   1.00
H74    H     0.22413   0.98717   0.54645   0.00000  Uiso   1.00
H75    H     0.02391   0.95869   0.89835   0.00000  Uiso   1.00
H76    H     0.10779   0.55898   0.40141   0.00000  Uiso   1.00
H77    H     0.18933   0.78977   0.89363   0.00000  Uiso   1.00
H78    H     0.24146   0.86062   0.00752   0.00000  Uiso   1.00
H79    H     0.14651   0.84713   0.70016   0.00000  Uiso   1.00
H80    H     0.18629   0.65758   0.93872   0.00000  Uiso   1.00
H81    H     0.28936   0.94551   0.18807   0.00000  Uiso   1.00
H82    H     0.08914   0.91703   0.53997   0.00000  Uiso   1.00
H83    H     0.17302   0.51732   0.04302   0.00000  Uiso   1.00
O84    O     0.28966   0.01384   0.44971   0.00000  Uiso   1.00
O85    O     0.02697   0.97647   0.59943   0.00000  Uiso   1.00
O86    O     0.13703   0.45206   0.25943   0.00000  Uiso   1.00
N87    N     0.23233   0.96763   0.44649   0.00000  Uiso   1.00
N88    N     0.04514   0.94101   0.84056   0.00000  Uiso   1.00
N89    N     0.12355   0.56732   0.31085   0.00000  Uiso   1.00
N90    N     0.26743   0.94521   0.25365   0.00000  Uiso   1.00
N91    N     0.08024   0.91860   0.64772   0.00000  Uiso   1.00
N92    N     0.15865   0.54490   0.11801   0.00000  Uiso   1.00
C93    C     0.63060   0.67272   0.78367   0.00000  Uiso   1.00
C94    C     0.66721   0.63953   0.76735   0.00000  Uiso   1.00
C95    C     0.67845   0.59912   0.64623   0.00000  Uiso   1.00
C96    C     0.71294   0.57351   0.65264   0.00000  Uiso   1.00
C97    C     0.76638   0.51977   0.60860   0.00000  Uiso   1.00
C98    C     0.61563   0.64685   0.93436   0.00000  Uiso   1.00
C99    C     0.58348   0.61261   0.95363   0.00000  Uiso   1.00
C100   C     0.57454   0.59318   0.10064   0.00000  Uiso   1.00
C101   C     0.54787   0.55084   0.31588   0.00000  Uiso   1.00
C102   C     0.63724   0.74984   0.80473   0.00000  Uiso   1.00
C103   C     0.62326   0.80220   0.71504   0.00000  Uiso   1.00
C104   C     0.63252   0.86947   0.75293   0.00000  Uiso   1.00
C105   C     0.63941   0.98705   0.76690   0.00000  Uiso   1.00
C106   C     0.67188   0.69908   0.01046   0.00000  Uiso   1.00
C107   C     0.68963   0.65384   0.89054   0.00000  Uiso   1.00
C108   C     0.72412   0.62829   0.89714   0.00000  Uiso   1.00
C109   C     0.73540   0.58786   0.77603   0.00000  Uiso   1.00
C110   C     0.63804   0.66117   0.05753   0.00000  Uiso   1.00
C111   C     0.62915   0.64178   0.20454   0.00000  Uiso   1.00
C112   C     0.59700   0.60752   0.22404   0.00000  Uiso   1.00
C113   C     0.65966   0.76416   0.92791   0.00000  Uiso   1.00
C114   C     0.66894   0.83136   0.96595   0.00000  Uiso   1.00
C115   C     0.65498   0.88382   0.87633   0.00000  Uiso   1.00
H116   H     0.61314   0.66157   0.68778   0.00000  Uiso   1.00
H117   H     0.66109   0.58805   0.55092   0.00000  Uiso   1.00
H118   H     0.56613   0.60155   0.85829   0.00000  Uiso   1.00
H119   H     0.60591   0.79110   0.61973   0.00000  Uiso   1.00
H120   H     0.72413   0.51283   0.45355   0.00000  Uiso   1.00
H121   H     0.52391   0.54131   0.10165   0.00000  Uiso   1.00
H122   H     0.60779   0.94102   0.59859   0.00000  Uiso   1.00
H123   H     0.68933   0.71023   0.10637   0.00000  Uiso   1.00
H124   H     0.74146   0.63938   0.99248   0.00000  Uiso   1.00
H125   H     0.64651   0.65287   0.29984   0.00000  Uiso   1.00
H126   H     0.68629   0.84242   0.06128   0.00000  Uiso   1.00
H127   H     0.78936   0.55449   0.81193   0.00000  Uiso   1.00
H128   H     0.58914   0.58297   0.46003   0.00000  Uiso   1.00
H129   H     0.67302   0.98268   0.95698   0.00000  Uiso   1.00
O130   O     0.78966   0.48616   0.55029   0.00000  Uiso   1.00
O131   O     0.52697   0.52353   0.40057   0.00000  Uiso   1.00
O132   O     0.63703   0.04794   0.74057   0.00000  Uiso   1.00
N133   N     0.73233   0.53237   0.55351   0.00000  Uiso   1.00
N134   N     0.54514   0.55899   0.15944   0.00000  Uiso   1.00
N135   N     0.62355   0.93268   0.68915   0.00000  Uiso   1.00
N136   N     0.76743   0.55479   0.74635   0.00000  Uiso   1.00
N137   N     0.58024   0.58140   0.35228   0.00000  Uiso   1.00
N138   N     0.65865   0.95510   0.88199   0.00000  Uiso   1.00
C139   C     0.86940   0.82728   0.28367   0.00000  Uiso   1.00
C140   C     0.83279   0.86047   0.26735   0.00000  Uiso   1.00
C141   C     0.82155   0.90088   0.14623   0.00000  Uiso   1.00
C142   C     0.78706   0.92649   0.15264   0.00000  Uiso   1.00
C143   C     0.73362   0.98023   0.10860   0.00000  Uiso   1.00
C144   C     0.88437   0.85315   0.43436   0.00000  Uiso   1.00
C145   C     0.91652   0.88739   0.45363   0.00000  Uiso   1.00
C146   C     0.92546   0.90682   0.60064   0.00000  Uiso   1.00
C147   C     0.95213   0.94916   0.81588   0.00000  Uiso   1.00
C148   C     0.86276   0.75016   0.30473   0.00000  Uiso   1.00
C149   C     0.87674   0.69780   0.21504   0.00000  Uiso   1.00
C150   C     0.86748   0.63053   0.25293   0.00000  Uiso   1.00
C151   C     0.86059   0.51295   0.26690   0.00000  Uiso   1.00
C152   C     0.82812   0.80092   0.51046   0.00000  Uiso   1.00
C153   C     0.81037   0.84616   0.39054   0.00000  Uiso   1.00
C154   C     0.77588   0.87171   0.39714   0.00000  Uiso   1.00
C155   C     0.76460   0.91214   0.27603   0.00000  Uiso   1.00
C156   C     0.86196   0.83883   0.55753   0.00000  Uiso   1.00
C157   C     0.87085   0.85822   0.70454   0.00000  Uiso   1.00
C158   C     0.90300   0.89248   0.72404   0.00000  Uiso   1.00
C159   C     0.84034   0.73584   0.42791   0.00000  Uiso   1.00
C160   C     0.83106   0.66864   0.46595   0.00000  Uiso   1.00
C161   C     0.84502   0.61618   0.37633   0.00000  Uiso   1.00
H162   H     0.88686   0.83843   0.18778   0.00000  Uiso   1.00
H163   H     0.83891   0.91195   0.05092   0.00000  Uiso   1.00
H164   H     0.93387   0.89845   0.35829   0.00000  Uiso   1.00
H165   H     0.89409   0.70890   0.11973   0.00000  Uiso   1.00
H166   H     0.77587   0.98717   0.95355   0.00000  Uiso   1.00
H167   H     0.97609   0.95869   0.60165   0.00000  Uiso   1.00
H168   H     0.89221   0.55898   0.09859   0.00000  Uiso   1.00
H169   H     0.81067   0.78977   0.60637   0.00000  Uiso   1.00
H170   H     0.75854   0.86062   0.49248   0.00000  Uiso   1.00
H171   H     0.85349   0.84713   0.79984   0.00000  Uiso   1.00
H172   H     0.81371   0.65758   0.56128   0.00000  Uiso   1.00
H173   H     0.71064   0.94551   0.31193   0.00000  Uiso   1.00
H174   H     0.91086   0.91703   0.96003   0.00000  Uiso   1.00
H175   H     0.82698   0.51732   0.45698   0.00000  Uiso   1.00
O176   O     0.71034   0.01384   0.05029   0.00000  Uiso   1.00
O177   O     0.97303   0.97647   0.90057   0.00000  Uiso   1.00
O178   O     0.86297   0.45206   0.24057   0.00000  Uiso   1.00
N179   N     0.76767   0.96763   0.05351   0.00000  Uiso   1.00
N180   N     0.95486   0.94101   0.65944   0.00000  Uiso   1.00
N181   N     0.87645   0.56732   0.18915   0.00000  Uiso   1.00
N182   N     0.73257   0.94521   0.24635   0.00000  Uiso   1.00
N183   N     0.91976   0.91860   0.85228   0.00000  Uiso   1.00
N184   N     0.84135   0.54490   0.38199   0.00000  Uiso   1.00
C185   C     0.63060   0.32728   0.28367   0.00000  Uiso   1.00
C186   C     0.66721   0.36047   0.26735   0.00000  Uiso   1.00
C187   C     0.67845   0.40088   0.14623   0.00000  Uiso   1.00
C188   C     0.71294   0.42649   0.15264   0.00000  Uiso   1.00
C189   C     0.76638   0.48023   0.10860   0.00000  Uiso   1.00
C190   C     0.61563   0.35315   0.43436   0.00000  Uiso   1.00
C191   C     0.58348   0.38739   0.45363   0.00000  Uiso   1.00
C192   C     0.57454   0.40682   0.60064   0.00000  Uiso   1.00
C193   C     0.54787   0.44916   0.81588   0.00000  Uiso   1.00
C194   C     0.63724   0.25016   0.30473   0.00000  Uiso   1.00
C195   C     0.62326   0.19780   0.21504   0.00000  Uiso   1.00
C196   C     0.63252   0.13053   0.25293   0.00000  Uiso   1.00
C197   C     0.63941   0.01295   0.26690   0.00000  Uiso   1.00
C198   C     0.67188   0.30092   0.51046   0.00000  Uiso   1.00
C199   C     0.68963   0.34616   0.39054   0.00000  Uiso   1.00
C200   C     0.72412   0.37171   0.39714   0.00000  Uiso   1.00
C201   C     0.73540   0.41214   0.27603   0.00000  Uiso   1.00
C202   C     0.63804   0.33883   0.55753   0.00000  Uiso   1.00
C203   C     0.62915   0.35822   0.70454   0.00000  Uiso   1.00
C204   C     0.59700   0.39248   0.72404   0.00000  Uiso   1.00
C205   C     0.65966   0.23584   0.42791   0.00000  Uiso   1.00
C206   C     0.66894   0.16864   0.46595   0.00000  Uiso   1.00
C207   C     0.65498   0.11618   0.37633   0.00000  Uiso   1.00
H208   H     0.61314   0.33843   0.18778   0.00000  Uiso   1.00
H209   H     0.66109   0.41195   0.05092   0.00000  Uiso   1.00
H210   H     0.56613   0.39845   0.35829   0.00000  Uiso   1.00
H211   H     0.60591   0.20890   0.11973   0.00000  Uiso   1.00
H212   H     0.72413   0.48717   0.95355   0.00000  Uiso   1.00
H213   H     0.52391   0.45869   0.60165   0.00000  Uiso   1.00
H214   H     0.60779   0.05898   0.09859   0.00000  Uiso   1.00
H215   H     0.68933   0.28977   0.60637   0.00000  Uiso   1.00
H216   H     0.74146   0.36062   0.49248   0.00000  Uiso   1.00
H217   H     0.64651   0.34713   0.79984   0.00000  Uiso   1.00
H218   H     0.68629   0.15758   0.56128   0.00000  Uiso   1.00
H219   H     0.78936   0.44551   0.31193   0.00000  Uiso   1.00
H220   H     0.58914   0.41703   0.96003   0.00000  Uiso   1.00
H221   H     0.67302   0.01732   0.45698   0.00000  Uiso   1.00
O222   O     0.78966   0.51384   0.05029   0.00000  Uiso   1.00
O223   O     0.52697   0.47647   0.90057   0.00000  Uiso   1.00
O224   O     0.63703   0.95206   0.24057   0.00000  Uiso   1.00
N225   N     0.73233   0.46763   0.05351   0.00000  Uiso   1.00
N226   N     0.54514   0.44101   0.65944   0.00000  Uiso   1.00
N227   N     0.62355   0.06732   0.18915   0.00000  Uiso   1.00
N228   N     0.76743   0.44521   0.24635   0.00000  Uiso   1.00
N229   N     0.58024   0.41860   0.85228   0.00000  Uiso   1.00
N230   N     0.65865   0.04490   0.38199   0.00000  Uiso   1.00
C231   C     0.86940   0.17272   0.78367   0.00000  Uiso   1.00
C232   C     0.83279   0.13953   0.76735   0.00000  Uiso   1.00
C233   C     0.82155   0.09912   0.64623   0.00000  Uiso   1.00
C234   C     0.78706   0.07351   0.65264   0.00000  Uiso   1.00
C235   C     0.73362   0.01977   0.60860   0.00000  Uiso   1.00
C236   C     0.88437   0.14685   0.93436   0.00000  Uiso   1.00
C237   C     0.91652   0.11261   0.95363   0.00000  Uiso   1.00
C238   C     0.92546   0.09318   0.10064   0.00000  Uiso   1.00
C239   C     0.95213   0.05084   0.31588   0.00000  Uiso   1.00
C240   C     0.86276   0.24984   0.80473   0.00000  Uiso   1.00
C241   C     0.87674   0.30220   0.71504   0.00000  Uiso   1.00
C242   C     0.86748   0.36947   0.75293   0.00000  Uiso   1.00
C243   C     0.86059   0.48705   0.76690   0.00000  Uiso   1.00
C244   C     0.82812   0.19908   0.01046   0.00000  Uiso   1.00
C245   C     0.81037   0.15384   0.89054   0.00000  Uiso   1.00
C246   C     0.77588   0.12829   0.89714   0.00000  Uiso   1.00
C247   C     0.76460   0.08786   0.77603   0.00000  Uiso   1.00
C248   C     0.86196   0.16117   0.05753   0.00000  Uiso   1.00
C249   C     0.87085   0.14178   0.20454   0.00000  Uiso   1.00
C250   C     0.90300   0.10752   0.22404   0.00000  Uiso   1.00
C251   C     0.84034   0.26416   0.92791   0.00000  Uiso   1.00
C252   C     0.83106   0.33136   0.96595   0.00000  Uiso   1.00
C253   C     0.84502   0.38382   0.87633   0.00000  Uiso   1.00
H254   H     0.88686   0.16157   0.68778   0.00000  Uiso   1.00
H255   H     0.83891   0.08805   0.55092   0.00000  Uiso   1.00
H256   H     0.93387   0.10155   0.85829   0.00000  Uiso   1.00
H257   H     0.89409   0.29110   0.61973   0.00000  Uiso   1.00
H258   H     0.77587   0.01283   0.45355   0.00000  Uiso   1.00
H259   H     0.97609   0.04131   0.10165   0.00000  Uiso   1.00
H260   H     0.89221   0.44102   0.59859   0.00000  Uiso   1.00
H261   H     0.81067   0.21023   0.10637   0.00000  Uiso   1.00
H262   H     0.75854   0.13938   0.99248   0.00000  Uiso   1.00
H263   H     0.85349   0.15287   0.29984   0.00000  Uiso   1.00
H264   H     0.81371   0.34242   0.06128   0.00000  Uiso   1.00
H265   H     0.71064   0.05449   0.81193   0.00000  Uiso   1.00
H266   H     0.91086   0.08297   0.46003   0.00000  Uiso   1.00
H267   H     0.82698   0.48268   0.95698   0.00000  Uiso   1.00
O268   O     0.71034   0.98616   0.55029   0.00000  Uiso   1.00
O269   O     0.97303   0.02353   0.40057   0.00000  Uiso   1.00
O270   O     0.86297   0.54794   0.74057   0.00000  Uiso   1.00
N271   N     0.76767   0.03237   0.55351   0.00000  Uiso   1.00
N272   N     0.95486   0.05899   0.15944   0.00000  Uiso   1.00
N273   N     0.87645   0.43268   0.68915   0.00000  Uiso   1.00
N274   N     0.73257   0.05479   0.74635   0.00000  Uiso   1.00
N275   N     0.91976   0.08140   0.35228   0.00000  Uiso   1.00
N276   N     0.84135   0.45510   0.88199   0.00000  Uiso   1.00
C277   C     0.36940   0.32728   0.21633   0.00000  Uiso   1.00
C278   C     0.33279   0.36047   0.23265   0.00000  Uiso   1.00
C279   C     0.32155   0.40088   0.35377   0.00000  Uiso   1.00
C280   C     0.28706   0.42649   0.34736   0.00000  Uiso   1.00
C281   C     0.23362   0.48023   0.39140   0.00000  Uiso   1.00
C282   C     0.38437   0.35315   0.06564   0.00000  Uiso   1.00
C283   C     0.41652   0.38739   0.04637   0.00000  Uiso   1.00
C284   C     0.42546   0.40682   0.89936   0.00000  Uiso   1.00
C285   C     0.45213   0.44916   0.68412   0.00000  Uiso   1.00
C286   C     0.36276   0.25016   0.19527   0.00000  Uiso   1.00
C287   C     0.37674   0.19780   0.28496   0.00000  Uiso   1.00
C288   C     0.36748   0.13053   0.24707   0.00000  Uiso   1.00
C289   C     0.36059   0.01295   0.23310   0.00000  Uiso   1.00
C290   C     0.32812   0.30092   0.98954   0.00000  Uiso   1.00
C291   C     0.31037   0.34616   0.10946   0.00000  Uiso   1.00
C292   C     0.27588   0.37171   0.10286   0.00000  Uiso   1.00
C293   C     0.26460   0.41214   0.22397   0.00000  Uiso   1.00
C294   C     0.36196   0.33883   0.94247   0.00000  Uiso   1.00
C295   C     0.37085   0.35822   0.79546   0.00000  Uiso   1.00
C296   C     0.40300   0.39248   0.77596   0.00000  Uiso   1.00
C297   C     0.34034   0.23584   0.07209   0.00000  Uiso   1.00
C298   C     0.33106   0.16864   0.03405   0.00000  Uiso   1.00
C299   C     0.34502   0.11618   0.12367   0.00000  Uiso   1.00
H300   H     0.38686   0.33843   0.31222   0.00000  Uiso   1.00
H301   H     0.33891   0.41195   0.44908   0.00000  Uiso   1.00
H302   H     0.43387   0.39845   0.14171   0.00000  Uiso   1.00
H303   H     0.39409   0.20890   0.38027   0.00000  Uiso   1.00
H304   H     0.27587   0.48717   0.54645   0.00000  Uiso   1.00
H305   H     0.47609   0.45869   0.89835   0.00000  Uiso   1.00
H306   H     0.39221   0.05898   0.40141   0.00000  Uiso   1.00
H307   H     0.31067   0.28977   0.89363   0.00000  Uiso   1.00
H308   H     0.25854   0.36062   0.00752   0.00000  Uiso   1.00
H309   H     0.35349   0.34713   0.70016   0.00000  Uiso   1.00
H310   H     0.31371   0.15758   0.93872   0.00000  Uiso   1.00
H311   H     0.21064   0.44551   0.18807   0.00000  Uiso   1.00
H312   H     0.41086   0.41703   0.53997   0.00000  Uiso   1.00
H313   H     0.32698   0.01732   0.04302   0.00000  Uiso   1.00
O314   O     0.21034   0.51384   0.44971   0.00000  Uiso   1.00
O315   O     0.47303   0.47647   0.59943   0.00000  Uiso   1.00
O316   O     0.36297   0.95206   0.25943   0.00000  Uiso   1.00
N317   N     0.26767   0.46763   0.44649   0.00000  Uiso   1.00
N318   N     0.45486   0.44101   0.84056   0.00000  Uiso   1.00
N319   N     0.37645   0.06732   0.31085   0.00000  Uiso   1.00
N320   N     0.23257   0.44521   0.25365   0.00000  Uiso   1.00
N321   N     0.41976   0.41860   0.64772   0.00000  Uiso   1.00
N322   N     0.34135   0.04490   0.11801   0.00000  Uiso   1.00
C323   C     0.13060   0.17272   0.71633   0.00000  Uiso   1.00
C324   C     0.16721   0.13953   0.73265   0.00000  Uiso   1.00
C325   C     0.17845   0.09912   0.85377   0.00000  Uiso   1.00
C326   C     0.21294   0.07351   0.84736   0.00000  Uiso   1.00
C327   C     0.26638   0.01977   0.89140   0.00000  Uiso   1.00
C328   C     0.11563   0.14685   0.56564   0.00000  Uiso   1.00
C329   C     0.08348   0.11261   0.54637   0.00000  Uiso   1.00
C330   C     0.07454   0.09318   0.39936   0.00000  Uiso   1.00
C331   C     0.04787   0.05084   0.18412   0.00000  Uiso   1.00
C332   C     0.13724   0.24984   0.69527   0.00000  Uiso   1.00
C333   C     0.12326   0.30220   0.78496   0.00000  Uiso   1.00
C334   C     0.13252   0.36947   0.74707   0.00000  Uiso   1.00
C335   C     0.13941   0.48705   0.73310   0.00000  Uiso   1.00
C336   C     0.17188   0.19908   0.48954   0.00000  Uiso   1.00
C337   C     0.18963   0.15384   0.60946   0.00000  Uiso   1.00
C338   C     0.22412   0.12829   0.60286   0.00000  Uiso   1.00
C339   C     0.23540   0.08786   0.72397   0.00000  Uiso   1.00
C340   C     0.13804   0.16117   0.44247   0.00000  Uiso   1.00
C341   C     0.12915   0.14178   0.29546   0.00000  Uiso   1.00
C342   C     0.09700   0.10752   0.27596   0.00000  Uiso   1.00
C343   C     0.15966   0.26416   0.57209   0.00000  Uiso   1.00
C344   C     0.16894   0.33136   0.53405   0.00000  Uiso   1.00
C345   C     0.15498   0.38382   0.62367   0.00000  Uiso   1.00
H346   H     0.11314   0.16157   0.81222   0.00000  Uiso   1.00
H347   H     0.16109   0.08805   0.94908   0.00000  Uiso   1.00
H348   H     0.06613   0.10155   0.64171   0.00000  Uiso   1.00
H349   H     0.10591   0.29110   0.88027   0.00000  Uiso   1.00
H350   H     0.22413   0.01283   0.04645   0.00000  Uiso   1.00
H351   H     0.02391   0.04131   0.39835   0.00000  Uiso   1.00
H352   H     0.10779   0.44102   0.90141   0.00000  Uiso   1.00
H353   H     0.18933   0.21023   0.39363   0.00000  Uiso   1.00
H354   H     0.24146   0.13938   0.50752   0.00000  Uiso   1.00
H355   H     0.14651   0.15287   0.20016   0.00000  Uiso   1.00
H356   H     0.18629   0.34242   0.43872   0.00000  Uiso   1.00
H357   H     0.28936   0.05449   0.68807   0.00000  Uiso   1.00
H358   H     0.08914   0.08297   0.03997   0.00000  Uiso   1.00
H359   H     0.17302   0.48268   0.54302   0.00000  Uiso   1.00
O360   O     0.28966   0.98616   0.94971   0.00000  Uiso   1.00
O361   O     0.02697   0.02353   0.09943   0.00000  Uiso   1.00
O362   O     0.13703   0.54794   0.75943   0.00000  Uiso   1.00
N363   N     0.23233   0.03237   0.94649   0.00000  Uiso   1.00
N364   N     0.04514   0.05899   0.34056   0.00000  Uiso   1.00
N365   N     0.12355   0.43268   0.81085   0.00000  Uiso   1.00
N366   N     0.26743   0.05479   0.75365   0.00000  Uiso   1.00
N367   N     0.08024   0.08140   0.14772   0.00000  Uiso   1.00
N368   N     0.15865   0.45510   0.61801   0.00000  Uiso   1.00
