data_job_03939
_audit_creation_date              2018-12-19
_audit_creation_method            'Materials Studio'
_symmetry_space_group_name_H-M    'P1'
_symmetry_Int_Tables_number       1
_symmetry_cell_setting            triclinic
loop_
_symmetry_equiv_pos_as_xyz
  x,y,z
_cell_length_a                    25.3799
_cell_length_b                    25.3799
_cell_length_c                    12.4213
_cell_angle_alpha                 90.0000
_cell_angle_beta                  90.0000
_cell_angle_gamma                 120.0000
loop_
_atom_site_label
_atom_site_type_symbol
_atom_site_fract_x
_atom_site_fract_y
_atom_site_fract_z
_atom_site_U_iso_or_equiv
_atom_site_adp_type
_atom_site_occupancy
C1     C     0.13131   0.32465   0.48498   0.00000  Uiso   1.00
C2     C     0.11043   0.27398   0.40163   0.00000  Uiso   1.00
C3     C     0.13939   0.27750   0.30490   0.00000  Uiso   1.00
C4     C     0.11308   0.22619   0.23971   0.00000  Uiso   1.00
C5     C     0.08876   0.15556   0.10561   0.00000  Uiso   1.00
C6     C     0.07782   0.33530   0.50153   0.00000  Uiso   1.00
C7     C     0.07935   0.39038   0.48881   0.00000  Uiso   1.00
C8     C     0.02559   0.39069   0.50773   0.00000  Uiso   1.00
C9     C     0.95065   0.41527   0.52881   0.00000  Uiso   1.00
C10    C     0.13839   0.29796   0.59032   0.00000  Uiso   1.00
C11    C     0.19085   0.32165   0.65229   0.00000  Uiso   1.00
C12    C     0.18809   0.29053   0.74599   0.00000  Uiso   1.00
C13    C     0.20719   0.25713   0.90493   0.00000  Uiso   1.00
C14    C     0.03312   0.22728   0.54122   0.00000  Uiso   1.00
C15    C     0.05709   0.22109   0.43218   0.00000  Uiso   1.00
C16    C     0.03074   0.16976   0.36712   0.00000  Uiso   1.00
C17    C     0.05965   0.17321   0.27031   0.00000  Uiso   1.00
C18    C     0.02448   0.28241   0.53207   0.00000  Uiso   1.00
C19    C     0.97071   0.28265   0.55103   0.00000  Uiso   1.00
C20    C     0.97216   0.33771   0.53834   0.00000  Uiso   1.00
C21    C     0.08505   0.24507   0.62087   0.00000  Uiso   1.00
C22    C     0.08221   0.21391   0.71450   0.00000  Uiso   1.00
C23    C     0.13465   0.23754   0.77659   0.00000  Uiso   1.00
H24    H     0.17284   0.36583   0.46120   0.00000  Uiso   1.00
H25    H     0.18066   0.31844   0.28128   0.00000  Uiso   1.00
H26    H     0.12064   0.43130   0.46518   0.00000  Uiso   1.00
H27    H     0.23212   0.36258   0.62862   0.00000  Uiso   1.00
H28    H     0.16580   0.24258   0.09527   0.00000  Uiso   1.00
H29    H     0.03924   0.48056   0.48305   0.00000  Uiso   1.00
H30    H     0.27432   0.33564   0.82771   0.00000  Uiso   1.00
H31    H     0.99159   0.18610   0.56500   0.00000  Uiso   1.00
H32    H     0.98946   0.12884   0.39078   0.00000  Uiso   1.00
H33    H     0.92944   0.24171   0.57467   0.00000  Uiso   1.00
H34    H     0.04092   0.17298   0.73812   0.00000  Uiso   1.00
H35    H     0.01061   0.08869   0.18413   0.00000  Uiso   1.00
H36    H     0.88406   0.32668   0.57193   0.00000  Uiso   1.00
H37    H     0.11914   0.18176   0.91658   0.00000  Uiso   1.00
O38    O     0.09007   0.13122   0.02320   0.00000  Uiso   1.00
O39    O     0.92404   0.44345   0.53198   0.00000  Uiso   1.00
O40    O     0.23246   0.25331   0.98415   0.00000  Uiso   1.00
N41    N     0.12957   0.21421   0.14010   0.00000  Uiso   1.00
N42    N     0.01125   0.43671   0.50264   0.00000  Uiso   1.00
N43    N     0.23103   0.30124   0.82488   0.00000  Uiso   1.00
N44    N     0.04607   0.13141   0.18792   0.00000  Uiso   1.00
N45    N     0.92775   0.35391   0.55046   0.00000  Uiso   1.00
N46    N     0.14752   0.21843   0.87270   0.00000  Uiso   1.00
C47    C     0.67535   0.80666   0.48498   0.00000  Uiso   1.00
C48    C     0.72602   0.83645   0.40163   0.00000  Uiso   1.00
C49    C     0.72250   0.86189   0.30490   0.00000  Uiso   1.00
C50    C     0.77381   0.88689   0.23971   0.00000  Uiso   1.00
C51    C     0.84444   0.93319   0.10561   0.00000  Uiso   1.00
C52    C     0.66470   0.74252   0.50153   0.00000  Uiso   1.00
C53    C     0.60962   0.68897   0.48881   0.00000  Uiso   1.00
C54    C     0.60931   0.63490   0.50773   0.00000  Uiso   1.00
C55    C     0.58473   0.53537   0.52881   0.00000  Uiso   1.00
C56    C     0.70204   0.84043   0.59032   0.00000  Uiso   1.00
C57    C     0.67835   0.86920   0.65229   0.00000  Uiso   1.00
C58    C     0.70947   0.89756   0.74599   0.00000  Uiso   1.00
C59    C     0.74287   0.95006   0.90493   0.00000  Uiso   1.00
C60    C     0.77272   0.80584   0.54122   0.00000  Uiso   1.00
C61    C     0.77891   0.83600   0.43218   0.00000  Uiso   1.00
C62    C     0.83024   0.86098   0.36712   0.00000  Uiso   1.00
C63    C     0.82679   0.88644   0.27031   0.00000  Uiso   1.00
C64    C     0.71759   0.74207   0.53207   0.00000  Uiso   1.00
C65    C     0.71735   0.68806   0.55103   0.00000  Uiso   1.00
C66    C     0.66229   0.63445   0.53834   0.00000  Uiso   1.00
C67    C     0.75493   0.83999   0.62087   0.00000  Uiso   1.00
C68    C     0.78609   0.86830   0.71450   0.00000  Uiso   1.00
C69    C     0.76246   0.89711   0.77659   0.00000  Uiso   1.00
H70    H     0.63417   0.80700   0.46120   0.00000  Uiso   1.00
H71    H     0.68156   0.86222   0.28128   0.00000  Uiso   1.00
H72    H     0.56870   0.68934   0.46518   0.00000  Uiso   1.00
H73    H     0.63742   0.86954   0.62862   0.00000  Uiso   1.00
H74    H     0.75742   0.92322   0.09527   0.00000  Uiso   1.00
H75    H     0.51944   0.55869   0.48305   0.00000  Uiso   1.00
H76    H     0.66436   0.93868   0.82771   0.00000  Uiso   1.00
H77    H     0.81390   0.80549   0.56500   0.00000  Uiso   1.00
H78    H     0.87116   0.86062   0.39078   0.00000  Uiso   1.00
H79    H     0.75829   0.68774   0.57467   0.00000  Uiso   1.00
H80    H     0.82702   0.86794   0.73812   0.00000  Uiso   1.00
H81    H     0.91131   0.92192   0.18413   0.00000  Uiso   1.00
H82    H     0.67332   0.55738   0.57193   0.00000  Uiso   1.00
H83    H     0.81824   0.93738   0.91658   0.00000  Uiso   1.00
O84    O     0.86878   0.95885   0.02320   0.00000  Uiso   1.00
O85    O     0.55655   0.48060   0.53198   0.00000  Uiso   1.00
O86    O     0.74669   0.97914   0.98415   0.00000  Uiso   1.00
N87    N     0.78579   0.91536   0.14010   0.00000  Uiso   1.00
N88    N     0.56329   0.57454   0.50264   0.00000  Uiso   1.00
N89    N     0.69876   0.92979   0.82488   0.00000  Uiso   1.00
N90    N     0.86859   0.91466   0.18792   0.00000  Uiso   1.00
N91    N     0.64609   0.57384   0.55046   0.00000  Uiso   1.00
N92    N     0.78157   0.92909   0.87270   0.00000  Uiso   1.00
C93    C     0.19334   0.86869   0.48498   0.00000  Uiso   1.00
C94    C     0.16355   0.88957   0.40163   0.00000  Uiso   1.00
C95    C     0.13811   0.86061   0.30490   0.00000  Uiso   1.00
C96    C     0.11311   0.88692   0.23971   0.00000  Uiso   1.00
C97    C     0.06681   0.91124   0.10561   0.00000  Uiso   1.00
C98    C     0.25748   0.92218   0.50153   0.00000  Uiso   1.00
C99    C     0.31103   0.92065   0.48881   0.00000  Uiso   1.00
C100   C     0.36510   0.97441   0.50773   0.00000  Uiso   1.00
C101   C     0.46463   0.04935   0.52881   0.00000  Uiso   1.00
C102   C     0.15957   0.86161   0.59032   0.00000  Uiso   1.00
C103   C     0.13080   0.80915   0.65229   0.00000  Uiso   1.00
C104   C     0.10244   0.81191   0.74599   0.00000  Uiso   1.00
C105   C     0.04994   0.79281   0.90493   0.00000  Uiso   1.00
C106   C     0.19416   0.96688   0.54122   0.00000  Uiso   1.00
C107   C     0.16400   0.94291   0.43218   0.00000  Uiso   1.00
C108   C     0.13902   0.96926   0.36712   0.00000  Uiso   1.00
C109   C     0.11356   0.94035   0.27031   0.00000  Uiso   1.00
C110   C     0.25793   0.97552   0.53207   0.00000  Uiso   1.00
C111   C     0.31194   0.02929   0.55103   0.00000  Uiso   1.00
C112   C     0.36555   0.02784   0.53834   0.00000  Uiso   1.00
C113   C     0.16001   0.91495   0.62087   0.00000  Uiso   1.00
C114   C     0.13170   0.91779   0.71450   0.00000  Uiso   1.00
C115   C     0.10289   0.86535   0.77659   0.00000  Uiso   1.00
H116   H     0.19300   0.82716   0.46120   0.00000  Uiso   1.00
H117   H     0.13778   0.81934   0.28128   0.00000  Uiso   1.00
H118   H     0.31066   0.87936   0.46518   0.00000  Uiso   1.00
H119   H     0.13046   0.76788   0.62862   0.00000  Uiso   1.00
H120   H     0.07678   0.83420   0.09527   0.00000  Uiso   1.00
H121   H     0.44131   0.96076   0.48305   0.00000  Uiso   1.00
H122   H     0.06132   0.72568   0.82771   0.00000  Uiso   1.00
H123   H     0.19451   0.00841   0.56500   0.00000  Uiso   1.00
H124   H     0.13938   0.01054   0.39078   0.00000  Uiso   1.00
H125   H     0.31226   0.07056   0.57467   0.00000  Uiso   1.00
H126   H     0.13206   0.95908   0.73812   0.00000  Uiso   1.00
H127   H     0.07808   0.98939   0.18413   0.00000  Uiso   1.00
H128   H     0.44262   0.11594   0.57193   0.00000  Uiso   1.00
H129   H     0.06262   0.88086   0.91658   0.00000  Uiso   1.00
O130   O     0.04115   0.90993   0.02320   0.00000  Uiso   1.00
O131   O     0.51940   0.07596   0.53198   0.00000  Uiso   1.00
O132   O     0.02086   0.76754   0.98415   0.00000  Uiso   1.00
N133   N     0.08464   0.87043   0.14010   0.00000  Uiso   1.00
N134   N     0.42546   0.98875   0.50264   0.00000  Uiso   1.00
N135   N     0.07021   0.76897   0.82488   0.00000  Uiso   1.00
N136   N     0.08534   0.95393   0.18792   0.00000  Uiso   1.00
N137   N     0.42616   0.07225   0.55046   0.00000  Uiso   1.00
N138   N     0.07091   0.85248   0.87270   0.00000  Uiso   1.00
C139   C     0.86869   0.67535   0.51502   0.00000  Uiso   1.00
C140   C     0.88957   0.72602   0.59837   0.00000  Uiso   1.00
C141   C     0.86061   0.72250   0.69510   0.00000  Uiso   1.00
C142   C     0.88692   0.77381   0.76029   0.00000  Uiso   1.00
C143   C     0.91124   0.84444   0.89439   0.00000  Uiso   1.00
C144   C     0.92218   0.66470   0.49847   0.00000  Uiso   1.00
C145   C     0.92065   0.60962   0.51119   0.00000  Uiso   1.00
C146   C     0.97441   0.60931   0.49227   0.00000  Uiso   1.00
C147   C     0.04935   0.58473   0.47119   0.00000  Uiso   1.00
C148   C     0.86161   0.70204   0.40968   0.00000  Uiso   1.00
C149   C     0.80915   0.67835   0.34771   0.00000  Uiso   1.00
C150   C     0.81191   0.70947   0.25401   0.00000  Uiso   1.00
C151   C     0.79281   0.74287   0.09507   0.00000  Uiso   1.00
C152   C     0.96688   0.77272   0.45878   0.00000  Uiso   1.00
C153   C     0.94291   0.77891   0.56782   0.00000  Uiso   1.00
C154   C     0.96926   0.83024   0.63288   0.00000  Uiso   1.00
C155   C     0.94035   0.82679   0.72969   0.00000  Uiso   1.00
C156   C     0.97552   0.71759   0.46793   0.00000  Uiso   1.00
C157   C     0.02929   0.71735   0.44897   0.00000  Uiso   1.00
C158   C     0.02784   0.66229   0.46166   0.00000  Uiso   1.00
C159   C     0.91495   0.75493   0.37913   0.00000  Uiso   1.00
C160   C     0.91779   0.78609   0.28550   0.00000  Uiso   1.00
C161   C     0.86535   0.76246   0.22341   0.00000  Uiso   1.00
H162   H     0.82716   0.63417   0.53880   0.00000  Uiso   1.00
H163   H     0.81934   0.68156   0.71872   0.00000  Uiso   1.00
H164   H     0.87936   0.56870   0.53482   0.00000  Uiso   1.00
H165   H     0.76788   0.63742   0.37138   0.00000  Uiso   1.00
H166   H     0.83420   0.75742   0.90473   0.00000  Uiso   1.00
H167   H     0.96076   0.51944   0.51695   0.00000  Uiso   1.00
H168   H     0.72568   0.66436   0.17229   0.00000  Uiso   1.00
H169   H     0.00841   0.81390   0.43500   0.00000  Uiso   1.00
H170   H     0.01054   0.87116   0.60922   0.00000  Uiso   1.00
H171   H     0.07056   0.75829   0.42533   0.00000  Uiso   1.00
H172   H     0.95908   0.82702   0.26188   0.00000  Uiso   1.00
H173   H     0.98939   0.91131   0.81587   0.00000  Uiso   1.00
H174   H     0.11594   0.67332   0.42807   0.00000  Uiso   1.00
H175   H     0.88086   0.81824   0.08342   0.00000  Uiso   1.00
O176   O     0.90993   0.86878   0.97680   0.00000  Uiso   1.00
O177   O     0.07596   0.55655   0.46802   0.00000  Uiso   1.00
O178   O     0.76754   0.74669   0.01585   0.00000  Uiso   1.00
N179   N     0.87043   0.78579   0.85990   0.00000  Uiso   1.00
N180   N     0.98875   0.56329   0.49736   0.00000  Uiso   1.00
N181   N     0.76897   0.69876   0.17512   0.00000  Uiso   1.00
N182   N     0.95393   0.86859   0.81208   0.00000  Uiso   1.00
N183   N     0.07225   0.64609   0.44954   0.00000  Uiso   1.00
N184   N     0.85248   0.78157   0.12730   0.00000  Uiso   1.00
C185   C     0.32465   0.19334   0.51502   0.00000  Uiso   1.00
C186   C     0.27398   0.16355   0.59837   0.00000  Uiso   1.00
C187   C     0.27750   0.13811   0.69510   0.00000  Uiso   1.00
C188   C     0.22619   0.11311   0.76029   0.00000  Uiso   1.00
C189   C     0.15556   0.06681   0.89439   0.00000  Uiso   1.00
C190   C     0.33530   0.25748   0.49847   0.00000  Uiso   1.00
C191   C     0.39038   0.31103   0.51119   0.00000  Uiso   1.00
C192   C     0.39069   0.36510   0.49227   0.00000  Uiso   1.00
C193   C     0.41527   0.46463   0.47119   0.00000  Uiso   1.00
C194   C     0.29796   0.15957   0.40968   0.00000  Uiso   1.00
C195   C     0.32165   0.13080   0.34771   0.00000  Uiso   1.00
C196   C     0.29053   0.10244   0.25401   0.00000  Uiso   1.00
C197   C     0.25713   0.04994   0.09507   0.00000  Uiso   1.00
C198   C     0.22728   0.19416   0.45878   0.00000  Uiso   1.00
C199   C     0.22109   0.16400   0.56782   0.00000  Uiso   1.00
C200   C     0.16976   0.13902   0.63288   0.00000  Uiso   1.00
C201   C     0.17321   0.11356   0.72969   0.00000  Uiso   1.00
C202   C     0.28241   0.25793   0.46793   0.00000  Uiso   1.00
C203   C     0.28265   0.31194   0.44897   0.00000  Uiso   1.00
C204   C     0.33771   0.36555   0.46166   0.00000  Uiso   1.00
C205   C     0.24507   0.16001   0.37913   0.00000  Uiso   1.00
C206   C     0.21391   0.13170   0.28550   0.00000  Uiso   1.00
C207   C     0.23754   0.10289   0.22341   0.00000  Uiso   1.00
H208   H     0.36583   0.19300   0.53880   0.00000  Uiso   1.00
H209   H     0.31844   0.13778   0.71872   0.00000  Uiso   1.00
H210   H     0.43130   0.31066   0.53482   0.00000  Uiso   1.00
H211   H     0.36258   0.13046   0.37138   0.00000  Uiso   1.00
H212   H     0.24258   0.07678   0.90473   0.00000  Uiso   1.00
H213   H     0.48056   0.44131   0.51695   0.00000  Uiso   1.00
H214   H     0.33564   0.06132   0.17229   0.00000  Uiso   1.00
H215   H     0.18610   0.19451   0.43500   0.00000  Uiso   1.00
H216   H     0.12884   0.13938   0.60922   0.00000  Uiso   1.00
H217   H     0.24171   0.31226   0.42533   0.00000  Uiso   1.00
H218   H     0.17298   0.13206   0.26188   0.00000  Uiso   1.00
H219   H     0.08869   0.07808   0.81587   0.00000  Uiso   1.00
H220   H     0.32668   0.44262   0.42807   0.00000  Uiso   1.00
H221   H     0.18176   0.06262   0.08342   0.00000  Uiso   1.00
O222   O     0.13122   0.04115   0.97680   0.00000  Uiso   1.00
O223   O     0.44345   0.51940   0.46802   0.00000  Uiso   1.00
O224   O     0.25331   0.02086   0.01585   0.00000  Uiso   1.00
N225   N     0.21421   0.08464   0.85990   0.00000  Uiso   1.00
N226   N     0.43671   0.42546   0.49736   0.00000  Uiso   1.00
N227   N     0.30124   0.07021   0.17512   0.00000  Uiso   1.00
N228   N     0.13141   0.08534   0.81208   0.00000  Uiso   1.00
N229   N     0.35391   0.42616   0.44954   0.00000  Uiso   1.00
N230   N     0.21843   0.07091   0.12730   0.00000  Uiso   1.00
C231   C     0.80666   0.13131   0.51502   0.00000  Uiso   1.00
C232   C     0.83645   0.11043   0.59837   0.00000  Uiso   1.00
C233   C     0.86189   0.13939   0.69510   0.00000  Uiso   1.00
C234   C     0.88689   0.11308   0.76029   0.00000  Uiso   1.00
C235   C     0.93319   0.08876   0.89439   0.00000  Uiso   1.00
C236   C     0.74252   0.07782   0.49847   0.00000  Uiso   1.00
C237   C     0.68897   0.07935   0.51119   0.00000  Uiso   1.00
C238   C     0.63490   0.02559   0.49227   0.00000  Uiso   1.00
C239   C     0.53537   0.95065   0.47119   0.00000  Uiso   1.00
C240   C     0.84043   0.13839   0.40968   0.00000  Uiso   1.00
C241   C     0.86920   0.19085   0.34771   0.00000  Uiso   1.00
C242   C     0.89756   0.18809   0.25401   0.00000  Uiso   1.00
C243   C     0.95006   0.20719   0.09507   0.00000  Uiso   1.00
C244   C     0.80584   0.03312   0.45878   0.00000  Uiso   1.00
C245   C     0.83600   0.05709   0.56782   0.00000  Uiso   1.00
C246   C     0.86098   0.03074   0.63288   0.00000  Uiso   1.00
C247   C     0.88644   0.05965   0.72969   0.00000  Uiso   1.00
C248   C     0.74207   0.02448   0.46793   0.00000  Uiso   1.00
C249   C     0.68806   0.97071   0.44897   0.00000  Uiso   1.00
C250   C     0.63445   0.97216   0.46166   0.00000  Uiso   1.00
C251   C     0.83999   0.08505   0.37913   0.00000  Uiso   1.00
C252   C     0.86830   0.08221   0.28550   0.00000  Uiso   1.00
C253   C     0.89711   0.13465   0.22341   0.00000  Uiso   1.00
H254   H     0.80700   0.17284   0.53880   0.00000  Uiso   1.00
H255   H     0.86222   0.18066   0.71872   0.00000  Uiso   1.00
H256   H     0.68934   0.12064   0.53482   0.00000  Uiso   1.00
H257   H     0.86954   0.23212   0.37138   0.00000  Uiso   1.00
H258   H     0.92322   0.16580   0.90473   0.00000  Uiso   1.00
H259   H     0.55869   0.03924   0.51695   0.00000  Uiso   1.00
H260   H     0.93868   0.27432   0.17229   0.00000  Uiso   1.00
H261   H     0.80549   0.99159   0.43500   0.00000  Uiso   1.00
H262   H     0.86062   0.98946   0.60922   0.00000  Uiso   1.00
H263   H     0.68774   0.92944   0.42533   0.00000  Uiso   1.00
H264   H     0.86794   0.04092   0.26188   0.00000  Uiso   1.00
H265   H     0.92192   0.01061   0.81587   0.00000  Uiso   1.00
H266   H     0.55738   0.88406   0.42807   0.00000  Uiso   1.00
H267   H     0.93738   0.11914   0.08342   0.00000  Uiso   1.00
O268   O     0.95885   0.09007   0.97680   0.00000  Uiso   1.00
O269   O     0.48060   0.92404   0.46802   0.00000  Uiso   1.00
O270   O     0.97914   0.23246   0.01585   0.00000  Uiso   1.00
N271   N     0.91536   0.12957   0.85990   0.00000  Uiso   1.00
N272   N     0.57454   0.01125   0.49736   0.00000  Uiso   1.00
N273   N     0.92979   0.23103   0.17512   0.00000  Uiso   1.00
N274   N     0.91466   0.04607   0.81208   0.00000  Uiso   1.00
N275   N     0.57384   0.92775   0.44954   0.00000  Uiso   1.00
N276   N     0.92909   0.14752   0.12730   0.00000  Uiso   1.00
