data_job_06075
_audit_creation_date              2018-12-19
_audit_creation_method            'Materials Studio'
_symmetry_space_group_name_H-M    'P1'
_symmetry_Int_Tables_number       1
_symmetry_cell_setting            triclinic
loop_
_symmetry_equiv_pos_as_xyz
  x,y,z
_cell_length_a                    17.1825
_cell_length_b                    15.5039
_cell_length_c                    15.0092
_cell_angle_alpha                 84.1965
_cell_angle_beta                  82.4369
_cell_angle_gamma                 83.1584
loop_
_atom_site_label
_atom_site_type_symbol
_atom_site_fract_x
_atom_site_fract_y
_atom_site_fract_z
_atom_site_U_iso_or_equiv
_atom_site_adp_type
_atom_site_occupancy
C1     C     0.12950   0.51171   0.19546   0.00000  Uiso   1.00
C2     C     0.08695   0.57913   0.13231   0.00000  Uiso   1.00
C3     C     0.09941   0.58474   0.03875   0.00000  Uiso   1.00
C4     C     0.05455   0.65108   0.99318   0.00000  Uiso   1.00
C5     C     0.99692   0.74688   0.88807   0.00000  Uiso   1.00
C6     C     0.16668   0.56333   0.25690   0.00000  Uiso   1.00
C7     C     0.24619   0.55565   0.26809   0.00000  Uiso   1.00
C8     C     0.26845   0.60870   0.32741   0.00000  Uiso   1.00
C9     C     0.33460   0.67993   0.41577   0.00000  Uiso   1.00
C10    C     0.06510   0.46657   0.25571   0.00000  Uiso   1.00
C11    C     0.05920   0.37753   0.26593   0.00000  Uiso   1.00
C12    C     0.99593   0.34910   0.32427   0.00000  Uiso   1.00
C13    C     0.90435   0.27010   0.41079   0.00000  Uiso   1.00
C14    C     0.02767   0.61955   0.28090   0.00000  Uiso   1.00
C15    C     0.03164   0.63771   0.17872   0.00000  Uiso   1.00
C16    C     0.98675   0.70406   0.13328   0.00000  Uiso   1.00
C17    C     0.99914   0.70976   0.03967   0.00000  Uiso   1.00
C18    C     0.11138   0.62191   0.30330   0.00000  Uiso   1.00
C19    C     0.13352   0.67497   0.36262   0.00000  Uiso   1.00
C20    C     0.21304   0.66738   0.37390   0.00000  Uiso   1.00
C21    C     0.00979   0.52515   0.30212   0.00000  Uiso   1.00
C22    C     0.94653   0.49685   0.36045   0.00000  Uiso   1.00
C23    C     0.94052   0.40779   0.37076   0.00000  Uiso   1.00
H24    H     0.17257   0.46610   0.15933   0.00000  Uiso   1.00
H25    H     0.14223   0.53939   0.00287   0.00000  Uiso   1.00
H26    H     0.28897   0.51031   0.23218   0.00000  Uiso   1.00
H27    H     0.10201   0.33222   0.23001   0.00000  Uiso   1.00
H28    H     0.08422   0.64651   0.84986   0.00000  Uiso   1.00
H29    H     0.39364   0.58516   0.33340   0.00000  Uiso   1.00
H30    H     0.99939   0.20961   0.32883   0.00000  Uiso   1.00
H31    H     0.98461   0.66516   0.31703   0.00000  Uiso   1.00
H32    H     0.94395   0.74938   0.16921   0.00000  Uiso   1.00
H33    H     0.09070   0.72030   0.39852   0.00000  Uiso   1.00
H34    H     0.90374   0.54220   0.39635   0.00000  Uiso   1.00
H35    H     0.92329   0.81694   0.98487   0.00000  Uiso   1.00
H36    H     0.23272   0.75559   0.46841   0.00000  Uiso   1.00
H37    H     0.83846   0.38005   0.46384   0.00000  Uiso   1.00
O38    O     0.98042   0.78355   0.81728   0.00000  Uiso   1.00
O39    O     0.38637   0.70305   0.45168   0.00000  Uiso   1.00
O40    O     0.86911   0.21035   0.44568   0.00000  Uiso   1.00
N41    N     0.05191   0.67505   0.90192   0.00000  Uiso   1.00
N42    N     0.34121   0.61770   0.35399   0.00000  Uiso   1.00
N43    N     0.97262   0.26660   0.34974   0.00000  Uiso   1.00
N44    N     0.96532   0.76676   0.97457   0.00000  Uiso   1.00
N45    N     0.25461   0.70941   0.42664   0.00000  Uiso   1.00
N46    N     0.88603   0.35830   0.42239   0.00000  Uiso   1.00
C47    C     0.19520   0.13738   0.50932   0.00000  Uiso   1.00
C48    C     0.13854   0.09120   0.57997   0.00000  Uiso   1.00
C49    C     0.05674   0.10587   0.58840   0.00000  Uiso   1.00
C50    C     0.01544   0.05698   0.65744   0.00000  Uiso   1.00
C51    C     0.92151   0.99464   0.75827   0.00000  Uiso   1.00
C52    C     0.24977   0.17792   0.56165   0.00000  Uiso   1.00
C53    C     0.26151   0.26549   0.55466   0.00000  Uiso   1.00
C54    C     0.31386   0.28960   0.60827   0.00000  Uiso   1.00
C55    C     0.39267   0.36188   0.68060   0.00000  Uiso   1.00
C56    C     0.24670   0.06564   0.46011   0.00000  Uiso   1.00
C57    C     0.25587   0.05882   0.36775   0.00000  Uiso   1.00
C58    C     0.30565   0.98840   0.33587   0.00000  Uiso   1.00
C59    C     0.37967   0.88635   0.25056   0.00000  Uiso   1.00
C60    C     0.26731   0.02446   0.61695   0.00000  Uiso   1.00
C61    C     0.17771   0.02987   0.63843   0.00000  Uiso   1.00
C62    C     0.13652   0.98094   0.70747   0.00000  Uiso   1.00
C63    C     0.05468   0.99554   0.71600   0.00000  Uiso   1.00
C64    C     0.28894   0.11659   0.62010   0.00000  Uiso   1.00
C65    C     0.34129   0.14057   0.67373   0.00000  Uiso   1.00
C66    C     0.35310   0.22816   0.66683   0.00000  Uiso   1.00
C67    C     0.28587   0.00430   0.51857   0.00000  Uiso   1.00
C68    C     0.33565   0.93389   0.48683   0.00000  Uiso   1.00
C69    C     0.34489   0.92696   0.39443   0.00000  Uiso   1.00
H70    H     0.16470   0.18513   0.46381   0.00000  Uiso   1.00
H71    H     0.02645   0.15335   0.54315   0.00000  Uiso   1.00
H72    H     0.23120   0.31294   0.50941   0.00000  Uiso   1.00
H73    H     0.22555   0.10629   0.32253   0.00000  Uiso   1.00
H74    H     0.89044   0.09108   0.65691   0.00000  Uiso   1.00
H75    H     0.32218   0.42759   0.58574   0.00000  Uiso   1.00
H76    H     0.31027   0.99184   0.19167   0.00000  Uiso   1.00
H77    H     0.29781   0.97671   0.66246   0.00000  Uiso   1.00
H78    H     0.16685   0.93349   0.75270   0.00000  Uiso   1.00
H79    H     0.37160   0.09309   0.71896   0.00000  Uiso   1.00
H80    H     0.36595   0.88644   0.53208   0.00000  Uiso   1.00
H81    H     0.00440   0.91264   0.82699   0.00000  Uiso   1.00
H82    H     0.43614   0.24916   0.75582   0.00000  Uiso   1.00
H83    H     0.42423   0.81340   0.36176   0.00000  Uiso   1.00
O84    O     0.85887   0.97721   0.79774   0.00000  Uiso   1.00
O85    O     0.42531   0.41870   0.70436   0.00000  Uiso   1.00
O86    O     0.40968   0.84700   0.18736   0.00000  Uiso   1.00
N87    N     0.93523   0.05501   0.68454   0.00000  Uiso   1.00
N88    N     0.33887   0.36963   0.61801   0.00000  Uiso   1.00
N89    N     0.32776   0.96224   0.24959   0.00000  Uiso   1.00
N90    N     0.99655   0.95899   0.77606   0.00000  Uiso   1.00
N91    N     0.40019   0.27361   0.70953   0.00000  Uiso   1.00
N92    N     0.38907   0.86623   0.34111   0.00000  Uiso   1.00
C93    C     0.52094   0.19843   0.14315   0.00000  Uiso   1.00
C94    C     0.58175   0.13513   0.09272   0.00000  Uiso   1.00
C95    C     0.58714   0.04485   0.10638   0.00000  Uiso   1.00
C96    C     0.64692   0.99851   0.05342   0.00000  Uiso   1.00
C97    C     0.73338   0.89376   0.98492   0.00000  Uiso   1.00
C98    C     0.56798   0.25822   0.18453   0.00000  Uiso   1.00
C99    C     0.56179   0.27144   0.27539   0.00000  Uiso   1.00
C100   C     0.60997   0.32873   0.29971   0.00000  Uiso   1.00
C101   C     0.67501   0.41514   0.37374   0.00000  Uiso   1.00
C102   C     0.47928   0.25555   0.07111   0.00000  Uiso   1.00
C103   C     0.39850   0.26655   0.06661   0.00000  Uiso   1.00
C104   C     0.37199   0.32161   0.99545   0.00000  Uiso   1.00
C105   C     0.29930   0.40387   0.89338   0.00000  Uiso   1.00
C106   C     0.61750   0.27668   0.02480   0.00000  Uiso   1.00
C107   C     0.63420   0.17764   0.02844   0.00000  Uiso   1.00
C108   C     0.69397   0.13142   0.97544   0.00000  Uiso   1.00
C109   C     0.69946   0.04108   0.98902   0.00000  Uiso   1.00
C110   C     0.62043   0.30073   0.12025   0.00000  Uiso   1.00
C111   C     0.66862   0.35801   0.14445   0.00000  Uiso   1.00
C112   C     0.66251   0.37131   0.23531   0.00000  Uiso   1.00
C113   C     0.53172   0.29805   0.00682   0.00000  Uiso   1.00
C114   C     0.50533   0.35312   0.93566   0.00000  Uiso   1.00
C115   C     0.42453   0.36419   0.93106   0.00000  Uiso   1.00
H116   H     0.48011   0.16535   0.19320   0.00000  Uiso   1.00
H117   H     0.54655   0.01199   0.15615   0.00000  Uiso   1.00
H118   H     0.52119   0.23855   0.32512   0.00000  Uiso   1.00
H119   H     0.35793   0.23365   0.11637   0.00000  Uiso   1.00
H120   H     0.64335   0.86070   0.08673   0.00000  Uiso   1.00
H121   H     0.58987   0.33845   0.44302   0.00000  Uiso   1.00
H122   H     0.24559   0.32812   0.00284   0.00000  Uiso   1.00
H123   H     0.65833   0.30977   0.97475   0.00000  Uiso   1.00
H124   H     0.73455   0.16433   0.92570   0.00000  Uiso   1.00
H125   H     0.70919   0.39089   0.09468   0.00000  Uiso   1.00
H126   H     0.54593   0.38599   0.88593   0.00000  Uiso   1.00
H127   H     0.79595   0.98434   0.89969   0.00000  Uiso   1.00
H128   H     0.74246   0.46210   0.25599   0.00000  Uiso   1.00
H129   H     0.39818   0.45177   0.81580   0.00000  Uiso   1.00
O130   O     0.76659   0.82424   0.96491   0.00000  Uiso   1.00
O131   O     0.69641   0.45104   0.43234   0.00000  Uiso   1.00
O132   O     0.24473   0.43749   0.85483   0.00000  Uiso   1.00
N133   N     0.66880   0.90976   0.04943   0.00000  Uiso   1.00
N134   N     0.61880   0.35642   0.38254   0.00000  Uiso   1.00
N135   N     0.29693   0.34678   0.97102   0.00000  Uiso   1.00
N136   N     0.75090   0.97629   0.94879   0.00000  Uiso   1.00
N137   N     0.70091   0.42295   0.28190   0.00000  Uiso   1.00
N138   N     0.37904   0.41331   0.87038   0.00000  Uiso   1.00
C139   C     0.87050   0.48829   0.80454   0.00000  Uiso   1.00
C140   C     0.91305   0.42087   0.86769   0.00000  Uiso   1.00
C141   C     0.90059   0.41527   0.96125   0.00000  Uiso   1.00
C142   C     0.94545   0.34892   0.00682   0.00000  Uiso   1.00
C143   C     0.00308   0.25312   0.11193   0.00000  Uiso   1.00
C144   C     0.83331   0.43667   0.74310   0.00000  Uiso   1.00
C145   C     0.75381   0.44435   0.73191   0.00000  Uiso   1.00
C146   C     0.73155   0.39130   0.67259   0.00000  Uiso   1.00
C147   C     0.66540   0.32007   0.58423   0.00000  Uiso   1.00
C148   C     0.93490   0.53343   0.74429   0.00000  Uiso   1.00
C149   C     0.94080   0.62247   0.73407   0.00000  Uiso   1.00
C150   C     0.00407   0.65090   0.67573   0.00000  Uiso   1.00
C151   C     0.09565   0.72990   0.58921   0.00000  Uiso   1.00
C152   C     0.97233   0.38045   0.71910   0.00000  Uiso   1.00
C153   C     0.96836   0.36229   0.82128   0.00000  Uiso   1.00
C154   C     0.01325   0.29594   0.86672   0.00000  Uiso   1.00
C155   C     0.00086   0.29024   0.96033   0.00000  Uiso   1.00
C156   C     0.88862   0.37809   0.69670   0.00000  Uiso   1.00
C157   C     0.86648   0.32503   0.63738   0.00000  Uiso   1.00
C158   C     0.78696   0.33262   0.62610   0.00000  Uiso   1.00
C159   C     0.99021   0.47485   0.69788   0.00000  Uiso   1.00
C160   C     0.05347   0.50315   0.63955   0.00000  Uiso   1.00
C161   C     0.05948   0.59221   0.62924   0.00000  Uiso   1.00
H162   H     0.82743   0.53390   0.84067   0.00000  Uiso   1.00
H163   H     0.85777   0.46061   0.99713   0.00000  Uiso   1.00
H164   H     0.71103   0.48969   0.76782   0.00000  Uiso   1.00
H165   H     0.89799   0.66778   0.76999   0.00000  Uiso   1.00
H166   H     0.91578   0.35349   0.15014   0.00000  Uiso   1.00
H167   H     0.60636   0.41484   0.66660   0.00000  Uiso   1.00
H168   H     0.00061   0.79039   0.67117   0.00000  Uiso   1.00
H169   H     0.01539   0.33484   0.68297   0.00000  Uiso   1.00
H170   H     0.05605   0.25062   0.83079   0.00000  Uiso   1.00
H171   H     0.90930   0.27970   0.60148   0.00000  Uiso   1.00
H172   H     0.09626   0.45780   0.60365   0.00000  Uiso   1.00
H173   H     0.07671   0.18306   0.01513   0.00000  Uiso   1.00
H174   H     0.76728   0.24441   0.53159   0.00000  Uiso   1.00
H175   H     0.16154   0.61995   0.53616   0.00000  Uiso   1.00
O176   O     0.01958   0.21645   0.18272   0.00000  Uiso   1.00
O177   O     0.61363   0.29695   0.54832   0.00000  Uiso   1.00
O178   O     0.13089   0.78965   0.55432   0.00000  Uiso   1.00
N179   N     0.94809   0.32495   0.09808   0.00000  Uiso   1.00
N180   N     0.65879   0.38230   0.64601   0.00000  Uiso   1.00
N181   N     0.02738   0.73340   0.65026   0.00000  Uiso   1.00
N182   N     0.03468   0.23324   0.02543   0.00000  Uiso   1.00
N183   N     0.74539   0.29059   0.57336   0.00000  Uiso   1.00
N184   N     0.11397   0.64170   0.57761   0.00000  Uiso   1.00
C185   C     0.80480   0.86262   0.49068   0.00000  Uiso   1.00
C186   C     0.86146   0.90880   0.42003   0.00000  Uiso   1.00
C187   C     0.94326   0.89413   0.41160   0.00000  Uiso   1.00
C188   C     0.98456   0.94302   0.34256   0.00000  Uiso   1.00
C189   C     0.07849   0.00536   0.24173   0.00000  Uiso   1.00
C190   C     0.75023   0.82208   0.43835   0.00000  Uiso   1.00
C191   C     0.73849   0.73451   0.44534   0.00000  Uiso   1.00
C192   C     0.68614   0.71040   0.39173   0.00000  Uiso   1.00
C193   C     0.60733   0.63812   0.31939   0.00000  Uiso   1.00
C194   C     0.75330   0.93436   0.53989   0.00000  Uiso   1.00
C195   C     0.74413   0.94118   0.63225   0.00000  Uiso   1.00
C196   C     0.69435   0.01160   0.66413   0.00000  Uiso   1.00
C197   C     0.62032   0.11365   0.74944   0.00000  Uiso   1.00
C198   C     0.73269   0.97554   0.38305   0.00000  Uiso   1.00
C199   C     0.82229   0.97013   0.36157   0.00000  Uiso   1.00
C200   C     0.86347   0.01906   0.29253   0.00000  Uiso   1.00
C201   C     0.94532   0.00446   0.28400   0.00000  Uiso   1.00
C202   C     0.71106   0.88341   0.37990   0.00000  Uiso   1.00
C203   C     0.65870   0.85943   0.32627   0.00000  Uiso   1.00
C204   C     0.64690   0.77184   0.33317   0.00000  Uiso   1.00
C205   C     0.71413   0.99570   0.48143   0.00000  Uiso   1.00
C206   C     0.66435   0.06611   0.51317   0.00000  Uiso   1.00
C207   C     0.65511   0.07304   0.60557   0.00000  Uiso   1.00
H208   H     0.83529   0.81487   0.53619   0.00000  Uiso   1.00
H209   H     0.97355   0.84665   0.45685   0.00000  Uiso   1.00
H210   H     0.76880   0.68706   0.49059   0.00000  Uiso   1.00
H211   H     0.77445   0.89371   0.67747   0.00000  Uiso   1.00
H212   H     0.10956   0.90892   0.34309   0.00000  Uiso   1.00
H213   H     0.67782   0.57241   0.41426   0.00000  Uiso   1.00
H214   H     0.68973   0.00816   0.80833   0.00000  Uiso   1.00
H215   H     0.70219   0.02329   0.33754   0.00000  Uiso   1.00
H216   H     0.83315   0.06651   0.24730   0.00000  Uiso   1.00
H217   H     0.62840   0.90691   0.28104   0.00000  Uiso   1.00
H218   H     0.63405   0.11356   0.46791   0.00000  Uiso   1.00
H219   H     0.99560   0.08736   0.17301   0.00000  Uiso   1.00
H220   H     0.56386   0.75084   0.24418   0.00000  Uiso   1.00
H221   H     0.57577   0.18660   0.63824   0.00000  Uiso   1.00
O222   O     0.14113   0.02279   0.20226   0.00000  Uiso   1.00
O223   O     0.57469   0.58130   0.29564   0.00000  Uiso   1.00
O224   O     0.59032   0.15300   0.81264   0.00000  Uiso   1.00
N225   N     0.06477   0.94499   0.31546   0.00000  Uiso   1.00
N226   N     0.66113   0.63037   0.38199   0.00000  Uiso   1.00
N227   N     0.67224   0.03776   0.75041   0.00000  Uiso   1.00
N228   N     0.00345   0.04101   0.22394   0.00000  Uiso   1.00
N229   N     0.59981   0.72639   0.29047   0.00000  Uiso   1.00
N230   N     0.61093   0.13377   0.65889   0.00000  Uiso   1.00
C231   C     0.47906   0.80157   0.85685   0.00000  Uiso   1.00
C232   C     0.41825   0.86487   0.90728   0.00000  Uiso   1.00
C233   C     0.41286   0.95515   0.89362   0.00000  Uiso   1.00
C234   C     0.35308   0.00149   0.94657   0.00000  Uiso   1.00
C235   C     0.26662   0.10624   0.01508   0.00000  Uiso   1.00
C236   C     0.43202   0.74178   0.81547   0.00000  Uiso   1.00
C237   C     0.43821   0.72856   0.72461   0.00000  Uiso   1.00
C238   C     0.39003   0.67127   0.70029   0.00000  Uiso   1.00
C239   C     0.32499   0.58486   0.62626   0.00000  Uiso   1.00
C240   C     0.52072   0.74445   0.92889   0.00000  Uiso   1.00
C241   C     0.60150   0.73345   0.93339   0.00000  Uiso   1.00
C242   C     0.62801   0.67839   0.00455   0.00000  Uiso   1.00
C243   C     0.70070   0.59613   0.10662   0.00000  Uiso   1.00
C244   C     0.38250   0.72332   0.97520   0.00000  Uiso   1.00
C245   C     0.36580   0.82236   0.97156   0.00000  Uiso   1.00
C246   C     0.30603   0.86858   0.02456   0.00000  Uiso   1.00
C247   C     0.30054   0.95892   0.01098   0.00000  Uiso   1.00
C248   C     0.37957   0.69927   0.87975   0.00000  Uiso   1.00
C249   C     0.33138   0.64199   0.85555   0.00000  Uiso   1.00
C250   C     0.33749   0.62869   0.76469   0.00000  Uiso   1.00
C251   C     0.46828   0.70195   0.99318   0.00000  Uiso   1.00
C252   C     0.49467   0.64688   0.06433   0.00000  Uiso   1.00
C253   C     0.57547   0.63581   0.06894   0.00000  Uiso   1.00
H254   H     0.51989   0.83465   0.80679   0.00000  Uiso   1.00
H255   H     0.45345   0.98801   0.84385   0.00000  Uiso   1.00
H256   H     0.47881   0.76145   0.67488   0.00000  Uiso   1.00
H257   H     0.64207   0.76635   0.88363   0.00000  Uiso   1.00
H258   H     0.35665   0.13930   0.91327   0.00000  Uiso   1.00
H259   H     0.41013   0.66155   0.55698   0.00000  Uiso   1.00
H260   H     0.75441   0.67188   0.99716   0.00000  Uiso   1.00
H261   H     0.34167   0.69023   0.02525   0.00000  Uiso   1.00
H262   H     0.26545   0.83567   0.07430   0.00000  Uiso   1.00
H263   H     0.29081   0.60911   0.90532   0.00000  Uiso   1.00
H264   H     0.45407   0.61401   0.11407   0.00000  Uiso   1.00
H265   H     0.20405   0.01566   0.10031   0.00000  Uiso   1.00
H266   H     0.25754   0.53790   0.74401   0.00000  Uiso   1.00
H267   H     0.60182   0.54823   0.18420   0.00000  Uiso   1.00
O268   O     0.23341   0.17576   0.03509   0.00000  Uiso   1.00
O269   O     0.30359   0.54896   0.56766   0.00000  Uiso   1.00
O270   O     0.75527   0.56251   0.14517   0.00000  Uiso   1.00
N271   N     0.33120   0.09024   0.95057   0.00000  Uiso   1.00
N272   N     0.38120   0.64358   0.61746   0.00000  Uiso   1.00
N273   N     0.70307   0.65322   0.02898   0.00000  Uiso   1.00
N274   N     0.24910   0.02371   0.05121   0.00000  Uiso   1.00
N275   N     0.29909   0.57705   0.71810   0.00000  Uiso   1.00
N276   N     0.62096   0.58669   0.12962   0.00000  Uiso   1.00
