data_job_02924
_audit_creation_date              2018-12-19
_audit_creation_method            'Materials Studio'
_symmetry_space_group_name_H-M    'P1'
_symmetry_Int_Tables_number       1
_symmetry_cell_setting            triclinic
loop_
_symmetry_equiv_pos_as_xyz
  x,y,z
_cell_length_a                    12.2830
_cell_length_b                    23.8260
_cell_length_c                    11.9240
_cell_angle_alpha                 90.0000
_cell_angle_beta                  72.2370
_cell_angle_gamma                 90.0000
loop_
_atom_site_label
_atom_site_type_symbol
_atom_site_fract_x
_atom_site_fract_y
_atom_site_fract_z
_atom_site_U_iso_or_equiv
_atom_site_adp_type
_atom_site_occupancy
C1     C     0.84212   0.90219   0.51680   0.00000  Uiso   1.00
C2     C     0.84751   0.84046   0.48177   0.00000  Uiso   1.00
C3     C     0.94417   0.80674   0.45498   0.00000  Uiso   1.00
C4     C     0.93144   0.75136   0.42497   0.00000  Uiso   1.00
C5     C     0.95589   0.65868   0.37098   0.00000  Uiso   1.00
C6     C     0.79598   0.93336   0.42918   0.00000  Uiso   1.00
C7     C     0.84931   0.97775   0.35820   0.00000  Uiso   1.00
C8     C     0.79319   0.00058   0.28393   0.00000  Uiso   1.00
C9     C     0.73761   0.05217   0.14837   0.00000  Uiso   1.00
C10    C     0.74958   0.90645   0.63555   0.00000  Uiso   1.00
C11    C     0.76389   0.92824   0.73807   0.00000  Uiso   1.00
C12    C     0.66870   0.92842   0.83755   0.00000  Uiso   1.00
C13    C     0.54107   0.93823   0.02240   0.00000  Uiso   1.00
C14    C     0.64761   0.86380   0.51113   0.00000  Uiso   1.00
C15    C     0.74186   0.81961   0.47868   0.00000  Uiso   1.00
C16    C     0.72897   0.76426   0.44871   0.00000  Uiso   1.00
C17    C     0.82560   0.73047   0.42189   0.00000  Uiso   1.00
C18    C     0.69033   0.91251   0.42610   0.00000  Uiso   1.00
C19    C     0.63411   0.93528   0.35193   0.00000  Uiso   1.00
C20    C     0.68735   0.97970   0.28084   0.00000  Uiso   1.00
C21    C     0.64393   0.88560   0.63247   0.00000  Uiso   1.00
C22    C     0.54869   0.88576   0.73180   0.00000  Uiso   1.00
C23    C     0.56286   0.90754   0.83446   0.00000  Uiso   1.00
H24    H     0.92437   0.91842   0.51919   0.00000  Uiso   1.00
H25    H     0.02592   0.82289   0.45736   0.00000  Uiso   1.00
H26    H     0.93107   0.99388   0.36061   0.00000  Uiso   1.00
H27    H     0.84566   0.94437   0.74042   0.00000  Uiso   1.00
H28    H     0.09193   0.70778   0.38742   0.00000  Uiso   1.00
H29    H     0.89191   0.06834   0.18343   0.00000  Uiso   1.00
H30    H     0.71181   0.96393   0.98435   0.00000  Uiso   1.00
H31    H     0.56535   0.84757   0.50873   0.00000  Uiso   1.00
H32    H     0.64720   0.74814   0.44633   0.00000  Uiso   1.00
H33    H     0.55236   0.91914   0.34957   0.00000  Uiso   1.00
H34    H     0.46695   0.86962   0.72939   0.00000  Uiso   1.00
H35    H     0.78455   0.64711   0.37846   0.00000  Uiso   1.00
H36    H     0.58453   0.00768   0.17448   0.00000  Uiso   1.00
H37    H     0.40443   0.90327   0.97539   0.00000  Uiso   1.00
O38    O     0.99857   0.61332   0.34204   0.00000  Uiso   1.00
O39    O     0.73614   0.08637   0.07444   0.00000  Uiso   1.00
O40    O     0.49986   0.94939   0.12522   0.00000  Uiso   1.00
N41    N     0.00835   0.70714   0.39390   0.00000  Uiso   1.00
N42    N     0.82135   0.04424   0.20317   0.00000  Uiso   1.00
N43    N     0.65296   0.94664   0.95195   0.00000  Uiso   1.00
N44    N     0.84295   0.67450   0.38908   0.00000  Uiso   1.00
N45    N     0.65595   0.01160   0.19835   0.00000  Uiso   1.00
N46    N     0.48757   0.91400   0.94713   0.00000  Uiso   1.00
C47    C     0.15788   0.40219   0.98320   0.00000  Uiso   1.00
C48    C     0.15249   0.34046   0.01823   0.00000  Uiso   1.00
C49    C     0.05583   0.30674   0.04502   0.00000  Uiso   1.00
C50    C     0.06856   0.25136   0.07503   0.00000  Uiso   1.00
C51    C     0.04411   0.15868   0.12902   0.00000  Uiso   1.00
C52    C     0.20402   0.43336   0.07082   0.00000  Uiso   1.00
C53    C     0.15069   0.47775   0.14180   0.00000  Uiso   1.00
C54    C     0.20681   0.50058   0.21607   0.00000  Uiso   1.00
C55    C     0.26239   0.55217   0.35163   0.00000  Uiso   1.00
C56    C     0.25042   0.40645   0.86445   0.00000  Uiso   1.00
C57    C     0.23611   0.42824   0.76193   0.00000  Uiso   1.00
C58    C     0.33130   0.42842   0.66245   0.00000  Uiso   1.00
C59    C     0.45893   0.43823   0.47760   0.00000  Uiso   1.00
C60    C     0.35239   0.36380   0.98887   0.00000  Uiso   1.00
C61    C     0.25814   0.31961   0.02132   0.00000  Uiso   1.00
C62    C     0.27103   0.26426   0.05129   0.00000  Uiso   1.00
C63    C     0.17440   0.23047   0.07811   0.00000  Uiso   1.00
C64    C     0.30967   0.41251   0.07390   0.00000  Uiso   1.00
C65    C     0.36589   0.43528   0.14807   0.00000  Uiso   1.00
C66    C     0.31265   0.47970   0.21916   0.00000  Uiso   1.00
C67    C     0.35607   0.38560   0.86753   0.00000  Uiso   1.00
C68    C     0.45131   0.38576   0.76820   0.00000  Uiso   1.00
C69    C     0.43714   0.40754   0.66554   0.00000  Uiso   1.00
H70    H     0.07563   0.41842   0.98081   0.00000  Uiso   1.00
H71    H     0.97408   0.32289   0.04264   0.00000  Uiso   1.00
H72    H     0.06893   0.49388   0.13939   0.00000  Uiso   1.00
H73    H     0.15434   0.44437   0.75958   0.00000  Uiso   1.00
H74    H     0.90807   0.20778   0.11258   0.00000  Uiso   1.00
H75    H     0.10809   0.56834   0.31657   0.00000  Uiso   1.00
H76    H     0.28819   0.46393   0.51565   0.00000  Uiso   1.00
H77    H     0.43465   0.34757   0.99127   0.00000  Uiso   1.00
H78    H     0.35280   0.24814   0.05367   0.00000  Uiso   1.00
H79    H     0.44764   0.41914   0.15043   0.00000  Uiso   1.00
H80    H     0.53305   0.36962   0.77061   0.00000  Uiso   1.00
H81    H     0.21545   0.14711   0.12154   0.00000  Uiso   1.00
H82    H     0.41547   0.50768   0.32552   0.00000  Uiso   1.00
H83    H     0.59557   0.40327   0.52461   0.00000  Uiso   1.00
O84    O     0.00143   0.11332   0.15796   0.00000  Uiso   1.00
O85    O     0.26386   0.58637   0.42556   0.00000  Uiso   1.00
O86    O     0.50014   0.44939   0.37478   0.00000  Uiso   1.00
N87    N     0.99165   0.20714   0.10610   0.00000  Uiso   1.00
N88    N     0.17865   0.54424   0.29683   0.00000  Uiso   1.00
N89    N     0.34704   0.44664   0.54805   0.00000  Uiso   1.00
N90    N     0.15705   0.17450   0.11092   0.00000  Uiso   1.00
N91    N     0.34405   0.51160   0.30165   0.00000  Uiso   1.00
N92    N     0.51243   0.41400   0.55287   0.00000  Uiso   1.00
C93    C     0.15788   0.09781   0.48320   0.00000  Uiso   1.00
C94    C     0.15249   0.15954   0.51823   0.00000  Uiso   1.00
C95    C     0.05583   0.19326   0.54502   0.00000  Uiso   1.00
C96    C     0.06856   0.24864   0.57503   0.00000  Uiso   1.00
C97    C     0.04411   0.34132   0.62902   0.00000  Uiso   1.00
C98    C     0.20402   0.06664   0.57082   0.00000  Uiso   1.00
C99    C     0.15069   0.02225   0.64180   0.00000  Uiso   1.00
C100   C     0.20681   0.99942   0.71607   0.00000  Uiso   1.00
C101   C     0.26239   0.94783   0.85163   0.00000  Uiso   1.00
C102   C     0.25042   0.09355   0.36445   0.00000  Uiso   1.00
C103   C     0.23611   0.07176   0.26193   0.00000  Uiso   1.00
C104   C     0.33130   0.07158   0.16245   0.00000  Uiso   1.00
C105   C     0.45893   0.06177   0.97760   0.00000  Uiso   1.00
C106   C     0.35239   0.13620   0.48887   0.00000  Uiso   1.00
C107   C     0.25814   0.18039   0.52132   0.00000  Uiso   1.00
C108   C     0.27103   0.23574   0.55129   0.00000  Uiso   1.00
C109   C     0.17440   0.26953   0.57811   0.00000  Uiso   1.00
C110   C     0.30967   0.08749   0.57390   0.00000  Uiso   1.00
C111   C     0.36589   0.06472   0.64807   0.00000  Uiso   1.00
C112   C     0.31265   0.02030   0.71916   0.00000  Uiso   1.00
C113   C     0.35607   0.11440   0.36753   0.00000  Uiso   1.00
C114   C     0.45131   0.11424   0.26820   0.00000  Uiso   1.00
C115   C     0.43714   0.09246   0.16554   0.00000  Uiso   1.00
H116   H     0.07563   0.08158   0.48081   0.00000  Uiso   1.00
H117   H     0.97408   0.17711   0.54264   0.00000  Uiso   1.00
H118   H     0.06893   0.00612   0.63939   0.00000  Uiso   1.00
H119   H     0.15434   0.05563   0.25958   0.00000  Uiso   1.00
H120   H     0.90807   0.29222   0.61258   0.00000  Uiso   1.00
H121   H     0.10809   0.93166   0.81657   0.00000  Uiso   1.00
H122   H     0.28819   0.03607   0.01565   0.00000  Uiso   1.00
H123   H     0.43465   0.15243   0.49127   0.00000  Uiso   1.00
H124   H     0.35280   0.25186   0.55367   0.00000  Uiso   1.00
H125   H     0.44764   0.08086   0.65043   0.00000  Uiso   1.00
H126   H     0.53305   0.13038   0.27061   0.00000  Uiso   1.00
H127   H     0.21545   0.35289   0.62154   0.00000  Uiso   1.00
H128   H     0.41547   0.99232   0.82552   0.00000  Uiso   1.00
H129   H     0.59557   0.09673   0.02461   0.00000  Uiso   1.00
O130   O     0.00143   0.38668   0.65796   0.00000  Uiso   1.00
O131   O     0.26386   0.91363   0.92556   0.00000  Uiso   1.00
O132   O     0.50014   0.05061   0.87478   0.00000  Uiso   1.00
N133   N     0.99165   0.29286   0.60610   0.00000  Uiso   1.00
N134   N     0.17865   0.95576   0.79683   0.00000  Uiso   1.00
N135   N     0.34704   0.05336   0.04805   0.00000  Uiso   1.00
N136   N     0.15705   0.32550   0.61092   0.00000  Uiso   1.00
N137   N     0.34405   0.98840   0.80165   0.00000  Uiso   1.00
N138   N     0.51243   0.08600   0.05287   0.00000  Uiso   1.00
C139   C     0.84212   0.59781   0.01680   0.00000  Uiso   1.00
C140   C     0.84751   0.65954   0.98177   0.00000  Uiso   1.00
C141   C     0.94417   0.69326   0.95498   0.00000  Uiso   1.00
C142   C     0.93144   0.74864   0.92497   0.00000  Uiso   1.00
C143   C     0.95589   0.84132   0.87098   0.00000  Uiso   1.00
C144   C     0.79598   0.56664   0.92918   0.00000  Uiso   1.00
C145   C     0.84931   0.52225   0.85820   0.00000  Uiso   1.00
C146   C     0.79319   0.49942   0.78393   0.00000  Uiso   1.00
C147   C     0.73761   0.44783   0.64837   0.00000  Uiso   1.00
C148   C     0.74958   0.59355   0.13555   0.00000  Uiso   1.00
C149   C     0.76389   0.57176   0.23807   0.00000  Uiso   1.00
C150   C     0.66870   0.57158   0.33755   0.00000  Uiso   1.00
C151   C     0.54107   0.56177   0.52240   0.00000  Uiso   1.00
C152   C     0.64761   0.63620   0.01113   0.00000  Uiso   1.00
C153   C     0.74186   0.68039   0.97868   0.00000  Uiso   1.00
C154   C     0.72897   0.73574   0.94871   0.00000  Uiso   1.00
C155   C     0.82560   0.76953   0.92189   0.00000  Uiso   1.00
C156   C     0.69033   0.58749   0.92610   0.00000  Uiso   1.00
C157   C     0.63411   0.56472   0.85193   0.00000  Uiso   1.00
C158   C     0.68735   0.52030   0.78084   0.00000  Uiso   1.00
C159   C     0.64393   0.61440   0.13247   0.00000  Uiso   1.00
C160   C     0.54869   0.61424   0.23180   0.00000  Uiso   1.00
C161   C     0.56286   0.59246   0.33446   0.00000  Uiso   1.00
H162   H     0.92437   0.58158   0.01919   0.00000  Uiso   1.00
H163   H     0.02592   0.67711   0.95736   0.00000  Uiso   1.00
H164   H     0.93107   0.50612   0.86061   0.00000  Uiso   1.00
H165   H     0.84566   0.55563   0.24042   0.00000  Uiso   1.00
H166   H     0.09193   0.79222   0.88742   0.00000  Uiso   1.00
H167   H     0.89191   0.43166   0.68343   0.00000  Uiso   1.00
H168   H     0.71181   0.53607   0.48435   0.00000  Uiso   1.00
H169   H     0.56535   0.65243   0.00873   0.00000  Uiso   1.00
H170   H     0.64720   0.75186   0.94633   0.00000  Uiso   1.00
H171   H     0.55236   0.58086   0.84957   0.00000  Uiso   1.00
H172   H     0.46695   0.63038   0.22939   0.00000  Uiso   1.00
H173   H     0.78455   0.85289   0.87846   0.00000  Uiso   1.00
H174   H     0.58453   0.49232   0.67448   0.00000  Uiso   1.00
H175   H     0.40443   0.59673   0.47539   0.00000  Uiso   1.00
O176   O     0.99857   0.88668   0.84204   0.00000  Uiso   1.00
O177   O     0.73614   0.41363   0.57444   0.00000  Uiso   1.00
O178   O     0.49986   0.55061   0.62522   0.00000  Uiso   1.00
N179   N     0.00835   0.79286   0.89390   0.00000  Uiso   1.00
N180   N     0.82135   0.45576   0.70317   0.00000  Uiso   1.00
N181   N     0.65296   0.55336   0.45195   0.00000  Uiso   1.00
N182   N     0.84295   0.82550   0.88908   0.00000  Uiso   1.00
N183   N     0.65595   0.48840   0.69835   0.00000  Uiso   1.00
N184   N     0.48757   0.58600   0.44713   0.00000  Uiso   1.00
