data_job_01435
_audit_creation_date              2018-12-19
_audit_creation_method            'Materials Studio'
_symmetry_space_group_name_H-M    'P1'
_symmetry_Int_Tables_number       1
_symmetry_cell_setting            triclinic
loop_
_symmetry_equiv_pos_as_xyz
  x,y,z
_cell_length_a                    23.3333
_cell_length_b                    27.1552
_cell_length_c                    10.4940
_cell_angle_alpha                 90.0000
_cell_angle_beta                  115.6889
_cell_angle_gamma                 90.0000
loop_
_atom_site_label
_atom_site_type_symbol
_atom_site_fract_x
_atom_site_fract_y
_atom_site_fract_z
_atom_site_U_iso_or_equiv
_atom_site_adp_type
_atom_site_occupancy
C1     C     0.69440   0.46017   0.37913   0.00000  Uiso   1.00
C2     C     0.70587   0.41769   0.29795   0.00000  Uiso   1.00
C3     C     0.69400   0.41849   0.15644   0.00000  Uiso   1.00
C4     C     0.70767   0.37588   0.10183   0.00000  Uiso   1.00
C5     C     0.72169   0.31627   0.96299   0.00000  Uiso   1.00
C6     C     0.65042   0.44010   0.43993   0.00000  Uiso   1.00
C7     C     0.59193   0.45974   0.41780   0.00000  Uiso   1.00
C8     C     0.55892   0.43600   0.48272   0.00000  Uiso   1.00
C9     C     0.48687   0.41121   0.56439   0.00000  Uiso   1.00
C10    C     0.75803   0.46990   0.50548   0.00000  Uiso   1.00
C11    C     0.79002   0.51459   0.53850   0.00000  Uiso   1.00
C12    C     0.84761   0.51594   0.65864   0.00000  Uiso   1.00
C13    C     0.94265   0.53741   0.84209   0.00000  Uiso   1.00
C14    C     0.73980   0.38309   0.53379   0.00000  Uiso   1.00
C15    C     0.73052   0.37582   0.38196   0.00000  Uiso   1.00
C16    C     0.74422   0.33320   0.32756   0.00000  Uiso   1.00
C17    C     0.73237   0.33393   0.18599   0.00000  Uiso   1.00
C18    C     0.67507   0.39823   0.52393   0.00000  Uiso   1.00
C19    C     0.64215   0.37446   0.58891   0.00000  Uiso   1.00
C20    C     0.58362   0.39405   0.56688   0.00000  Uiso   1.00
C21    C     0.78268   0.42803   0.58949   0.00000  Uiso   1.00
C22    C     0.84024   0.42930   0.70961   0.00000  Uiso   1.00
C23    C     0.87231   0.47399   0.74280   0.00000  Uiso   1.00
H24    H     0.67521   0.49277   0.31373   0.00000  Uiso   1.00
H25    H     0.67491   0.45090   0.09146   0.00000  Uiso   1.00
H26    H     0.57286   0.49215   0.35280   0.00000  Uiso   1.00
H27    H     0.77092   0.54699   0.47347   0.00000  Uiso   1.00
H28    H     0.68544   0.38600   0.88207   0.00000  Uiso   1.00
H29    H     0.47027   0.47299   0.43315   0.00000  Uiso   1.00
H30    H     0.88792   0.58863   0.68762   0.00000  Uiso   1.00
H31    H     0.75899   0.35049   0.59920   0.00000  Uiso   1.00
H32    H     0.76330   0.30080   0.39259   0.00000  Uiso   1.00
H33    H     0.66124   0.34206   0.65392   0.00000  Uiso   1.00
H34    H     0.85930   0.39689   0.77459   0.00000  Uiso   1.00
H35    H     0.75717   0.26418   0.12647   0.00000  Uiso   1.00
H36    H     0.54200   0.35117   0.67756   0.00000  Uiso   1.00
H37    H     0.95965   0.46681   0.93202   0.00000  Uiso   1.00
O38    O     0.72260   0.29496   0.86320   0.00000  Uiso   1.00
O39    O     0.44032   0.40910   0.58621   0.00000  Uiso   1.00
O40    O     0.98826   0.56082   0.92006   0.00000  Uiso   1.00
N41    N     0.70174   0.36415   0.96795   0.00000  Uiso   1.00
N42    N     0.50056   0.44548   0.48316   0.00000  Uiso   1.00
N43    N     0.89102   0.55359   0.72109   0.00000  Uiso   1.00
N44    N     0.74034   0.29860   0.09946   0.00000  Uiso   1.00
N45    N     0.53916   0.37993   0.61467   0.00000  Uiso   1.00
N46    N     0.92962   0.48804   0.85260   0.00000  Uiso   1.00
C47    C     0.19440   0.96017   0.37913   0.00000  Uiso   1.00
C48    C     0.20587   0.91769   0.29795   0.00000  Uiso   1.00
C49    C     0.19400   0.91849   0.15644   0.00000  Uiso   1.00
C50    C     0.20767   0.87588   0.10183   0.00000  Uiso   1.00
C51    C     0.22169   0.81627   0.96299   0.00000  Uiso   1.00
C52    C     0.15042   0.94010   0.43993   0.00000  Uiso   1.00
C53    C     0.09193   0.95974   0.41780   0.00000  Uiso   1.00
C54    C     0.05892   0.93600   0.48272   0.00000  Uiso   1.00
C55    C     0.98687   0.91121   0.56439   0.00000  Uiso   1.00
C56    C     0.25803   0.96990   0.50548   0.00000  Uiso   1.00
C57    C     0.29002   0.01459   0.53850   0.00000  Uiso   1.00
C58    C     0.34761   0.01594   0.65864   0.00000  Uiso   1.00
C59    C     0.44265   0.03741   0.84209   0.00000  Uiso   1.00
C60    C     0.23980   0.88309   0.53379   0.00000  Uiso   1.00
C61    C     0.23052   0.87582   0.38196   0.00000  Uiso   1.00
C62    C     0.24422   0.83320   0.32756   0.00000  Uiso   1.00
C63    C     0.23237   0.83393   0.18599   0.00000  Uiso   1.00
C64    C     0.17507   0.89823   0.52393   0.00000  Uiso   1.00
C65    C     0.14215   0.87446   0.58891   0.00000  Uiso   1.00
C66    C     0.08362   0.89405   0.56688   0.00000  Uiso   1.00
C67    C     0.28268   0.92803   0.58949   0.00000  Uiso   1.00
C68    C     0.34024   0.92930   0.70961   0.00000  Uiso   1.00
C69    C     0.37231   0.97399   0.74280   0.00000  Uiso   1.00
H70    H     0.17521   0.99277   0.31373   0.00000  Uiso   1.00
H71    H     0.17491   0.95090   0.09146   0.00000  Uiso   1.00
H72    H     0.07286   0.99215   0.35280   0.00000  Uiso   1.00
H73    H     0.27092   0.04699   0.47347   0.00000  Uiso   1.00
H74    H     0.18544   0.88600   0.88207   0.00000  Uiso   1.00
H75    H     0.97027   0.97299   0.43315   0.00000  Uiso   1.00
H76    H     0.38792   0.08863   0.68762   0.00000  Uiso   1.00
H77    H     0.25899   0.85049   0.59920   0.00000  Uiso   1.00
H78    H     0.26330   0.80080   0.39259   0.00000  Uiso   1.00
H79    H     0.16124   0.84206   0.65392   0.00000  Uiso   1.00
H80    H     0.35930   0.89689   0.77459   0.00000  Uiso   1.00
H81    H     0.25717   0.76418   0.12647   0.00000  Uiso   1.00
H82    H     0.04200   0.85117   0.67756   0.00000  Uiso   1.00
H83    H     0.45965   0.96681   0.93202   0.00000  Uiso   1.00
O84    O     0.22260   0.79496   0.86320   0.00000  Uiso   1.00
O85    O     0.94032   0.90910   0.58621   0.00000  Uiso   1.00
O86    O     0.48826   0.06082   0.92006   0.00000  Uiso   1.00
N87    N     0.20174   0.86415   0.96795   0.00000  Uiso   1.00
N88    N     0.00056   0.94548   0.48316   0.00000  Uiso   1.00
N89    N     0.39102   0.05359   0.72109   0.00000  Uiso   1.00
N90    N     0.24034   0.79860   0.09946   0.00000  Uiso   1.00
N91    N     0.03916   0.87993   0.61467   0.00000  Uiso   1.00
N92    N     0.42962   0.98804   0.85260   0.00000  Uiso   1.00
C93    C     0.30560   0.46017   0.12087   0.00000  Uiso   1.00
C94    C     0.29413   0.41769   0.20205   0.00000  Uiso   1.00
C95    C     0.30600   0.41849   0.34356   0.00000  Uiso   1.00
C96    C     0.29233   0.37588   0.39817   0.00000  Uiso   1.00
C97    C     0.27831   0.31627   0.53701   0.00000  Uiso   1.00
C98    C     0.34958   0.44010   0.06007   0.00000  Uiso   1.00
C99    C     0.40807   0.45974   0.08220   0.00000  Uiso   1.00
C100   C     0.44108   0.43600   0.01728   0.00000  Uiso   1.00
C101   C     0.51313   0.41121   0.93561   0.00000  Uiso   1.00
C102   C     0.24197   0.46990   0.99452   0.00000  Uiso   1.00
C103   C     0.20998   0.51459   0.96150   0.00000  Uiso   1.00
C104   C     0.15239   0.51594   0.84136   0.00000  Uiso   1.00
C105   C     0.05735   0.53741   0.65791   0.00000  Uiso   1.00
C106   C     0.26020   0.38309   0.96621   0.00000  Uiso   1.00
C107   C     0.26948   0.37582   0.11804   0.00000  Uiso   1.00
C108   C     0.25578   0.33320   0.17244   0.00000  Uiso   1.00
C109   C     0.26763   0.33393   0.31401   0.00000  Uiso   1.00
C110   C     0.32493   0.39823   0.97607   0.00000  Uiso   1.00
C111   C     0.35785   0.37446   0.91109   0.00000  Uiso   1.00
C112   C     0.41638   0.39405   0.93312   0.00000  Uiso   1.00
C113   C     0.21732   0.42803   0.91051   0.00000  Uiso   1.00
C114   C     0.15976   0.42930   0.79039   0.00000  Uiso   1.00
C115   C     0.12769   0.47399   0.75720   0.00000  Uiso   1.00
H116   H     0.32479   0.49277   0.18627   0.00000  Uiso   1.00
H117   H     0.32509   0.45090   0.40854   0.00000  Uiso   1.00
H118   H     0.42714   0.49215   0.14720   0.00000  Uiso   1.00
H119   H     0.22908   0.54699   0.02653   0.00000  Uiso   1.00
H120   H     0.31456   0.38600   0.61793   0.00000  Uiso   1.00
H121   H     0.52973   0.47299   0.06685   0.00000  Uiso   1.00
H122   H     0.11208   0.58863   0.81238   0.00000  Uiso   1.00
H123   H     0.24101   0.35049   0.90080   0.00000  Uiso   1.00
H124   H     0.23670   0.30080   0.10741   0.00000  Uiso   1.00
H125   H     0.33876   0.34206   0.84608   0.00000  Uiso   1.00
H126   H     0.14070   0.39689   0.72541   0.00000  Uiso   1.00
H127   H     0.24283   0.26418   0.37353   0.00000  Uiso   1.00
H128   H     0.45800   0.35117   0.82244   0.00000  Uiso   1.00
H129   H     0.04035   0.46681   0.56798   0.00000  Uiso   1.00
O130   O     0.27740   0.29496   0.63680   0.00000  Uiso   1.00
O131   O     0.55968   0.40910   0.91379   0.00000  Uiso   1.00
O132   O     0.01174   0.56082   0.57994   0.00000  Uiso   1.00
N133   N     0.29826   0.36415   0.53205   0.00000  Uiso   1.00
N134   N     0.49944   0.44548   0.01684   0.00000  Uiso   1.00
N135   N     0.10898   0.55359   0.77891   0.00000  Uiso   1.00
N136   N     0.25966   0.29860   0.40054   0.00000  Uiso   1.00
N137   N     0.46084   0.37993   0.88533   0.00000  Uiso   1.00
N138   N     0.07038   0.48804   0.64740   0.00000  Uiso   1.00
C139   C     0.80560   0.96017   0.12087   0.00000  Uiso   1.00
C140   C     0.79413   0.91769   0.20205   0.00000  Uiso   1.00
C141   C     0.80600   0.91849   0.34356   0.00000  Uiso   1.00
C142   C     0.79233   0.87588   0.39817   0.00000  Uiso   1.00
C143   C     0.77831   0.81627   0.53701   0.00000  Uiso   1.00
C144   C     0.84958   0.94010   0.06007   0.00000  Uiso   1.00
C145   C     0.90807   0.95974   0.08220   0.00000  Uiso   1.00
C146   C     0.94108   0.93600   0.01728   0.00000  Uiso   1.00
C147   C     0.01313   0.91121   0.93561   0.00000  Uiso   1.00
C148   C     0.74197   0.96990   0.99452   0.00000  Uiso   1.00
C149   C     0.70998   0.01459   0.96150   0.00000  Uiso   1.00
C150   C     0.65239   0.01594   0.84136   0.00000  Uiso   1.00
C151   C     0.55735   0.03741   0.65791   0.00000  Uiso   1.00
C152   C     0.76020   0.88309   0.96621   0.00000  Uiso   1.00
C153   C     0.76948   0.87582   0.11804   0.00000  Uiso   1.00
C154   C     0.75578   0.83320   0.17244   0.00000  Uiso   1.00
C155   C     0.76763   0.83393   0.31401   0.00000  Uiso   1.00
C156   C     0.82493   0.89823   0.97607   0.00000  Uiso   1.00
C157   C     0.85785   0.87446   0.91109   0.00000  Uiso   1.00
C158   C     0.91638   0.89405   0.93312   0.00000  Uiso   1.00
C159   C     0.71732   0.92803   0.91051   0.00000  Uiso   1.00
C160   C     0.65976   0.92930   0.79039   0.00000  Uiso   1.00
C161   C     0.62769   0.97399   0.75720   0.00000  Uiso   1.00
H162   H     0.82479   0.99277   0.18627   0.00000  Uiso   1.00
H163   H     0.82509   0.95090   0.40854   0.00000  Uiso   1.00
H164   H     0.92714   0.99215   0.14720   0.00000  Uiso   1.00
H165   H     0.72908   0.04699   0.02653   0.00000  Uiso   1.00
H166   H     0.81456   0.88600   0.61793   0.00000  Uiso   1.00
H167   H     0.02973   0.97299   0.06685   0.00000  Uiso   1.00
H168   H     0.61208   0.08863   0.81238   0.00000  Uiso   1.00
H169   H     0.74101   0.85049   0.90080   0.00000  Uiso   1.00
H170   H     0.73670   0.80080   0.10741   0.00000  Uiso   1.00
H171   H     0.83876   0.84206   0.84608   0.00000  Uiso   1.00
H172   H     0.64070   0.89689   0.72541   0.00000  Uiso   1.00
H173   H     0.74283   0.76418   0.37353   0.00000  Uiso   1.00
H174   H     0.95800   0.85117   0.82244   0.00000  Uiso   1.00
H175   H     0.54035   0.96681   0.56798   0.00000  Uiso   1.00
O176   O     0.77740   0.79496   0.63680   0.00000  Uiso   1.00
O177   O     0.05968   0.90910   0.91379   0.00000  Uiso   1.00
O178   O     0.51174   0.06082   0.57994   0.00000  Uiso   1.00
N179   N     0.79826   0.86415   0.53205   0.00000  Uiso   1.00
N180   N     0.99944   0.94548   0.01684   0.00000  Uiso   1.00
N181   N     0.60898   0.05359   0.77891   0.00000  Uiso   1.00
N182   N     0.75966   0.79860   0.40054   0.00000  Uiso   1.00
N183   N     0.96084   0.87993   0.88533   0.00000  Uiso   1.00
N184   N     0.57038   0.98804   0.64740   0.00000  Uiso   1.00
C185   C     0.30560   0.53983   0.62087   0.00000  Uiso   1.00
C186   C     0.29413   0.58231   0.70205   0.00000  Uiso   1.00
C187   C     0.30600   0.58151   0.84356   0.00000  Uiso   1.00
C188   C     0.29233   0.62412   0.89817   0.00000  Uiso   1.00
C189   C     0.27831   0.68373   0.03701   0.00000  Uiso   1.00
C190   C     0.34958   0.55990   0.56007   0.00000  Uiso   1.00
C191   C     0.40807   0.54026   0.58220   0.00000  Uiso   1.00
C192   C     0.44108   0.56400   0.51728   0.00000  Uiso   1.00
C193   C     0.51313   0.58879   0.43561   0.00000  Uiso   1.00
C194   C     0.24197   0.53010   0.49452   0.00000  Uiso   1.00
C195   C     0.20998   0.48541   0.46150   0.00000  Uiso   1.00
C196   C     0.15239   0.48406   0.34136   0.00000  Uiso   1.00
C197   C     0.05735   0.46259   0.15791   0.00000  Uiso   1.00
C198   C     0.26020   0.61691   0.46621   0.00000  Uiso   1.00
C199   C     0.26948   0.62418   0.61804   0.00000  Uiso   1.00
C200   C     0.25578   0.66680   0.67244   0.00000  Uiso   1.00
C201   C     0.26763   0.66607   0.81401   0.00000  Uiso   1.00
C202   C     0.32493   0.60177   0.47607   0.00000  Uiso   1.00
C203   C     0.35785   0.62554   0.41109   0.00000  Uiso   1.00
C204   C     0.41638   0.60595   0.43312   0.00000  Uiso   1.00
C205   C     0.21732   0.57197   0.41051   0.00000  Uiso   1.00
C206   C     0.15976   0.57070   0.29039   0.00000  Uiso   1.00
C207   C     0.12769   0.52601   0.25720   0.00000  Uiso   1.00
H208   H     0.32479   0.50723   0.68627   0.00000  Uiso   1.00
H209   H     0.32509   0.54910   0.90854   0.00000  Uiso   1.00
H210   H     0.42714   0.50785   0.64720   0.00000  Uiso   1.00
H211   H     0.22908   0.45301   0.52653   0.00000  Uiso   1.00
H212   H     0.31456   0.61400   0.11793   0.00000  Uiso   1.00
H213   H     0.52973   0.52701   0.56685   0.00000  Uiso   1.00
H214   H     0.11208   0.41137   0.31238   0.00000  Uiso   1.00
H215   H     0.24101   0.64951   0.40080   0.00000  Uiso   1.00
H216   H     0.23670   0.69920   0.60741   0.00000  Uiso   1.00
H217   H     0.33876   0.65794   0.34608   0.00000  Uiso   1.00
H218   H     0.14070   0.60311   0.22541   0.00000  Uiso   1.00
H219   H     0.24283   0.73582   0.87353   0.00000  Uiso   1.00
H220   H     0.45800   0.64883   0.32244   0.00000  Uiso   1.00
H221   H     0.04035   0.53319   0.06798   0.00000  Uiso   1.00
O222   O     0.27740   0.70504   0.13680   0.00000  Uiso   1.00
O223   O     0.55968   0.59090   0.41379   0.00000  Uiso   1.00
O224   O     0.01174   0.43918   0.07994   0.00000  Uiso   1.00
N225   N     0.29826   0.63585   0.03205   0.00000  Uiso   1.00
N226   N     0.49944   0.55452   0.51684   0.00000  Uiso   1.00
N227   N     0.10898   0.44641   0.27891   0.00000  Uiso   1.00
N228   N     0.25966   0.70140   0.90054   0.00000  Uiso   1.00
N229   N     0.46084   0.62007   0.38533   0.00000  Uiso   1.00
N230   N     0.07038   0.51196   0.14740   0.00000  Uiso   1.00
C231   C     0.80560   0.03983   0.62087   0.00000  Uiso   1.00
C232   C     0.79413   0.08231   0.70205   0.00000  Uiso   1.00
C233   C     0.80600   0.08151   0.84356   0.00000  Uiso   1.00
C234   C     0.79233   0.12412   0.89817   0.00000  Uiso   1.00
C235   C     0.77831   0.18373   0.03701   0.00000  Uiso   1.00
C236   C     0.84958   0.05990   0.56007   0.00000  Uiso   1.00
C237   C     0.90807   0.04026   0.58220   0.00000  Uiso   1.00
C238   C     0.94108   0.06400   0.51728   0.00000  Uiso   1.00
C239   C     0.01313   0.08879   0.43561   0.00000  Uiso   1.00
C240   C     0.74197   0.03010   0.49452   0.00000  Uiso   1.00
C241   C     0.70998   0.98541   0.46150   0.00000  Uiso   1.00
C242   C     0.65239   0.98406   0.34136   0.00000  Uiso   1.00
C243   C     0.55735   0.96259   0.15791   0.00000  Uiso   1.00
C244   C     0.76020   0.11691   0.46621   0.00000  Uiso   1.00
C245   C     0.76948   0.12418   0.61804   0.00000  Uiso   1.00
C246   C     0.75578   0.16680   0.67244   0.00000  Uiso   1.00
C247   C     0.76763   0.16607   0.81401   0.00000  Uiso   1.00
C248   C     0.82493   0.10177   0.47607   0.00000  Uiso   1.00
C249   C     0.85785   0.12554   0.41109   0.00000  Uiso   1.00
C250   C     0.91638   0.10595   0.43312   0.00000  Uiso   1.00
C251   C     0.71732   0.07197   0.41051   0.00000  Uiso   1.00
C252   C     0.65976   0.07070   0.29039   0.00000  Uiso   1.00
C253   C     0.62769   0.02601   0.25720   0.00000  Uiso   1.00
H254   H     0.82479   0.00723   0.68627   0.00000  Uiso   1.00
H255   H     0.82509   0.04910   0.90854   0.00000  Uiso   1.00
H256   H     0.92714   0.00785   0.64720   0.00000  Uiso   1.00
H257   H     0.72908   0.95301   0.52653   0.00000  Uiso   1.00
H258   H     0.81456   0.11400   0.11793   0.00000  Uiso   1.00
H259   H     0.02973   0.02701   0.56685   0.00000  Uiso   1.00
H260   H     0.61208   0.91137   0.31238   0.00000  Uiso   1.00
H261   H     0.74101   0.14951   0.40080   0.00000  Uiso   1.00
H262   H     0.73670   0.19920   0.60741   0.00000  Uiso   1.00
H263   H     0.83876   0.15794   0.34608   0.00000  Uiso   1.00
H264   H     0.64070   0.10311   0.22541   0.00000  Uiso   1.00
H265   H     0.74283   0.23582   0.87353   0.00000  Uiso   1.00
H266   H     0.95800   0.14883   0.32244   0.00000  Uiso   1.00
H267   H     0.54035   0.03319   0.06798   0.00000  Uiso   1.00
O268   O     0.77740   0.20504   0.13680   0.00000  Uiso   1.00
O269   O     0.05968   0.09090   0.41379   0.00000  Uiso   1.00
O270   O     0.51174   0.93918   0.07994   0.00000  Uiso   1.00
N271   N     0.79826   0.13585   0.03205   0.00000  Uiso   1.00
N272   N     0.99944   0.05452   0.51684   0.00000  Uiso   1.00
N273   N     0.60898   0.94641   0.27891   0.00000  Uiso   1.00
N274   N     0.75966   0.20140   0.90054   0.00000  Uiso   1.00
N275   N     0.96084   0.12007   0.38533   0.00000  Uiso   1.00
N276   N     0.57038   0.01196   0.14740   0.00000  Uiso   1.00
C277   C     0.69440   0.53983   0.87913   0.00000  Uiso   1.00
C278   C     0.70587   0.58231   0.79795   0.00000  Uiso   1.00
C279   C     0.69400   0.58151   0.65644   0.00000  Uiso   1.00
C280   C     0.70767   0.62412   0.60183   0.00000  Uiso   1.00
C281   C     0.72169   0.68373   0.46299   0.00000  Uiso   1.00
C282   C     0.65042   0.55990   0.93993   0.00000  Uiso   1.00
C283   C     0.59193   0.54026   0.91780   0.00000  Uiso   1.00
C284   C     0.55892   0.56400   0.98272   0.00000  Uiso   1.00
C285   C     0.48687   0.58879   0.06439   0.00000  Uiso   1.00
C286   C     0.75803   0.53010   0.00548   0.00000  Uiso   1.00
C287   C     0.79002   0.48541   0.03850   0.00000  Uiso   1.00
C288   C     0.84761   0.48406   0.15864   0.00000  Uiso   1.00
C289   C     0.94265   0.46259   0.34209   0.00000  Uiso   1.00
C290   C     0.73980   0.61691   0.03379   0.00000  Uiso   1.00
C291   C     0.73052   0.62418   0.88196   0.00000  Uiso   1.00
C292   C     0.74422   0.66680   0.82756   0.00000  Uiso   1.00
C293   C     0.73237   0.66607   0.68599   0.00000  Uiso   1.00
C294   C     0.67507   0.60177   0.02393   0.00000  Uiso   1.00
C295   C     0.64215   0.62554   0.08891   0.00000  Uiso   1.00
C296   C     0.58362   0.60595   0.06688   0.00000  Uiso   1.00
C297   C     0.78268   0.57197   0.08949   0.00000  Uiso   1.00
C298   C     0.84024   0.57070   0.20961   0.00000  Uiso   1.00
C299   C     0.87231   0.52601   0.24280   0.00000  Uiso   1.00
H300   H     0.67521   0.50723   0.81373   0.00000  Uiso   1.00
H301   H     0.67491   0.54910   0.59146   0.00000  Uiso   1.00
H302   H     0.57286   0.50785   0.85280   0.00000  Uiso   1.00
H303   H     0.77092   0.45301   0.97347   0.00000  Uiso   1.00
H304   H     0.68544   0.61400   0.38207   0.00000  Uiso   1.00
H305   H     0.47027   0.52701   0.93315   0.00000  Uiso   1.00
H306   H     0.88792   0.41137   0.18762   0.00000  Uiso   1.00
H307   H     0.75899   0.64951   0.09920   0.00000  Uiso   1.00
H308   H     0.76330   0.69920   0.89259   0.00000  Uiso   1.00
H309   H     0.66124   0.65794   0.15392   0.00000  Uiso   1.00
H310   H     0.85930   0.60311   0.27459   0.00000  Uiso   1.00
H311   H     0.75717   0.73582   0.62647   0.00000  Uiso   1.00
H312   H     0.54200   0.64883   0.17756   0.00000  Uiso   1.00
H313   H     0.95965   0.53319   0.43202   0.00000  Uiso   1.00
O314   O     0.72260   0.70504   0.36320   0.00000  Uiso   1.00
O315   O     0.44032   0.59090   0.08621   0.00000  Uiso   1.00
O316   O     0.98826   0.43918   0.42006   0.00000  Uiso   1.00
N317   N     0.70174   0.63585   0.46795   0.00000  Uiso   1.00
N318   N     0.50056   0.55452   0.98316   0.00000  Uiso   1.00
N319   N     0.89102   0.44641   0.22109   0.00000  Uiso   1.00
N320   N     0.74034   0.70140   0.59946   0.00000  Uiso   1.00
N321   N     0.53916   0.62007   0.11467   0.00000  Uiso   1.00
N322   N     0.92962   0.51196   0.35260   0.00000  Uiso   1.00
C323   C     0.19440   0.03983   0.87913   0.00000  Uiso   1.00
C324   C     0.20587   0.08231   0.79795   0.00000  Uiso   1.00
C325   C     0.19400   0.08151   0.65644   0.00000  Uiso   1.00
C326   C     0.20767   0.12412   0.60183   0.00000  Uiso   1.00
C327   C     0.22169   0.18373   0.46299   0.00000  Uiso   1.00
C328   C     0.15042   0.05990   0.93993   0.00000  Uiso   1.00
C329   C     0.09193   0.04026   0.91780   0.00000  Uiso   1.00
C330   C     0.05892   0.06400   0.98272   0.00000  Uiso   1.00
C331   C     0.98687   0.08879   0.06439   0.00000  Uiso   1.00
C332   C     0.25803   0.03010   0.00548   0.00000  Uiso   1.00
C333   C     0.29002   0.98541   0.03850   0.00000  Uiso   1.00
C334   C     0.34761   0.98406   0.15864   0.00000  Uiso   1.00
C335   C     0.44265   0.96259   0.34209   0.00000  Uiso   1.00
C336   C     0.23980   0.11691   0.03379   0.00000  Uiso   1.00
C337   C     0.23052   0.12418   0.88196   0.00000  Uiso   1.00
C338   C     0.24422   0.16680   0.82756   0.00000  Uiso   1.00
C339   C     0.23237   0.16607   0.68599   0.00000  Uiso   1.00
C340   C     0.17507   0.10177   0.02393   0.00000  Uiso   1.00
C341   C     0.14215   0.12554   0.08891   0.00000  Uiso   1.00
C342   C     0.08362   0.10595   0.06688   0.00000  Uiso   1.00
C343   C     0.28268   0.07197   0.08949   0.00000  Uiso   1.00
C344   C     0.34024   0.07070   0.20961   0.00000  Uiso   1.00
C345   C     0.37231   0.02601   0.24280   0.00000  Uiso   1.00
H346   H     0.17521   0.00723   0.81373   0.00000  Uiso   1.00
H347   H     0.17491   0.04910   0.59146   0.00000  Uiso   1.00
H348   H     0.07286   0.00785   0.85280   0.00000  Uiso   1.00
H349   H     0.27092   0.95301   0.97347   0.00000  Uiso   1.00
H350   H     0.18544   0.11400   0.38207   0.00000  Uiso   1.00
H351   H     0.97027   0.02701   0.93315   0.00000  Uiso   1.00
H352   H     0.38792   0.91137   0.18762   0.00000  Uiso   1.00
H353   H     0.25899   0.14951   0.09920   0.00000  Uiso   1.00
H354   H     0.26330   0.19920   0.89259   0.00000  Uiso   1.00
H355   H     0.16124   0.15794   0.15392   0.00000  Uiso   1.00
H356   H     0.35930   0.10311   0.27459   0.00000  Uiso   1.00
H357   H     0.25717   0.23582   0.62647   0.00000  Uiso   1.00
H358   H     0.04200   0.14883   0.17756   0.00000  Uiso   1.00
H359   H     0.45965   0.03319   0.43202   0.00000  Uiso   1.00
O360   O     0.22260   0.20504   0.36320   0.00000  Uiso   1.00
O361   O     0.94032   0.09090   0.08621   0.00000  Uiso   1.00
O362   O     0.48826   0.93918   0.42006   0.00000  Uiso   1.00
N363   N     0.20174   0.13585   0.46795   0.00000  Uiso   1.00
N364   N     0.00056   0.05452   0.98316   0.00000  Uiso   1.00
N365   N     0.39102   0.94641   0.22109   0.00000  Uiso   1.00
N366   N     0.24034   0.20140   0.59946   0.00000  Uiso   1.00
N367   N     0.03916   0.12007   0.11467   0.00000  Uiso   1.00
N368   N     0.42962   0.01196   0.35260   0.00000  Uiso   1.00
