data_job_01888
_audit_creation_date              2018-12-19
_audit_creation_method            'Materials Studio'
_symmetry_space_group_name_H-M    'P1'
_symmetry_Int_Tables_number       1
_symmetry_cell_setting            triclinic
loop_
_symmetry_equiv_pos_as_xyz
  x,y,z
_cell_length_a                    12.5509
_cell_length_b                    20.0842
_cell_length_c                    23.3163
_cell_angle_alpha                 90.0000
_cell_angle_beta                  120.3808
_cell_angle_gamma                 90.0000
loop_
_atom_site_label
_atom_site_type_symbol
_atom_site_fract_x
_atom_site_fract_y
_atom_site_fract_z
_atom_site_U_iso_or_equiv
_atom_site_adp_type
_atom_site_occupancy
C1     C     0.21878   0.07307   0.17376   0.00000  Uiso   1.00
C2     C     0.29735   0.09014   0.14290   0.00000  Uiso   1.00
C3     C     0.32865   0.04665   0.10752   0.00000  Uiso   1.00
C4     C     0.40134   0.07186   0.08332   0.00000  Uiso   1.00
C5     C     0.51732   0.08826   0.03378   0.00000  Uiso   1.00
C6     C     0.29734   0.09019   0.24739   0.00000  Uiso   1.00
C7     C     0.32861   0.04675   0.29985   0.00000  Uiso   1.00
C8     C     0.40127   0.07201   0.36361   0.00000  Uiso   1.00
C9     C     0.51717   0.08851   0.47629   0.00000  Uiso   1.00
C10    C     0.11198   0.12256   0.14467   0.00000  Uiso   1.00
C11    C     0.98739   0.10633   0.11078   0.00000  Uiso   1.00
C12    C     0.90399   0.15885   0.08807   0.00000  Uiso   1.00
C13    C     0.73208   0.22560   0.04127   0.00000  Uiso   1.00
C14    C     0.29221   0.19519   0.19371   0.00000  Uiso   1.00
C15    C     0.33724   0.15647   0.15374   0.00000  Uiso   1.00
C16    C     0.40989   0.18175   0.12959   0.00000  Uiso   1.00
C17    C     0.44129   0.13831   0.09417   0.00000  Uiso   1.00
C18    C     0.33723   0.15652   0.25823   0.00000  Uiso   1.00
C19    C     0.40986   0.18186   0.32192   0.00000  Uiso   1.00
C20    C     0.44123   0.13846   0.37446   0.00000  Uiso   1.00
C21    C     0.15186   0.18889   0.15551   0.00000  Uiso   1.00
C22    C     0.06864   0.24144   0.13285   0.00000  Uiso   1.00
C23    C     0.94395   0.22530   0.09893   0.00000  Uiso   1.00
H24    H     0.18773   0.02143   0.16533   0.00000  Uiso   1.00
H25    H     0.29777   0.99531   0.09915   0.00000  Uiso   1.00
H26    H     0.29772   0.99542   0.29145   0.00000  Uiso   1.00
H27    H     0.95656   0.05500   0.10241   0.00000  Uiso   1.00
H28    H     0.43740   0.99561   0.03057   0.00000  Uiso   1.00
H29    H     0.43726   0.99583   0.43605   0.00000  Uiso   1.00
H30    H     0.71785   0.12146   0.03742   0.00000  Uiso   1.00
H31    H     0.32327   0.24683   0.20215   0.00000  Uiso   1.00
H32    H     0.44075   0.23309   0.13798   0.00000  Uiso   1.00
H33    H     0.44070   0.23319   0.33029   0.00000  Uiso   1.00
H34    H     0.09954   0.29277   0.14124   0.00000  Uiso   1.00
H35    H     0.55345   0.18859   0.06209   0.00000  Uiso   1.00
H36    H     0.55330   0.18882   0.46757   0.00000  Uiso   1.00
H37    H     0.83390   0.31445   0.06894   0.00000  Uiso   1.00
O38    O     0.57030   0.07898   0.00348   0.00000  Uiso   1.00
O39    O     0.57009   0.07928   0.53545   0.00000  Uiso   1.00
O40    O     0.62624   0.24410   0.01245   0.00000  Uiso   1.00
N41    N     0.44857   0.04292   0.04678   0.00000  Uiso   1.00
N42    N     0.44845   0.04312   0.42588   0.00000  Uiso   1.00
N43    N     0.77587   0.16058   0.05321   0.00000  Uiso   1.00
N44    N     0.51101   0.14676   0.06375   0.00000  Uiso   1.00
N45    N     0.51090   0.14697   0.44284   0.00000  Uiso   1.00
N46    N     0.83831   0.26442   0.07017   0.00000  Uiso   1.00
C47    C     0.78122   0.57307   0.32624   0.00000  Uiso   1.00
C48    C     0.70265   0.59014   0.35710   0.00000  Uiso   1.00
C49    C     0.67135   0.54665   0.39248   0.00000  Uiso   1.00
C50    C     0.59866   0.57186   0.41668   0.00000  Uiso   1.00
C51    C     0.48268   0.58826   0.46622   0.00000  Uiso   1.00
C52    C     0.70266   0.59019   0.25261   0.00000  Uiso   1.00
C53    C     0.67139   0.54675   0.20015   0.00000  Uiso   1.00
C54    C     0.59873   0.57201   0.13639   0.00000  Uiso   1.00
C55    C     0.48283   0.58851   0.02371   0.00000  Uiso   1.00
C56    C     0.88802   0.62256   0.35533   0.00000  Uiso   1.00
C57    C     0.01261   0.60633   0.38922   0.00000  Uiso   1.00
C58    C     0.09601   0.65885   0.41193   0.00000  Uiso   1.00
C59    C     0.26792   0.72560   0.45873   0.00000  Uiso   1.00
C60    C     0.70779   0.69519   0.30629   0.00000  Uiso   1.00
C61    C     0.66276   0.65647   0.34626   0.00000  Uiso   1.00
C62    C     0.59011   0.68175   0.37041   0.00000  Uiso   1.00
C63    C     0.55871   0.63831   0.40583   0.00000  Uiso   1.00
C64    C     0.66277   0.65652   0.24177   0.00000  Uiso   1.00
C65    C     0.59014   0.68186   0.17808   0.00000  Uiso   1.00
C66    C     0.55877   0.63846   0.12554   0.00000  Uiso   1.00
C67    C     0.84814   0.68889   0.34449   0.00000  Uiso   1.00
C68    C     0.93136   0.74144   0.36715   0.00000  Uiso   1.00
C69    C     0.05605   0.72530   0.40107   0.00000  Uiso   1.00
H70    H     0.81227   0.52143   0.33467   0.00000  Uiso   1.00
H71    H     0.70223   0.49531   0.40085   0.00000  Uiso   1.00
H72    H     0.70228   0.49542   0.20855   0.00000  Uiso   1.00
H73    H     0.04344   0.55500   0.39759   0.00000  Uiso   1.00
H74    H     0.56260   0.49561   0.46943   0.00000  Uiso   1.00
H75    H     0.56274   0.49583   0.06395   0.00000  Uiso   1.00
H76    H     0.28215   0.62146   0.46258   0.00000  Uiso   1.00
H77    H     0.67673   0.74683   0.29785   0.00000  Uiso   1.00
H78    H     0.55925   0.73309   0.36202   0.00000  Uiso   1.00
H79    H     0.55930   0.73319   0.16971   0.00000  Uiso   1.00
H80    H     0.90046   0.79277   0.35876   0.00000  Uiso   1.00
H81    H     0.44655   0.68859   0.43791   0.00000  Uiso   1.00
H82    H     0.44670   0.68882   0.03243   0.00000  Uiso   1.00
H83    H     0.16610   0.81445   0.43106   0.00000  Uiso   1.00
O84    O     0.42970   0.57898   0.49652   0.00000  Uiso   1.00
O85    O     0.42991   0.57928   0.96455   0.00000  Uiso   1.00
O86    O     0.37376   0.74410   0.48755   0.00000  Uiso   1.00
N87    N     0.55143   0.54292   0.45322   0.00000  Uiso   1.00
N88    N     0.55155   0.54312   0.07412   0.00000  Uiso   1.00
N89    N     0.22413   0.66058   0.44679   0.00000  Uiso   1.00
N90    N     0.48899   0.64676   0.43625   0.00000  Uiso   1.00
N91    N     0.48910   0.64697   0.05716   0.00000  Uiso   1.00
N92    N     0.16169   0.76442   0.42983   0.00000  Uiso   1.00
C93    C     0.78122   0.92693   0.82624   0.00000  Uiso   1.00
C94    C     0.70265   0.90986   0.85710   0.00000  Uiso   1.00
C95    C     0.67135   0.95335   0.89248   0.00000  Uiso   1.00
C96    C     0.59866   0.92814   0.91668   0.00000  Uiso   1.00
C97    C     0.48268   0.91174   0.96622   0.00000  Uiso   1.00
C98    C     0.70266   0.90981   0.75261   0.00000  Uiso   1.00
C99    C     0.67139   0.95325   0.70015   0.00000  Uiso   1.00
C100   C     0.59873   0.92799   0.63639   0.00000  Uiso   1.00
C101   C     0.48283   0.91149   0.52371   0.00000  Uiso   1.00
C102   C     0.88802   0.87744   0.85533   0.00000  Uiso   1.00
C103   C     0.01261   0.89367   0.88922   0.00000  Uiso   1.00
C104   C     0.09601   0.84115   0.91193   0.00000  Uiso   1.00
C105   C     0.26792   0.77440   0.95873   0.00000  Uiso   1.00
C106   C     0.70779   0.80481   0.80629   0.00000  Uiso   1.00
C107   C     0.66276   0.84353   0.84626   0.00000  Uiso   1.00
C108   C     0.59011   0.81825   0.87041   0.00000  Uiso   1.00
C109   C     0.55871   0.86169   0.90583   0.00000  Uiso   1.00
C110   C     0.66277   0.84348   0.74177   0.00000  Uiso   1.00
C111   C     0.59014   0.81814   0.67808   0.00000  Uiso   1.00
C112   C     0.55877   0.86154   0.62554   0.00000  Uiso   1.00
C113   C     0.84814   0.81111   0.84449   0.00000  Uiso   1.00
C114   C     0.93136   0.75856   0.86715   0.00000  Uiso   1.00
C115   C     0.05605   0.77470   0.90107   0.00000  Uiso   1.00
H116   H     0.81227   0.97857   0.83467   0.00000  Uiso   1.00
H117   H     0.70223   0.00469   0.90085   0.00000  Uiso   1.00
H118   H     0.70228   0.00458   0.70855   0.00000  Uiso   1.00
H119   H     0.04344   0.94500   0.89759   0.00000  Uiso   1.00
H120   H     0.56260   0.00439   0.96943   0.00000  Uiso   1.00
H121   H     0.56274   0.00417   0.56395   0.00000  Uiso   1.00
H122   H     0.28215   0.87854   0.96258   0.00000  Uiso   1.00
H123   H     0.67673   0.75317   0.79785   0.00000  Uiso   1.00
H124   H     0.55925   0.76691   0.86202   0.00000  Uiso   1.00
H125   H     0.55930   0.76681   0.66971   0.00000  Uiso   1.00
H126   H     0.90046   0.70723   0.85876   0.00000  Uiso   1.00
H127   H     0.44655   0.81141   0.93791   0.00000  Uiso   1.00
H128   H     0.44670   0.81118   0.53243   0.00000  Uiso   1.00
H129   H     0.16610   0.68555   0.93106   0.00000  Uiso   1.00
O130   O     0.42970   0.92102   0.99652   0.00000  Uiso   1.00
O131   O     0.42991   0.92072   0.46455   0.00000  Uiso   1.00
O132   O     0.37376   0.75590   0.98755   0.00000  Uiso   1.00
N133   N     0.55143   0.95708   0.95322   0.00000  Uiso   1.00
N134   N     0.55155   0.95688   0.57412   0.00000  Uiso   1.00
N135   N     0.22413   0.83942   0.94679   0.00000  Uiso   1.00
N136   N     0.48899   0.85324   0.93625   0.00000  Uiso   1.00
N137   N     0.48910   0.85303   0.55716   0.00000  Uiso   1.00
N138   N     0.16169   0.73558   0.92983   0.00000  Uiso   1.00
C139   C     0.21878   0.42693   0.67376   0.00000  Uiso   1.00
C140   C     0.29735   0.40986   0.64290   0.00000  Uiso   1.00
C141   C     0.32865   0.45335   0.60752   0.00000  Uiso   1.00
C142   C     0.40134   0.42814   0.58332   0.00000  Uiso   1.00
C143   C     0.51732   0.41174   0.53378   0.00000  Uiso   1.00
C144   C     0.29734   0.40981   0.74739   0.00000  Uiso   1.00
C145   C     0.32861   0.45325   0.79985   0.00000  Uiso   1.00
C146   C     0.40127   0.42799   0.86361   0.00000  Uiso   1.00
C147   C     0.51717   0.41149   0.97629   0.00000  Uiso   1.00
C148   C     0.11198   0.37744   0.64467   0.00000  Uiso   1.00
C149   C     0.98739   0.39367   0.61078   0.00000  Uiso   1.00
C150   C     0.90399   0.34115   0.58807   0.00000  Uiso   1.00
C151   C     0.73208   0.27440   0.54127   0.00000  Uiso   1.00
C152   C     0.29221   0.30481   0.69371   0.00000  Uiso   1.00
C153   C     0.33724   0.34353   0.65374   0.00000  Uiso   1.00
C154   C     0.40989   0.31825   0.62959   0.00000  Uiso   1.00
C155   C     0.44129   0.36169   0.59417   0.00000  Uiso   1.00
C156   C     0.33723   0.34348   0.75823   0.00000  Uiso   1.00
C157   C     0.40986   0.31814   0.82192   0.00000  Uiso   1.00
C158   C     0.44123   0.36154   0.87446   0.00000  Uiso   1.00
C159   C     0.15186   0.31111   0.65551   0.00000  Uiso   1.00
C160   C     0.06864   0.25856   0.63285   0.00000  Uiso   1.00
C161   C     0.94395   0.27470   0.59893   0.00000  Uiso   1.00
H162   H     0.18773   0.47857   0.66533   0.00000  Uiso   1.00
H163   H     0.29777   0.50469   0.59915   0.00000  Uiso   1.00
H164   H     0.29772   0.50458   0.79145   0.00000  Uiso   1.00
H165   H     0.95656   0.44500   0.60241   0.00000  Uiso   1.00
H166   H     0.43740   0.50439   0.53057   0.00000  Uiso   1.00
H167   H     0.43726   0.50417   0.93605   0.00000  Uiso   1.00
H168   H     0.71785   0.37854   0.53742   0.00000  Uiso   1.00
H169   H     0.32327   0.25317   0.70215   0.00000  Uiso   1.00
H170   H     0.44075   0.26691   0.63798   0.00000  Uiso   1.00
H171   H     0.44070   0.26681   0.83029   0.00000  Uiso   1.00
H172   H     0.09954   0.20723   0.64124   0.00000  Uiso   1.00
H173   H     0.55345   0.31141   0.56209   0.00000  Uiso   1.00
H174   H     0.55330   0.31118   0.96757   0.00000  Uiso   1.00
H175   H     0.83390   0.18555   0.56894   0.00000  Uiso   1.00
O176   O     0.57030   0.42102   0.50348   0.00000  Uiso   1.00
O177   O     0.57009   0.42072   0.03545   0.00000  Uiso   1.00
O178   O     0.62624   0.25590   0.51245   0.00000  Uiso   1.00
N179   N     0.44857   0.45708   0.54678   0.00000  Uiso   1.00
N180   N     0.44845   0.45688   0.92588   0.00000  Uiso   1.00
N181   N     0.77587   0.33942   0.55321   0.00000  Uiso   1.00
N182   N     0.51101   0.35324   0.56375   0.00000  Uiso   1.00
N183   N     0.51090   0.35303   0.94284   0.00000  Uiso   1.00
N184   N     0.83831   0.23558   0.57017   0.00000  Uiso   1.00
