data_job_03622
_audit_creation_date              2018-12-19
_audit_creation_method            'Materials Studio'
_symmetry_space_group_name_H-M    'P1'
_symmetry_Int_Tables_number       1
_symmetry_cell_setting            triclinic
loop_
_symmetry_equiv_pos_as_xyz
  x,y,z
_cell_length_a                    18.9460
_cell_length_b                    11.6105
_cell_length_c                    12.3926
_cell_angle_alpha                 90.0000
_cell_angle_beta                  90.0000
_cell_angle_gamma                 90.0000
loop_
_atom_site_label
_atom_site_type_symbol
_atom_site_fract_x
_atom_site_fract_y
_atom_site_fract_z
_atom_site_U_iso_or_equiv
_atom_site_adp_type
_atom_site_occupancy
C1     C     0.79313   0.31955   0.57615   0.00000  Uiso   1.00
C2     C     0.85536   0.30039   0.50021   0.00000  Uiso   1.00
C3     C     0.87010   0.36432   0.40831   0.00000  Uiso   1.00
C4     C     0.92953   0.33317   0.34962   0.00000  Uiso   1.00
C5     C     0.01959   0.31735   0.22678   0.00000  Uiso   1.00
C6     C     0.75357   0.20526   0.58076   0.00000  Uiso   1.00
C7     C     0.68273   0.18922   0.55660   0.00000  Uiso   1.00
C8     C     0.65647   0.07799   0.56574   0.00000  Uiso   1.00
C9     C     0.58849   0.91451   0.56803   0.00000  Uiso   1.00
C10    C     0.82482   0.33717   0.68805   0.00000  Uiso   1.00
C11    C     0.81386   0.43202   0.75411   0.00000  Uiso   1.00
C12    C     0.84758   0.43184   0.85359   0.00000  Uiso   1.00
C13    C     0.89021   0.47316   0.02246   0.00000  Uiso   1.00
C14    C     0.87247   0.15056   0.63535   0.00000  Uiso   1.00
C15    C     0.89846   0.20860   0.53237   0.00000  Uiso   1.00
C16    C     0.95789   0.17735   0.47381   0.00000  Uiso   1.00
C17    C     0.97271   0.24123   0.38184   0.00000  Uiso   1.00
C18    C     0.79667   0.11348   0.61291   0.00000  Uiso   1.00
C19    C     0.77051   0.00226   0.62210   0.00000  Uiso   1.00
C20    C     0.69965   0.98604   0.59795   0.00000  Uiso   1.00
C21    C     0.86792   0.24539   0.72020   0.00000  Uiso   1.00
C22    C     0.90165   0.24505   0.81961   0.00000  Uiso   1.00
C23    C     0.89075   0.33989   0.88580   0.00000  Uiso   1.00
H24    H     0.75957   0.39100   0.55111   0.00000  Uiso   1.00
H25    H     0.83673   0.43534   0.38344   0.00000  Uiso   1.00
H26    H     0.64939   0.26027   0.53172   0.00000  Uiso   1.00
H27    H     0.78050   0.50303   0.72920   0.00000  Uiso   1.00
H28    H     0.94127   0.44399   0.21171   0.00000  Uiso   1.00
H29    H     0.54623   0.07485   0.52440   0.00000  Uiso   1.00
H30    H     0.82272   0.58676   0.94082   0.00000  Uiso   1.00
H31    H     0.90603   0.07910   0.66039   0.00000  Uiso   1.00
H32    H     0.99123   0.10632   0.49871   0.00000  Uiso   1.00
H33    H     0.80388   0.93125   0.64699   0.00000  Uiso   1.00
H34    H     0.93500   0.17401   0.84446   0.00000  Uiso   1.00
H35    H     0.06666   0.17694   0.30526   0.00000  Uiso   1.00
H36    H     0.67162   0.80780   0.61796   0.00000  Uiso   1.00
H37    H     0.94811   0.31972   0.03437   0.00000  Uiso   1.00
O38    O     0.05736   0.33397   0.15014   0.00000  Uiso   1.00
O39    O     0.53908   0.84969   0.56040   0.00000  Uiso   1.00
O40    O     0.90183   0.52131   0.10672   0.00000  Uiso   1.00
N41    N     0.95910   0.37742   0.25593   0.00000  Uiso   1.00
N42    N     0.58976   0.03229   0.54826   0.00000  Uiso   1.00
N43    N     0.84824   0.51087   0.93758   0.00000  Uiso   1.00
N44    N     0.02657   0.23372   0.30627   0.00000  Uiso   1.00
N45    N     0.65724   0.88860   0.59860   0.00000  Uiso   1.00
N46    N     0.91571   0.36718   0.98792   0.00000  Uiso   1.00
C47    C     0.70687   0.68045   0.07615   0.00000  Uiso   1.00
C48    C     0.64464   0.69961   0.00021   0.00000  Uiso   1.00
C49    C     0.62990   0.63568   0.90831   0.00000  Uiso   1.00
C50    C     0.57047   0.66683   0.84962   0.00000  Uiso   1.00
C51    C     0.48041   0.68265   0.72678   0.00000  Uiso   1.00
C52    C     0.74643   0.79474   0.08076   0.00000  Uiso   1.00
C53    C     0.81727   0.81078   0.05660   0.00000  Uiso   1.00
C54    C     0.84353   0.92201   0.06574   0.00000  Uiso   1.00
C55    C     0.91151   0.08549   0.06803   0.00000  Uiso   1.00
C56    C     0.67518   0.66283   0.18805   0.00000  Uiso   1.00
C57    C     0.68614   0.56798   0.25411   0.00000  Uiso   1.00
C58    C     0.65242   0.56816   0.35359   0.00000  Uiso   1.00
C59    C     0.60979   0.52684   0.52246   0.00000  Uiso   1.00
C60    C     0.62753   0.84944   0.13535   0.00000  Uiso   1.00
C61    C     0.60154   0.79140   0.03237   0.00000  Uiso   1.00
C62    C     0.54211   0.82265   0.97381   0.00000  Uiso   1.00
C63    C     0.52729   0.75878   0.88184   0.00000  Uiso   1.00
C64    C     0.70333   0.88652   0.11291   0.00000  Uiso   1.00
C65    C     0.72949   0.99774   0.12210   0.00000  Uiso   1.00
C66    C     0.80035   0.01396   0.09795   0.00000  Uiso   1.00
C67    C     0.63208   0.75461   0.22020   0.00000  Uiso   1.00
C68    C     0.59835   0.75495   0.31961   0.00000  Uiso   1.00
C69    C     0.60925   0.66011   0.38580   0.00000  Uiso   1.00
H70    H     0.74043   0.60900   0.05111   0.00000  Uiso   1.00
H71    H     0.66327   0.56466   0.88344   0.00000  Uiso   1.00
H72    H     0.85061   0.73973   0.03172   0.00000  Uiso   1.00
H73    H     0.71950   0.49697   0.22920   0.00000  Uiso   1.00
H74    H     0.55873   0.55601   0.71171   0.00000  Uiso   1.00
H75    H     0.95377   0.92515   0.02440   0.00000  Uiso   1.00
H76    H     0.67728   0.41324   0.44082   0.00000  Uiso   1.00
H77    H     0.59397   0.92090   0.16039   0.00000  Uiso   1.00
H78    H     0.50877   0.89368   0.99871   0.00000  Uiso   1.00
H79    H     0.69612   0.06875   0.14699   0.00000  Uiso   1.00
H80    H     0.56500   0.82599   0.34446   0.00000  Uiso   1.00
H81    H     0.43334   0.82306   0.80526   0.00000  Uiso   1.00
H82    H     0.82838   0.19220   0.11796   0.00000  Uiso   1.00
H83    H     0.55189   0.68028   0.53437   0.00000  Uiso   1.00
O84    O     0.44264   0.66603   0.65014   0.00000  Uiso   1.00
O85    O     0.96092   0.15031   0.06040   0.00000  Uiso   1.00
O86    O     0.59817   0.47869   0.60672   0.00000  Uiso   1.00
N87    N     0.54090   0.62258   0.75593   0.00000  Uiso   1.00
N88    N     0.91024   0.96771   0.04826   0.00000  Uiso   1.00
N89    N     0.65176   0.48913   0.43758   0.00000  Uiso   1.00
N90    N     0.47343   0.76628   0.80627   0.00000  Uiso   1.00
N91    N     0.84276   0.11140   0.09860   0.00000  Uiso   1.00
N92    N     0.58429   0.63282   0.48792   0.00000  Uiso   1.00
C93    C     0.20687   0.81955   0.92385   0.00000  Uiso   1.00
C94    C     0.14464   0.80039   0.99979   0.00000  Uiso   1.00
C95    C     0.12990   0.86432   0.09169   0.00000  Uiso   1.00
C96    C     0.07047   0.83317   0.15038   0.00000  Uiso   1.00
C97    C     0.98041   0.81735   0.27322   0.00000  Uiso   1.00
C98    C     0.24643   0.70526   0.91924   0.00000  Uiso   1.00
C99    C     0.31727   0.68922   0.94340   0.00000  Uiso   1.00
C100   C     0.34353   0.57799   0.93426   0.00000  Uiso   1.00
C101   C     0.41151   0.41451   0.93197   0.00000  Uiso   1.00
C102   C     0.17518   0.83717   0.81195   0.00000  Uiso   1.00
C103   C     0.18614   0.93202   0.74589   0.00000  Uiso   1.00
C104   C     0.15242   0.93184   0.64641   0.00000  Uiso   1.00
C105   C     0.10979   0.97316   0.47754   0.00000  Uiso   1.00
C106   C     0.12753   0.65056   0.86465   0.00000  Uiso   1.00
C107   C     0.10154   0.70860   0.96763   0.00000  Uiso   1.00
C108   C     0.04211   0.67735   0.02619   0.00000  Uiso   1.00
C109   C     0.02729   0.74123   0.11816   0.00000  Uiso   1.00
C110   C     0.20333   0.61348   0.88709   0.00000  Uiso   1.00
C111   C     0.22949   0.50226   0.87790   0.00000  Uiso   1.00
C112   C     0.30035   0.48604   0.90205   0.00000  Uiso   1.00
C113   C     0.13208   0.74539   0.77980   0.00000  Uiso   1.00
C114   C     0.09835   0.74505   0.68039   0.00000  Uiso   1.00
C115   C     0.10925   0.83989   0.61420   0.00000  Uiso   1.00
H116   H     0.24043   0.89100   0.94889   0.00000  Uiso   1.00
H117   H     0.16327   0.93534   0.11656   0.00000  Uiso   1.00
H118   H     0.35061   0.76027   0.96828   0.00000  Uiso   1.00
H119   H     0.21950   0.00303   0.77080   0.00000  Uiso   1.00
H120   H     0.05873   0.94399   0.28829   0.00000  Uiso   1.00
H121   H     0.45377   0.57485   0.97560   0.00000  Uiso   1.00
H122   H     0.17728   0.08676   0.55918   0.00000  Uiso   1.00
H123   H     0.09397   0.57910   0.83961   0.00000  Uiso   1.00
H124   H     0.00877   0.60632   0.00129   0.00000  Uiso   1.00
H125   H     0.19612   0.43125   0.85301   0.00000  Uiso   1.00
H126   H     0.06500   0.67401   0.65554   0.00000  Uiso   1.00
H127   H     0.93334   0.67694   0.19474   0.00000  Uiso   1.00
H128   H     0.32838   0.30780   0.88204   0.00000  Uiso   1.00
H129   H     0.05189   0.81972   0.46563   0.00000  Uiso   1.00
O130   O     0.94264   0.83397   0.34986   0.00000  Uiso   1.00
O131   O     0.46092   0.34969   0.93960   0.00000  Uiso   1.00
O132   O     0.09817   0.02131   0.39328   0.00000  Uiso   1.00
N133   N     0.04090   0.87742   0.24407   0.00000  Uiso   1.00
N134   N     0.41024   0.53229   0.95174   0.00000  Uiso   1.00
N135   N     0.15176   0.01087   0.56242   0.00000  Uiso   1.00
N136   N     0.97343   0.73372   0.19373   0.00000  Uiso   1.00
N137   N     0.34276   0.38860   0.90140   0.00000  Uiso   1.00
N138   N     0.08429   0.86718   0.51208   0.00000  Uiso   1.00
C139   C     0.29313   0.18045   0.42385   0.00000  Uiso   1.00
C140   C     0.35536   0.19961   0.49979   0.00000  Uiso   1.00
C141   C     0.37010   0.13568   0.59169   0.00000  Uiso   1.00
C142   C     0.42953   0.16683   0.65038   0.00000  Uiso   1.00
C143   C     0.51959   0.18265   0.77322   0.00000  Uiso   1.00
C144   C     0.25357   0.29474   0.41924   0.00000  Uiso   1.00
C145   C     0.18273   0.31078   0.44340   0.00000  Uiso   1.00
C146   C     0.15647   0.42201   0.43426   0.00000  Uiso   1.00
C147   C     0.08849   0.58549   0.43197   0.00000  Uiso   1.00
C148   C     0.32482   0.16283   0.31195   0.00000  Uiso   1.00
C149   C     0.31386   0.06798   0.24589   0.00000  Uiso   1.00
C150   C     0.34758   0.06816   0.14641   0.00000  Uiso   1.00
C151   C     0.39021   0.02684   0.97754   0.00000  Uiso   1.00
C152   C     0.37247   0.34944   0.36465   0.00000  Uiso   1.00
C153   C     0.39846   0.29140   0.46763   0.00000  Uiso   1.00
C154   C     0.45789   0.32265   0.52619   0.00000  Uiso   1.00
C155   C     0.47271   0.25878   0.61816   0.00000  Uiso   1.00
C156   C     0.29667   0.38652   0.38709   0.00000  Uiso   1.00
C157   C     0.27051   0.49774   0.37790   0.00000  Uiso   1.00
C158   C     0.19965   0.51396   0.40205   0.00000  Uiso   1.00
C159   C     0.36792   0.25461   0.27980   0.00000  Uiso   1.00
C160   C     0.40165   0.25495   0.18039   0.00000  Uiso   1.00
C161   C     0.39075   0.16011   0.11420   0.00000  Uiso   1.00
H162   H     0.25957   0.10900   0.44889   0.00000  Uiso   1.00
H163   H     0.33673   0.06466   0.61656   0.00000  Uiso   1.00
H164   H     0.14939   0.23973   0.46828   0.00000  Uiso   1.00
H165   H     0.28050   0.99697   0.27080   0.00000  Uiso   1.00
H166   H     0.44127   0.05601   0.78829   0.00000  Uiso   1.00
H167   H     0.04623   0.42515   0.47560   0.00000  Uiso   1.00
H168   H     0.32272   0.91324   0.05918   0.00000  Uiso   1.00
H169   H     0.40603   0.42090   0.33961   0.00000  Uiso   1.00
H170   H     0.49123   0.39368   0.50129   0.00000  Uiso   1.00
H171   H     0.30388   0.56875   0.35301   0.00000  Uiso   1.00
H172   H     0.43500   0.32599   0.15554   0.00000  Uiso   1.00
H173   H     0.56666   0.32306   0.69474   0.00000  Uiso   1.00
H174   H     0.17162   0.69220   0.38204   0.00000  Uiso   1.00
H175   H     0.44811   0.18028   0.96563   0.00000  Uiso   1.00
O176   O     0.55736   0.16603   0.84986   0.00000  Uiso   1.00
O177   O     0.03908   0.65031   0.43960   0.00000  Uiso   1.00
O178   O     0.40183   0.97869   0.89328   0.00000  Uiso   1.00
N179   N     0.45910   0.12258   0.74407   0.00000  Uiso   1.00
N180   N     0.08976   0.46771   0.45174   0.00000  Uiso   1.00
N181   N     0.34824   0.98913   0.06242   0.00000  Uiso   1.00
N182   N     0.52657   0.26628   0.69373   0.00000  Uiso   1.00
N183   N     0.15724   0.61140   0.40140   0.00000  Uiso   1.00
N184   N     0.41571   0.13282   0.01208   0.00000  Uiso   1.00
