data_job_05248
_audit_creation_date              2018-12-19
_audit_creation_method            'Materials Studio'
_symmetry_space_group_name_H-M    'P1'
_symmetry_Int_Tables_number       1
_symmetry_cell_setting            triclinic
loop_
_symmetry_equiv_pos_as_xyz
  x,y,z
_cell_length_a                    38.1612
_cell_length_b                    7.3372
_cell_length_c                    37.8809
_cell_angle_alpha                 90.0000
_cell_angle_beta                  163.7632
_cell_angle_gamma                 90.0000
loop_
_atom_site_label
_atom_site_type_symbol
_atom_site_fract_x
_atom_site_fract_y
_atom_site_fract_z
_atom_site_U_iso_or_equiv
_atom_site_adp_type
_atom_site_occupancy
C1     C     0.37316   0.42584   0.46894   0.00000  Uiso   1.00
C2     C     0.32052   0.34536   0.38400   0.00000  Uiso   1.00
C3     C     0.27612   0.44413   0.31243   0.00000  Uiso   1.00
C4     C     0.23181   0.34518   0.24093   0.00000  Uiso   1.00
C5     C     0.15000   0.24924   0.10897   0.00000  Uiso   1.00
C6     C     0.29492   0.34555   0.42314   0.00000  Uiso   1.00
C7     C     0.22901   0.44450   0.38450   0.00000  Uiso   1.00
C8     C     0.16316   0.34570   0.34597   0.00000  Uiso   1.00
C9     C     0.04168   0.25007   0.27488   0.00000  Uiso   1.00
C10    C     0.50421   0.34580   0.59987   0.00000  Uiso   1.00
C11    C     0.61427   0.44495   0.70982   0.00000  Uiso   1.00
C12    C     0.72463   0.34636   0.82010   0.00000  Uiso   1.00
C13    C     0.92809   0.25111   0.02338   0.00000  Uiso   1.00
C14    C     0.37343   0.07444   0.46925   0.00000  Uiso   1.00
C15    C     0.32067   0.15449   0.38417   0.00000  Uiso   1.00
C16    C     0.27642   0.05535   0.31277   0.00000  Uiso   1.00
C17    C     0.23196   0.15397   0.24110   0.00000  Uiso   1.00
C18    C     0.29506   0.15469   0.42331   0.00000  Uiso   1.00
C19    C     0.22931   0.05572   0.38484   0.00000  Uiso   1.00
C20    C     0.16331   0.15449   0.34614   0.00000  Uiso   1.00
C21    C     0.50436   0.15493   0.60004   0.00000  Uiso   1.00
C22    C     0.61456   0.05617   0.71016   0.00000  Uiso   1.00
C23    C     0.72477   0.15515   0.82026   0.00000  Uiso   1.00
H24    H     0.37304   0.57444   0.46880   0.00000  Uiso   1.00
H25    H     0.27601   0.59184   0.31231   0.00000  Uiso   1.00
H26    H     0.22892   0.59220   0.38439   0.00000  Uiso   1.00
H27    H     0.61412   0.59265   0.70966   0.00000  Uiso   1.00
H28    H     0.16846   0.52697   0.13885   0.00000  Uiso   1.00
H29    H     0.06920   0.52773   0.29087   0.00000  Uiso   1.00
H30    H     0.88147   0.52868   0.97677   0.00000  Uiso   1.00
H31    H     0.37354   0.92584   0.46938   0.00000  Uiso   1.00
H32    H     0.27654   0.90765   0.31292   0.00000  Uiso   1.00
H33    H     0.22945   0.90802   0.38499   0.00000  Uiso   1.00
H34    H     0.61464   0.90847   0.71026   0.00000  Uiso   1.00
H35    H     0.16889   0.97165   0.13934   0.00000  Uiso   1.00
H36    H     0.06963   0.97242   0.29137   0.00000  Uiso   1.00
H37    H     0.88189   0.97337   0.97725   0.00000  Uiso   1.00
O38    O     0.10482   0.24905   0.03612   0.00000  Uiso   1.00
O39    O     0.97461   0.25006   0.23560   0.00000  Uiso   1.00
O40    O     0.04028   0.25130   0.13547   0.00000  Uiso   1.00
N41    N     0.18190   0.39877   0.16046   0.00000  Uiso   1.00
N42    N     0.08908   0.39949   0.30257   0.00000  Uiso   1.00
N43    N     0.84847   0.40037   0.94383   0.00000  Uiso   1.00
N44    N     0.18213   0.09996   0.16072   0.00000  Uiso   1.00
N45    N     0.08931   0.10068   0.30283   0.00000  Uiso   1.00
N46    N     0.84870   0.10156   0.94409   0.00000  Uiso   1.00
C47    C     0.62684   0.92584   0.03106   0.00000  Uiso   1.00
C48    C     0.67948   0.84536   0.11600   0.00000  Uiso   1.00
C49    C     0.72388   0.94413   0.18757   0.00000  Uiso   1.00
C50    C     0.76819   0.84518   0.25907   0.00000  Uiso   1.00
C51    C     0.85000   0.74924   0.39103   0.00000  Uiso   1.00
C52    C     0.70508   0.84555   0.07686   0.00000  Uiso   1.00
C53    C     0.77099   0.94450   0.11550   0.00000  Uiso   1.00
C54    C     0.83684   0.84570   0.15403   0.00000  Uiso   1.00
C55    C     0.95832   0.75007   0.22512   0.00000  Uiso   1.00
C56    C     0.49579   0.84580   0.90013   0.00000  Uiso   1.00
C57    C     0.38573   0.94495   0.79018   0.00000  Uiso   1.00
C58    C     0.27537   0.84636   0.67990   0.00000  Uiso   1.00
C59    C     0.07191   0.75111   0.47662   0.00000  Uiso   1.00
C60    C     0.62657   0.57444   0.03075   0.00000  Uiso   1.00
C61    C     0.67933   0.65449   0.11583   0.00000  Uiso   1.00
C62    C     0.72358   0.55535   0.18723   0.00000  Uiso   1.00
C63    C     0.76804   0.65397   0.25890   0.00000  Uiso   1.00
C64    C     0.70494   0.65469   0.07669   0.00000  Uiso   1.00
C65    C     0.77069   0.55572   0.11516   0.00000  Uiso   1.00
C66    C     0.83669   0.65449   0.15386   0.00000  Uiso   1.00
C67    C     0.49564   0.65493   0.89996   0.00000  Uiso   1.00
C68    C     0.38544   0.55617   0.78984   0.00000  Uiso   1.00
C69    C     0.27523   0.65515   0.67974   0.00000  Uiso   1.00
H70    H     0.62696   0.07444   0.03120   0.00000  Uiso   1.00
H71    H     0.72399   0.09184   0.18769   0.00000  Uiso   1.00
H72    H     0.77108   0.09220   0.11561   0.00000  Uiso   1.00
H73    H     0.38588   0.09265   0.79034   0.00000  Uiso   1.00
H74    H     0.83154   0.02697   0.36115   0.00000  Uiso   1.00
H75    H     0.93080   0.02773   0.20913   0.00000  Uiso   1.00
H76    H     0.11853   0.02868   0.52323   0.00000  Uiso   1.00
H77    H     0.62646   0.42584   0.03062   0.00000  Uiso   1.00
H78    H     0.72346   0.40765   0.18708   0.00000  Uiso   1.00
H79    H     0.77055   0.40802   0.11501   0.00000  Uiso   1.00
H80    H     0.38536   0.40847   0.78974   0.00000  Uiso   1.00
H81    H     0.83111   0.47165   0.36066   0.00000  Uiso   1.00
H82    H     0.93037   0.47242   0.20863   0.00000  Uiso   1.00
H83    H     0.11811   0.47337   0.52275   0.00000  Uiso   1.00
O84    O     0.89518   0.74905   0.46388   0.00000  Uiso   1.00
O85    O     0.02539   0.75006   0.26440   0.00000  Uiso   1.00
O86    O     0.95972   0.75130   0.36453   0.00000  Uiso   1.00
N87    N     0.81810   0.89877   0.33954   0.00000  Uiso   1.00
N88    N     0.91092   0.89949   0.19743   0.00000  Uiso   1.00
N89    N     0.15153   0.90037   0.55617   0.00000  Uiso   1.00
N90    N     0.81787   0.59996   0.33928   0.00000  Uiso   1.00
N91    N     0.91069   0.60068   0.19717   0.00000  Uiso   1.00
N92    N     0.15130   0.60156   0.55591   0.00000  Uiso   1.00
C93    C     0.62684   0.57416   0.53106   0.00000  Uiso   1.00
C94    C     0.67948   0.65464   0.61600   0.00000  Uiso   1.00
C95    C     0.72388   0.55587   0.68757   0.00000  Uiso   1.00
C96    C     0.76819   0.65482   0.75907   0.00000  Uiso   1.00
C97    C     0.85000   0.75076   0.89103   0.00000  Uiso   1.00
C98    C     0.70508   0.65445   0.57686   0.00000  Uiso   1.00
C99    C     0.77099   0.55550   0.61550   0.00000  Uiso   1.00
C100   C     0.83684   0.65430   0.65403   0.00000  Uiso   1.00
C101   C     0.95832   0.74993   0.72512   0.00000  Uiso   1.00
C102   C     0.49579   0.65420   0.40013   0.00000  Uiso   1.00
C103   C     0.38573   0.55505   0.29018   0.00000  Uiso   1.00
C104   C     0.27537   0.65364   0.17990   0.00000  Uiso   1.00
C105   C     0.07191   0.74889   0.97662   0.00000  Uiso   1.00
C106   C     0.62657   0.92556   0.53075   0.00000  Uiso   1.00
C107   C     0.67933   0.84551   0.61583   0.00000  Uiso   1.00
C108   C     0.72358   0.94465   0.68723   0.00000  Uiso   1.00
C109   C     0.76804   0.84603   0.75890   0.00000  Uiso   1.00
C110   C     0.70494   0.84531   0.57669   0.00000  Uiso   1.00
C111   C     0.77069   0.94428   0.61516   0.00000  Uiso   1.00
C112   C     0.83669   0.84551   0.65386   0.00000  Uiso   1.00
C113   C     0.49564   0.84507   0.39996   0.00000  Uiso   1.00
C114   C     0.38544   0.94383   0.28984   0.00000  Uiso   1.00
C115   C     0.27523   0.84485   0.17974   0.00000  Uiso   1.00
H116   H     0.62696   0.42556   0.53120   0.00000  Uiso   1.00
H117   H     0.72399   0.40816   0.68769   0.00000  Uiso   1.00
H118   H     0.77108   0.40780   0.61561   0.00000  Uiso   1.00
H119   H     0.38588   0.40735   0.29034   0.00000  Uiso   1.00
H120   H     0.83154   0.47303   0.86115   0.00000  Uiso   1.00
H121   H     0.93080   0.47227   0.70913   0.00000  Uiso   1.00
H122   H     0.11853   0.47132   0.02323   0.00000  Uiso   1.00
H123   H     0.62646   0.07416   0.53062   0.00000  Uiso   1.00
H124   H     0.72346   0.09235   0.68708   0.00000  Uiso   1.00
H125   H     0.77055   0.09198   0.61501   0.00000  Uiso   1.00
H126   H     0.38536   0.09153   0.28974   0.00000  Uiso   1.00
H127   H     0.83111   0.02835   0.86066   0.00000  Uiso   1.00
H128   H     0.93037   0.02758   0.70863   0.00000  Uiso   1.00
H129   H     0.11811   0.02663   0.02275   0.00000  Uiso   1.00
O130   O     0.89518   0.75095   0.96388   0.00000  Uiso   1.00
O131   O     0.02539   0.74994   0.76440   0.00000  Uiso   1.00
O132   O     0.95972   0.74870   0.86453   0.00000  Uiso   1.00
N133   N     0.81810   0.60123   0.83954   0.00000  Uiso   1.00
N134   N     0.91092   0.60051   0.69743   0.00000  Uiso   1.00
N135   N     0.15153   0.59963   0.05617   0.00000  Uiso   1.00
N136   N     0.81787   0.90004   0.83928   0.00000  Uiso   1.00
N137   N     0.91069   0.89932   0.69717   0.00000  Uiso   1.00
N138   N     0.15130   0.89844   0.05591   0.00000  Uiso   1.00
C139   C     0.37316   0.07416   0.96894   0.00000  Uiso   1.00
C140   C     0.32052   0.15464   0.88400   0.00000  Uiso   1.00
C141   C     0.27612   0.05587   0.81243   0.00000  Uiso   1.00
C142   C     0.23181   0.15482   0.74093   0.00000  Uiso   1.00
C143   C     0.15000   0.25076   0.60897   0.00000  Uiso   1.00
C144   C     0.29492   0.15445   0.92314   0.00000  Uiso   1.00
C145   C     0.22901   0.05550   0.88450   0.00000  Uiso   1.00
C146   C     0.16316   0.15430   0.84597   0.00000  Uiso   1.00
C147   C     0.04168   0.24993   0.77488   0.00000  Uiso   1.00
C148   C     0.50421   0.15420   0.09987   0.00000  Uiso   1.00
C149   C     0.61427   0.05505   0.20982   0.00000  Uiso   1.00
C150   C     0.72463   0.15364   0.32010   0.00000  Uiso   1.00
C151   C     0.92809   0.24889   0.52338   0.00000  Uiso   1.00
C152   C     0.37343   0.42556   0.96925   0.00000  Uiso   1.00
C153   C     0.32067   0.34551   0.88417   0.00000  Uiso   1.00
C154   C     0.27642   0.44465   0.81277   0.00000  Uiso   1.00
C155   C     0.23196   0.34603   0.74110   0.00000  Uiso   1.00
C156   C     0.29506   0.34531   0.92331   0.00000  Uiso   1.00
C157   C     0.22931   0.44428   0.88484   0.00000  Uiso   1.00
C158   C     0.16331   0.34551   0.84614   0.00000  Uiso   1.00
C159   C     0.50436   0.34507   0.10004   0.00000  Uiso   1.00
C160   C     0.61456   0.44383   0.21016   0.00000  Uiso   1.00
C161   C     0.72477   0.34485   0.32026   0.00000  Uiso   1.00
H162   H     0.37304   0.92556   0.96880   0.00000  Uiso   1.00
H163   H     0.27601   0.90816   0.81231   0.00000  Uiso   1.00
H164   H     0.22892   0.90780   0.88439   0.00000  Uiso   1.00
H165   H     0.61412   0.90735   0.20966   0.00000  Uiso   1.00
H166   H     0.16846   0.97303   0.63885   0.00000  Uiso   1.00
H167   H     0.06920   0.97227   0.79087   0.00000  Uiso   1.00
H168   H     0.88147   0.97132   0.47677   0.00000  Uiso   1.00
H169   H     0.37354   0.57416   0.96938   0.00000  Uiso   1.00
H170   H     0.27654   0.59235   0.81292   0.00000  Uiso   1.00
H171   H     0.22945   0.59198   0.88499   0.00000  Uiso   1.00
H172   H     0.61464   0.59153   0.21026   0.00000  Uiso   1.00
H173   H     0.16889   0.52835   0.63934   0.00000  Uiso   1.00
H174   H     0.06963   0.52758   0.79137   0.00000  Uiso   1.00
H175   H     0.88189   0.52663   0.47725   0.00000  Uiso   1.00
O176   O     0.10482   0.25095   0.53612   0.00000  Uiso   1.00
O177   O     0.97461   0.24994   0.73560   0.00000  Uiso   1.00
O178   O     0.04028   0.24870   0.63547   0.00000  Uiso   1.00
N179   N     0.18190   0.10123   0.66046   0.00000  Uiso   1.00
N180   N     0.08908   0.10051   0.80257   0.00000  Uiso   1.00
N181   N     0.84847   0.09963   0.44383   0.00000  Uiso   1.00
N182   N     0.18213   0.40004   0.66072   0.00000  Uiso   1.00
N183   N     0.08931   0.39932   0.80283   0.00000  Uiso   1.00
N184   N     0.84870   0.39844   0.44409   0.00000  Uiso   1.00
