data_job_02647
_audit_creation_date              2018-12-19
_audit_creation_method            'Materials Studio'
_symmetry_space_group_name_H-M    'P1'
_symmetry_Int_Tables_number       1
_symmetry_cell_setting            triclinic
loop_
_symmetry_equiv_pos_as_xyz
  x,y,z
_cell_length_a                    11.0924
_cell_length_b                    12.2662
_cell_length_c                    25.7221
_cell_angle_alpha                 90.0000
_cell_angle_beta                  123.2530
_cell_angle_gamma                 90.0000
loop_
_atom_site_label
_atom_site_type_symbol
_atom_site_fract_x
_atom_site_fract_y
_atom_site_fract_z
_atom_site_U_iso_or_equiv
_atom_site_adp_type
_atom_site_occupancy
C1     C     0.96915   0.15497   0.80170   0.00000  Uiso   1.00
C2     C     0.81247   0.18310   0.75272   0.00000  Uiso   1.00
C3     C     0.74776   0.17838   0.68883   0.00000  Uiso   1.00
C4     C     0.60330   0.20740   0.65186   0.00000  Uiso   1.00
C5     C     0.37174   0.24618   0.57184   0.00000  Uiso   1.00
C6     C     0.03333   0.25581   0.84270   0.00000  Uiso   1.00
C7     C     0.15433   0.31221   0.85446   0.00000  Uiso   1.00
C8     C     0.19580   0.40242   0.89323   0.00000  Uiso   1.00
C9     C     0.30718   0.55403   0.95294   0.00000  Uiso   1.00
C10    C     0.96469   0.06709   0.84255   0.00000  Uiso   1.00
C11    C     0.02800   0.96482   0.85420   0.00000  Uiso   1.00
C12    C     0.01171   0.89615   0.89285   0.00000  Uiso   1.00
C13    C     0.01651   0.75475   0.95233   0.00000  Uiso   1.00
C14    C     0.82767   0.21491   0.84966   0.00000  Uiso   1.00
C15    C     0.73563   0.21566   0.77877   0.00000  Uiso   1.00
C16    C     0.59123   0.24469   0.74189   0.00000  Uiso   1.00
C17    C     0.52632   0.24001   0.67795   0.00000  Uiso   1.00
C18    C     0.95649   0.28837   0.86874   0.00000  Uiso   1.00
C19    C     0.99780   0.37852   0.90751   0.00000  Uiso   1.00
C20    C     0.11882   0.43504   0.91933   0.00000  Uiso   1.00
C21    C     0.88784   0.09964   0.86859   0.00000  Uiso   1.00
C22    C     0.87146   0.03113   0.90725   0.00000  Uiso   1.00
C23    C     0.93473   0.92877   0.91895   0.00000  Uiso   1.00
H24    H     0.02898   0.12963   0.78143   0.00000  Uiso   1.00
H25    H     0.80727   0.15319   0.66869   0.00000  Uiso   1.00
H26    H     0.21378   0.28699   0.83430   0.00000  Uiso   1.00
H27    H     0.08746   0.93965   0.83403   0.00000  Uiso   1.00
H28    H     0.52759   0.19371   0.55519   0.00000  Uiso   1.00
H29    H     0.38477   0.47580   0.90440   0.00000  Uiso   1.00
H30    H     0.11841   0.74338   0.90384   0.00000  Uiso   1.00
H31    H     0.76784   0.24026   0.86994   0.00000  Uiso   1.00
H32    H     0.53179   0.26988   0.76205   0.00000  Uiso   1.00
H33    H     0.93831   0.40368   0.92766   0.00000  Uiso   1.00
H34    H     0.81199   0.05635   0.92739   0.00000  Uiso   1.00
H35    H     0.30400   0.28842   0.63097   0.00000  Uiso   1.00
H36    H     0.16119   0.57052   0.98018   0.00000  Uiso   1.00
H37    H     0.89482   0.83809   0.97961   0.00000  Uiso   1.00
O38    O     0.26524   0.25859   0.52052   0.00000  Uiso   1.00
O39    O     0.38984   0.62867   0.97867   0.00000  Uiso   1.00
O40    O     0.04037   0.66776   0.97793   0.00000  Uiso   1.00
N41    N     0.50736   0.21191   0.58783   0.00000  Uiso   1.00
N42    N     0.30875   0.47566   0.91431   0.00000  Uiso   1.00
N43    N     0.05976   0.79092   0.91380   0.00000  Uiso   1.00
N44    N     0.38704   0.26288   0.62861   0.00000  Uiso   1.00
N45    N     0.18844   0.52663   0.95509   0.00000  Uiso   1.00
N46    N     0.93945   0.84188   0.95457   0.00000  Uiso   1.00
C47    C     0.03085   0.65497   0.69830   0.00000  Uiso   1.00
C48    C     0.18753   0.68310   0.74728   0.00000  Uiso   1.00
C49    C     0.25224   0.67838   0.81117   0.00000  Uiso   1.00
C50    C     0.39670   0.70740   0.84814   0.00000  Uiso   1.00
C51    C     0.62826   0.74618   0.92816   0.00000  Uiso   1.00
C52    C     0.96667   0.75581   0.65730   0.00000  Uiso   1.00
C53    C     0.84567   0.81221   0.64554   0.00000  Uiso   1.00
C54    C     0.80420   0.90242   0.60677   0.00000  Uiso   1.00
C55    C     0.69282   0.05403   0.54706   0.00000  Uiso   1.00
C56    C     0.03531   0.56709   0.65745   0.00000  Uiso   1.00
C57    C     0.97200   0.46482   0.64580   0.00000  Uiso   1.00
C58    C     0.98829   0.39615   0.60715   0.00000  Uiso   1.00
C59    C     0.98349   0.25475   0.54767   0.00000  Uiso   1.00
C60    C     0.17233   0.71491   0.65034   0.00000  Uiso   1.00
C61    C     0.26437   0.71566   0.72123   0.00000  Uiso   1.00
C62    C     0.40877   0.74469   0.75811   0.00000  Uiso   1.00
C63    C     0.47368   0.74001   0.82205   0.00000  Uiso   1.00
C64    C     0.04351   0.78837   0.63126   0.00000  Uiso   1.00
C65    C     0.00220   0.87852   0.59249   0.00000  Uiso   1.00
C66    C     0.88118   0.93504   0.58067   0.00000  Uiso   1.00
C67    C     0.11216   0.59964   0.63141   0.00000  Uiso   1.00
C68    C     0.12854   0.53113   0.59275   0.00000  Uiso   1.00
C69    C     0.06527   0.42877   0.58105   0.00000  Uiso   1.00
H70    H     0.97102   0.62963   0.71857   0.00000  Uiso   1.00
H71    H     0.19273   0.65319   0.83131   0.00000  Uiso   1.00
H72    H     0.78622   0.78699   0.66570   0.00000  Uiso   1.00
H73    H     0.91254   0.43965   0.66597   0.00000  Uiso   1.00
H74    H     0.47241   0.69371   0.94481   0.00000  Uiso   1.00
H75    H     0.61523   0.97580   0.59560   0.00000  Uiso   1.00
H76    H     0.88159   0.24338   0.59616   0.00000  Uiso   1.00
H77    H     0.23216   0.74026   0.63006   0.00000  Uiso   1.00
H78    H     0.46821   0.76988   0.73795   0.00000  Uiso   1.00
H79    H     0.06169   0.90368   0.57234   0.00000  Uiso   1.00
H80    H     0.18801   0.55635   0.57261   0.00000  Uiso   1.00
H81    H     0.69600   0.78842   0.86903   0.00000  Uiso   1.00
H82    H     0.83881   0.07052   0.51982   0.00000  Uiso   1.00
H83    H     0.10518   0.33809   0.52039   0.00000  Uiso   1.00
O84    O     0.73476   0.75859   0.97948   0.00000  Uiso   1.00
O85    O     0.61016   0.12867   0.52133   0.00000  Uiso   1.00
O86    O     0.95963   0.16776   0.52207   0.00000  Uiso   1.00
N87    N     0.49264   0.71191   0.91217   0.00000  Uiso   1.00
N88    N     0.69125   0.97566   0.58569   0.00000  Uiso   1.00
N89    N     0.94024   0.29092   0.58620   0.00000  Uiso   1.00
N90    N     0.61296   0.76288   0.87139   0.00000  Uiso   1.00
N91    N     0.81156   0.02663   0.54491   0.00000  Uiso   1.00
N92    N     0.06055   0.34188   0.54543   0.00000  Uiso   1.00
C93    C     0.03085   0.84503   0.19830   0.00000  Uiso   1.00
C94    C     0.18753   0.81690   0.24728   0.00000  Uiso   1.00
C95    C     0.25224   0.82162   0.31117   0.00000  Uiso   1.00
C96    C     0.39670   0.79260   0.34814   0.00000  Uiso   1.00
C97    C     0.62826   0.75382   0.42816   0.00000  Uiso   1.00
C98    C     0.96667   0.74419   0.15730   0.00000  Uiso   1.00
C99    C     0.84567   0.68779   0.14554   0.00000  Uiso   1.00
C100   C     0.80420   0.59758   0.10677   0.00000  Uiso   1.00
C101   C     0.69282   0.44597   0.04706   0.00000  Uiso   1.00
C102   C     0.03531   0.93291   0.15745   0.00000  Uiso   1.00
C103   C     0.97200   0.03518   0.14580   0.00000  Uiso   1.00
C104   C     0.98829   0.10385   0.10715   0.00000  Uiso   1.00
C105   C     0.98349   0.24525   0.04767   0.00000  Uiso   1.00
C106   C     0.17233   0.78509   0.15034   0.00000  Uiso   1.00
C107   C     0.26437   0.78434   0.22123   0.00000  Uiso   1.00
C108   C     0.40877   0.75531   0.25811   0.00000  Uiso   1.00
C109   C     0.47368   0.75999   0.32205   0.00000  Uiso   1.00
C110   C     0.04351   0.71163   0.13126   0.00000  Uiso   1.00
C111   C     0.00220   0.62148   0.09249   0.00000  Uiso   1.00
C112   C     0.88118   0.56496   0.08067   0.00000  Uiso   1.00
C113   C     0.11216   0.90036   0.13141   0.00000  Uiso   1.00
C114   C     0.12854   0.96887   0.09275   0.00000  Uiso   1.00
C115   C     0.06527   0.07123   0.08105   0.00000  Uiso   1.00
H116   H     0.97102   0.87037   0.21857   0.00000  Uiso   1.00
H117   H     0.19273   0.84681   0.33131   0.00000  Uiso   1.00
H118   H     0.78622   0.71301   0.16570   0.00000  Uiso   1.00
H119   H     0.91254   0.06035   0.16597   0.00000  Uiso   1.00
H120   H     0.47241   0.80629   0.44481   0.00000  Uiso   1.00
H121   H     0.61523   0.52420   0.09560   0.00000  Uiso   1.00
H122   H     0.88159   0.25662   0.09616   0.00000  Uiso   1.00
H123   H     0.23216   0.75974   0.13006   0.00000  Uiso   1.00
H124   H     0.46821   0.73012   0.23795   0.00000  Uiso   1.00
H125   H     0.06169   0.59632   0.07234   0.00000  Uiso   1.00
H126   H     0.18801   0.94365   0.07261   0.00000  Uiso   1.00
H127   H     0.69600   0.71158   0.36903   0.00000  Uiso   1.00
H128   H     0.83881   0.42948   0.01982   0.00000  Uiso   1.00
H129   H     0.10518   0.16191   0.02039   0.00000  Uiso   1.00
O130   O     0.73476   0.74141   0.47948   0.00000  Uiso   1.00
O131   O     0.61016   0.37133   0.02133   0.00000  Uiso   1.00
O132   O     0.95963   0.33224   0.02207   0.00000  Uiso   1.00
N133   N     0.49264   0.78809   0.41217   0.00000  Uiso   1.00
N134   N     0.69125   0.52434   0.08569   0.00000  Uiso   1.00
N135   N     0.94024   0.20908   0.08620   0.00000  Uiso   1.00
N136   N     0.61296   0.73712   0.37139   0.00000  Uiso   1.00
N137   N     0.81156   0.47337   0.04491   0.00000  Uiso   1.00
N138   N     0.06055   0.15812   0.04543   0.00000  Uiso   1.00
C139   C     0.96915   0.34503   0.30170   0.00000  Uiso   1.00
C140   C     0.81247   0.31690   0.25272   0.00000  Uiso   1.00
C141   C     0.74776   0.32162   0.18883   0.00000  Uiso   1.00
C142   C     0.60330   0.29260   0.15186   0.00000  Uiso   1.00
C143   C     0.37174   0.25382   0.07184   0.00000  Uiso   1.00
C144   C     0.03333   0.24419   0.34270   0.00000  Uiso   1.00
C145   C     0.15433   0.18779   0.35446   0.00000  Uiso   1.00
C146   C     0.19580   0.09758   0.39323   0.00000  Uiso   1.00
C147   C     0.30718   0.94597   0.45294   0.00000  Uiso   1.00
C148   C     0.96469   0.43291   0.34255   0.00000  Uiso   1.00
C149   C     0.02800   0.53518   0.35420   0.00000  Uiso   1.00
C150   C     0.01171   0.60385   0.39285   0.00000  Uiso   1.00
C151   C     0.01651   0.74525   0.45233   0.00000  Uiso   1.00
C152   C     0.82767   0.28509   0.34966   0.00000  Uiso   1.00
C153   C     0.73563   0.28434   0.27877   0.00000  Uiso   1.00
C154   C     0.59123   0.25531   0.24189   0.00000  Uiso   1.00
C155   C     0.52632   0.25999   0.17795   0.00000  Uiso   1.00
C156   C     0.95649   0.21163   0.36874   0.00000  Uiso   1.00
C157   C     0.99780   0.12148   0.40751   0.00000  Uiso   1.00
C158   C     0.11882   0.06496   0.41933   0.00000  Uiso   1.00
C159   C     0.88784   0.40036   0.36859   0.00000  Uiso   1.00
C160   C     0.87146   0.46887   0.40725   0.00000  Uiso   1.00
C161   C     0.93473   0.57123   0.41895   0.00000  Uiso   1.00
H162   H     0.02898   0.37037   0.28143   0.00000  Uiso   1.00
H163   H     0.80727   0.34681   0.16869   0.00000  Uiso   1.00
H164   H     0.21378   0.21301   0.33430   0.00000  Uiso   1.00
H165   H     0.08746   0.56035   0.33403   0.00000  Uiso   1.00
H166   H     0.52759   0.30629   0.05519   0.00000  Uiso   1.00
H167   H     0.38477   0.02420   0.40440   0.00000  Uiso   1.00
H168   H     0.11841   0.75662   0.40384   0.00000  Uiso   1.00
H169   H     0.76784   0.25974   0.36994   0.00000  Uiso   1.00
H170   H     0.53179   0.23012   0.26205   0.00000  Uiso   1.00
H171   H     0.93831   0.09632   0.42766   0.00000  Uiso   1.00
H172   H     0.81199   0.44365   0.42739   0.00000  Uiso   1.00
H173   H     0.30400   0.21158   0.13097   0.00000  Uiso   1.00
H174   H     0.16119   0.92948   0.48018   0.00000  Uiso   1.00
H175   H     0.89482   0.66191   0.47961   0.00000  Uiso   1.00
O176   O     0.26524   0.24141   0.02052   0.00000  Uiso   1.00
O177   O     0.38984   0.87133   0.47867   0.00000  Uiso   1.00
O178   O     0.04037   0.83224   0.47793   0.00000  Uiso   1.00
N179   N     0.50736   0.28809   0.08783   0.00000  Uiso   1.00
N180   N     0.30875   0.02434   0.41431   0.00000  Uiso   1.00
N181   N     0.05976   0.70908   0.41380   0.00000  Uiso   1.00
N182   N     0.38704   0.23712   0.12861   0.00000  Uiso   1.00
N183   N     0.18844   0.97337   0.45509   0.00000  Uiso   1.00
N184   N     0.93945   0.65812   0.45457   0.00000  Uiso   1.00
