data_job_04568
_audit_creation_date              2018-12-19
_audit_creation_method            'Materials Studio'
_symmetry_space_group_name_H-M    'P1'
_symmetry_Int_Tables_number       1
_symmetry_cell_setting            triclinic
loop_
_symmetry_equiv_pos_as_xyz
  x,y,z
_cell_length_a                    17.9783
_cell_length_b                    10.9129
_cell_length_c                    12.4431
_cell_angle_alpha                 90.0000
_cell_angle_beta                  90.0000
_cell_angle_gamma                 90.0000
loop_
_atom_site_label
_atom_site_type_symbol
_atom_site_fract_x
_atom_site_fract_y
_atom_site_fract_z
_atom_site_U_iso_or_equiv
_atom_site_adp_type
_atom_site_occupancy
C1     C     0.21647   0.91174   0.16031   0.00000  Uiso   1.00
C2     C     0.17721   0.93435   0.05350   0.00000  Uiso   1.00
C3     C     0.14404   0.84547   0.98974   0.00000  Uiso   1.00
C4     C     0.11103   0.88473   0.89492   0.00000  Uiso   1.00
C5     C     0.05008   0.90101   0.73359   0.00000  Uiso   1.00
C6     C     0.29479   0.96336   0.14746   0.00000  Uiso   1.00
C7     C     0.36048   0.89885   0.16272   0.00000  Uiso   1.00
C8     C     0.42644   0.96254   0.14701   0.00000  Uiso   1.00
C9     C     0.54803   0.02386   0.13164   0.00000  Uiso   1.00
C10    C     0.17766   0.99362   0.24227   0.00000  Uiso   1.00
C11    C     0.14488   0.95457   0.33727   0.00000  Uiso   1.00
C12    C     0.11225   0.04373   0.40140   0.00000  Uiso   1.00
C13    C     0.05198   0.15204   0.53323   0.00000  Uiso   1.00
C14    C     0.21683   0.13953   0.10531   0.00000  Uiso   1.00
C15    C     0.17741   0.05808   0.02362   0.00000  Uiso   1.00
C16    C     0.14444   0.09749   0.92888   0.00000  Uiso   1.00
C17    C     0.11123   0.00868   0.86500   0.00000  Uiso   1.00
C18    C     0.29498   0.08707   0.11758   0.00000  Uiso   1.00
C19    C     0.36087   0.15087   0.10186   0.00000  Uiso   1.00
C20    C     0.42664   0.08648   0.11708   0.00000  Uiso   1.00
C21    C     0.17785   0.11734   0.21240   0.00000  Uiso   1.00
C22    C     0.14527   0.20658   0.27640   0.00000  Uiso   1.00
C23    C     0.11245   0.16768   0.37147   0.00000  Uiso   1.00
H24    H     0.21632   0.81542   0.18357   0.00000  Uiso   1.00
H25    H     0.14391   0.74973   0.01288   0.00000  Uiso   1.00
H26    H     0.36031   0.80311   0.18585   0.00000  Uiso   1.00
H27    H     0.14474   0.85882   0.36036   0.00000  Uiso   1.00
H28    H     0.06374   0.73146   0.81045   0.00000  Uiso   1.00
H29    H     0.52002   0.84403   0.17519   0.00000  Uiso   1.00
H30    H     0.06546   0.96149   0.54319   0.00000  Uiso   1.00
H31    H     0.21698   0.23586   0.08205   0.00000  Uiso   1.00
H32    H     0.14460   0.19324   0.90579   0.00000  Uiso   1.00
H33    H     0.36100   0.24662   0.07875   0.00000  Uiso   1.00
H34    H     0.14543   0.30232   0.25326   0.00000  Uiso   1.00
H35    H     0.06430   0.09142   0.72352   0.00000  Uiso   1.00
H36    H     0.52059   0.20399   0.08827   0.00000  Uiso   1.00
H37    H     0.06603   0.32145   0.45626   0.00000  Uiso   1.00
O38    O     0.01642   0.87581   0.65285   0.00000  Uiso   1.00
O39    O     0.61504   0.02350   0.13140   0.00000  Uiso   1.00
O40    O     0.01867   0.17761   0.61419   0.00000  Uiso   1.00
N41    N     0.07379   0.82203   0.81419   0.00000  Uiso   1.00
N42    N     0.50039   0.92727   0.15518   0.00000  Uiso   1.00
N43    N     0.07543   0.03709   0.49924   0.00000  Uiso   1.00
N44    N     0.07409   0.01572   0.76742   0.00000  Uiso   1.00
N45    N     0.50069   0.12096   0.10841   0.00000  Uiso   1.00
N46    N     0.07573   0.23078   0.45247   0.00000  Uiso   1.00
C47    C     0.78353   0.08826   0.66031   0.00000  Uiso   1.00
C48    C     0.82279   0.06565   0.55350   0.00000  Uiso   1.00
C49    C     0.85596   0.15453   0.48974   0.00000  Uiso   1.00
C50    C     0.88897   0.11527   0.39492   0.00000  Uiso   1.00
C51    C     0.94992   0.09899   0.23359   0.00000  Uiso   1.00
C52    C     0.70521   0.03664   0.64746   0.00000  Uiso   1.00
C53    C     0.63952   0.10115   0.66272   0.00000  Uiso   1.00
C54    C     0.57356   0.03746   0.64701   0.00000  Uiso   1.00
C55    C     0.45197   0.97614   0.63164   0.00000  Uiso   1.00
C56    C     0.82234   0.00638   0.74227   0.00000  Uiso   1.00
C57    C     0.85512   0.04543   0.83727   0.00000  Uiso   1.00
C58    C     0.88775   0.95627   0.90140   0.00000  Uiso   1.00
C59    C     0.94802   0.84796   0.03323   0.00000  Uiso   1.00
C60    C     0.78317   0.86047   0.60531   0.00000  Uiso   1.00
C61    C     0.82259   0.94192   0.52362   0.00000  Uiso   1.00
C62    C     0.85556   0.90251   0.42888   0.00000  Uiso   1.00
C63    C     0.88877   0.99132   0.36500   0.00000  Uiso   1.00
C64    C     0.70502   0.91293   0.61758   0.00000  Uiso   1.00
C65    C     0.63913   0.84913   0.60186   0.00000  Uiso   1.00
C66    C     0.57336   0.91352   0.61708   0.00000  Uiso   1.00
C67    C     0.82215   0.88266   0.71240   0.00000  Uiso   1.00
C68    C     0.85473   0.79342   0.77640   0.00000  Uiso   1.00
C69    C     0.88755   0.83232   0.87147   0.00000  Uiso   1.00
H70    H     0.78368   0.18458   0.68357   0.00000  Uiso   1.00
H71    H     0.85609   0.25027   0.51288   0.00000  Uiso   1.00
H72    H     0.63969   0.19689   0.68585   0.00000  Uiso   1.00
H73    H     0.85526   0.14118   0.86036   0.00000  Uiso   1.00
H74    H     0.93626   0.26854   0.31045   0.00000  Uiso   1.00
H75    H     0.47998   0.15597   0.67519   0.00000  Uiso   1.00
H76    H     0.93454   0.03851   0.04319   0.00000  Uiso   1.00
H77    H     0.78302   0.76414   0.58205   0.00000  Uiso   1.00
H78    H     0.85540   0.80676   0.40579   0.00000  Uiso   1.00
H79    H     0.63900   0.75338   0.57875   0.00000  Uiso   1.00
H80    H     0.85457   0.69768   0.75326   0.00000  Uiso   1.00
H81    H     0.93570   0.90858   0.22352   0.00000  Uiso   1.00
H82    H     0.47941   0.79601   0.58827   0.00000  Uiso   1.00
H83    H     0.93397   0.67855   0.95626   0.00000  Uiso   1.00
O84    O     0.98358   0.12419   0.15285   0.00000  Uiso   1.00
O85    O     0.38496   0.97650   0.63140   0.00000  Uiso   1.00
O86    O     0.98133   0.82239   0.11419   0.00000  Uiso   1.00
N87    N     0.92621   0.17797   0.31419   0.00000  Uiso   1.00
N88    N     0.49961   0.07273   0.65518   0.00000  Uiso   1.00
N89    N     0.92457   0.96291   0.99924   0.00000  Uiso   1.00
N90    N     0.92591   0.98428   0.26742   0.00000  Uiso   1.00
N91    N     0.49931   0.87904   0.60841   0.00000  Uiso   1.00
N92    N     0.92427   0.76922   0.95247   0.00000  Uiso   1.00
C93    C     0.71647   0.58826   0.16031   0.00000  Uiso   1.00
C94    C     0.67721   0.56565   0.05350   0.00000  Uiso   1.00
C95    C     0.64404   0.65453   0.98974   0.00000  Uiso   1.00
C96    C     0.61103   0.61527   0.89492   0.00000  Uiso   1.00
C97    C     0.55008   0.59899   0.73359   0.00000  Uiso   1.00
C98    C     0.79479   0.53664   0.14746   0.00000  Uiso   1.00
C99    C     0.86048   0.60115   0.16272   0.00000  Uiso   1.00
C100   C     0.92644   0.53746   0.14701   0.00000  Uiso   1.00
C101   C     0.04803   0.47614   0.13164   0.00000  Uiso   1.00
C102   C     0.67766   0.50638   0.24227   0.00000  Uiso   1.00
C103   C     0.64488   0.54543   0.33726   0.00000  Uiso   1.00
C104   C     0.61225   0.45627   0.40140   0.00000  Uiso   1.00
C105   C     0.55198   0.34796   0.53323   0.00000  Uiso   1.00
C106   C     0.71683   0.36047   0.10531   0.00000  Uiso   1.00
C107   C     0.67741   0.44192   0.02362   0.00000  Uiso   1.00
C108   C     0.64444   0.40251   0.92888   0.00000  Uiso   1.00
C109   C     0.61123   0.49132   0.86500   0.00000  Uiso   1.00
C110   C     0.79498   0.41293   0.11758   0.00000  Uiso   1.00
C111   C     0.86087   0.34913   0.10186   0.00000  Uiso   1.00
C112   C     0.92664   0.41352   0.11708   0.00000  Uiso   1.00
C113   C     0.67785   0.38266   0.21240   0.00000  Uiso   1.00
C114   C     0.64527   0.29342   0.27640   0.00000  Uiso   1.00
C115   C     0.61245   0.33232   0.37147   0.00000  Uiso   1.00
H116   H     0.71632   0.68458   0.18357   0.00000  Uiso   1.00
H117   H     0.64391   0.75027   0.01288   0.00000  Uiso   1.00
H118   H     0.86031   0.69689   0.18585   0.00000  Uiso   1.00
H119   H     0.64474   0.64118   0.36036   0.00000  Uiso   1.00
H120   H     0.56374   0.76854   0.81045   0.00000  Uiso   1.00
H121   H     0.02002   0.65597   0.17519   0.00000  Uiso   1.00
H122   H     0.56546   0.53851   0.54319   0.00000  Uiso   1.00
H123   H     0.71698   0.26414   0.08205   0.00000  Uiso   1.00
H124   H     0.64460   0.30676   0.90579   0.00000  Uiso   1.00
H125   H     0.86100   0.25338   0.07875   0.00000  Uiso   1.00
H126   H     0.64543   0.19768   0.25326   0.00000  Uiso   1.00
H127   H     0.56430   0.40858   0.72352   0.00000  Uiso   1.00
H128   H     0.02059   0.29601   0.08827   0.00000  Uiso   1.00
H129   H     0.56603   0.17855   0.45626   0.00000  Uiso   1.00
O130   O     0.51642   0.62419   0.65285   0.00000  Uiso   1.00
O131   O     0.11504   0.47650   0.13140   0.00000  Uiso   1.00
O132   O     0.51867   0.32239   0.61419   0.00000  Uiso   1.00
N133   N     0.57379   0.67797   0.81419   0.00000  Uiso   1.00
N134   N     0.00039   0.57273   0.15518   0.00000  Uiso   1.00
N135   N     0.57543   0.46291   0.49924   0.00000  Uiso   1.00
N136   N     0.57409   0.48428   0.76742   0.00000  Uiso   1.00
N137   N     0.00069   0.37904   0.10841   0.00000  Uiso   1.00
N138   N     0.57573   0.26922   0.45247   0.00000  Uiso   1.00
C139   C     0.28353   0.41174   0.66031   0.00000  Uiso   1.00
C140   C     0.32279   0.43435   0.55350   0.00000  Uiso   1.00
C141   C     0.35596   0.34547   0.48974   0.00000  Uiso   1.00
C142   C     0.38897   0.38473   0.39492   0.00000  Uiso   1.00
C143   C     0.44992   0.40101   0.23359   0.00000  Uiso   1.00
C144   C     0.20521   0.46336   0.64746   0.00000  Uiso   1.00
C145   C     0.13952   0.39885   0.66272   0.00000  Uiso   1.00
C146   C     0.07356   0.46254   0.64701   0.00000  Uiso   1.00
C147   C     0.95197   0.52386   0.63164   0.00000  Uiso   1.00
C148   C     0.32234   0.49362   0.74227   0.00000  Uiso   1.00
C149   C     0.35512   0.45457   0.83726   0.00000  Uiso   1.00
C150   C     0.38775   0.54373   0.90140   0.00000  Uiso   1.00
C151   C     0.44802   0.65204   0.03323   0.00000  Uiso   1.00
C152   C     0.28317   0.63953   0.60531   0.00000  Uiso   1.00
C153   C     0.32259   0.55808   0.52362   0.00000  Uiso   1.00
C154   C     0.35556   0.59749   0.42888   0.00000  Uiso   1.00
C155   C     0.38877   0.50868   0.36500   0.00000  Uiso   1.00
C156   C     0.20502   0.58707   0.61758   0.00000  Uiso   1.00
C157   C     0.13913   0.65087   0.60186   0.00000  Uiso   1.00
C158   C     0.07336   0.58648   0.61708   0.00000  Uiso   1.00
C159   C     0.32215   0.61734   0.71240   0.00000  Uiso   1.00
C160   C     0.35473   0.70658   0.77640   0.00000  Uiso   1.00
C161   C     0.38755   0.66768   0.87147   0.00000  Uiso   1.00
H162   H     0.28368   0.31542   0.68357   0.00000  Uiso   1.00
H163   H     0.35609   0.24973   0.51288   0.00000  Uiso   1.00
H164   H     0.13969   0.30311   0.68585   0.00000  Uiso   1.00
H165   H     0.35526   0.35882   0.86036   0.00000  Uiso   1.00
H166   H     0.43626   0.23146   0.31045   0.00000  Uiso   1.00
H167   H     0.97998   0.34403   0.67519   0.00000  Uiso   1.00
H168   H     0.43454   0.46149   0.04319   0.00000  Uiso   1.00
H169   H     0.28302   0.73586   0.58205   0.00000  Uiso   1.00
H170   H     0.35540   0.69324   0.40579   0.00000  Uiso   1.00
H171   H     0.13900   0.74662   0.57875   0.00000  Uiso   1.00
H172   H     0.35457   0.80232   0.75326   0.00000  Uiso   1.00
H173   H     0.43570   0.59142   0.22352   0.00000  Uiso   1.00
H174   H     0.97941   0.70399   0.58827   0.00000  Uiso   1.00
H175   H     0.43397   0.82145   0.95626   0.00000  Uiso   1.00
O176   O     0.48358   0.37581   0.15285   0.00000  Uiso   1.00
O177   O     0.88496   0.52350   0.63140   0.00000  Uiso   1.00
O178   O     0.48133   0.67761   0.11419   0.00000  Uiso   1.00
N179   N     0.42621   0.32203   0.31419   0.00000  Uiso   1.00
N180   N     0.99961   0.42727   0.65518   0.00000  Uiso   1.00
N181   N     0.42457   0.53709   0.99924   0.00000  Uiso   1.00
N182   N     0.42591   0.51572   0.26742   0.00000  Uiso   1.00
N183   N     0.99931   0.62096   0.60841   0.00000  Uiso   1.00
N184   N     0.42427   0.73078   0.95247   0.00000  Uiso   1.00
