data_job_00081
_audit_creation_date              2018-12-19
_audit_creation_method            'Materials Studio'
_symmetry_space_group_name_H-M    'P1'
_symmetry_Int_Tables_number       1
_symmetry_cell_setting            triclinic
loop_
_symmetry_equiv_pos_as_xyz
  x,y,z
_cell_length_a                    23.3204
_cell_length_b                    7.3736
_cell_length_c                    30.5263
_cell_angle_alpha                 90.0000
_cell_angle_beta                  117.6437
_cell_angle_gamma                 90.0000
loop_
_atom_site_label
_atom_site_type_symbol
_atom_site_fract_x
_atom_site_fract_y
_atom_site_fract_z
_atom_site_U_iso_or_equiv
_atom_site_adp_type
_atom_site_occupancy
C1     C     0.27831   0.82505   0.13758   0.00000  Uiso   1.00
C2     C     0.31708   0.90493   0.18920   0.00000  Uiso   1.00
C3     C     0.34968   0.80647   0.23260   0.00000  Uiso   1.00
C4     C     0.38232   0.90477   0.27606   0.00000  Uiso   1.00
C5     C     0.44250   0.99992   0.35621   0.00000  Uiso   1.00
C6     C     0.21045   0.90492   0.11731   0.00000  Uiso   1.00
C7     C     0.15339   0.80645   0.10027   0.00000  Uiso   1.00
C8     C     0.09626   0.90475   0.08322   0.00000  Uiso   1.00
C9     C     0.99089   0.99988   0.05174   0.00000  Uiso   1.00
C10    C     0.30738   0.90491   0.10621   0.00000  Uiso   1.00
C11    C     0.33181   0.80644   0.07983   0.00000  Uiso   1.00
C12    C     0.35627   0.90474   0.05342   0.00000  Uiso   1.00
C13    C     0.40140   0.99985   0.00471   0.00000  Uiso   1.00
C14    C     0.27830   0.17472   0.13757   0.00000  Uiso   1.00
C15    C     0.31708   0.09486   0.18919   0.00000  Uiso   1.00
C16    C     0.34968   0.19334   0.23259   0.00000  Uiso   1.00
C17    C     0.38232   0.09504   0.27605   0.00000  Uiso   1.00
C18    C     0.21044   0.09484   0.11731   0.00000  Uiso   1.00
C19    C     0.15339   0.19331   0.10027   0.00000  Uiso   1.00
C20    C     0.09626   0.09502   0.08321   0.00000  Uiso   1.00
C21    C     0.30738   0.09484   0.10621   0.00000  Uiso   1.00
C22    C     0.33180   0.19331   0.07983   0.00000  Uiso   1.00
C23    C     0.35627   0.09500   0.05341   0.00000  Uiso   1.00
H24    H     0.27830   0.67719   0.13758   0.00000  Uiso   1.00
H25    H     0.34967   0.65949   0.23259   0.00000  Uiso   1.00
H26    H     0.15341   0.65948   0.10028   0.00000  Uiso   1.00
H27    H     0.33180   0.65947   0.07984   0.00000  Uiso   1.00
H28    H     0.42876   0.72363   0.33793   0.00000  Uiso   1.00
H29    H     0.01494   0.72359   0.05893   0.00000  Uiso   1.00
H30    H     0.39111   0.72357   0.01583   0.00000  Uiso   1.00
H31    H     0.27830   0.32259   0.13757   0.00000  Uiso   1.00
H32    H     0.34967   0.34031   0.23258   0.00000  Uiso   1.00
H33    H     0.15340   0.34029   0.10027   0.00000  Uiso   1.00
H34    H     0.33180   0.34028   0.07983   0.00000  Uiso   1.00
H35    H     0.42876   0.27621   0.33792   0.00000  Uiso   1.00
H36    H     0.01493   0.27616   0.05892   0.00000  Uiso   1.00
H37    H     0.39111   0.27615   0.01583   0.00000  Uiso   1.00
O38    O     0.47569   0.99994   0.40043   0.00000  Uiso   1.00
O39    O     0.93277   0.99988   0.03438   0.00000  Uiso   1.00
O40    O     0.42630   0.99985   0.97785   0.00000  Uiso   1.00
N41    N     0.41898   0.85125   0.32488   0.00000  Uiso   1.00
N42    N     0.03208   0.85121   0.06404   0.00000  Uiso   1.00
N43    N     0.38375   0.85119   0.02375   0.00000  Uiso   1.00
N44    N     0.41898   0.14859   0.32488   0.00000  Uiso   1.00
N45    N     0.03208   0.14855   0.06404   0.00000  Uiso   1.00
N46    N     0.38375   0.14853   0.02374   0.00000  Uiso   1.00
C47    C     0.77831   0.32505   0.13758   0.00000  Uiso   1.00
C48    C     0.81708   0.40493   0.18920   0.00000  Uiso   1.00
C49    C     0.84968   0.30647   0.23260   0.00000  Uiso   1.00
C50    C     0.88232   0.40477   0.27606   0.00000  Uiso   1.00
C51    C     0.94250   0.49992   0.35621   0.00000  Uiso   1.00
C52    C     0.71045   0.40492   0.11731   0.00000  Uiso   1.00
C53    C     0.65339   0.30645   0.10027   0.00000  Uiso   1.00
C54    C     0.59626   0.40475   0.08322   0.00000  Uiso   1.00
C55    C     0.49089   0.49988   0.05174   0.00000  Uiso   1.00
C56    C     0.80738   0.40491   0.10621   0.00000  Uiso   1.00
C57    C     0.83181   0.30644   0.07983   0.00000  Uiso   1.00
C58    C     0.85627   0.40474   0.05342   0.00000  Uiso   1.00
C59    C     0.90140   0.49985   0.00471   0.00000  Uiso   1.00
C60    C     0.77830   0.67472   0.13757   0.00000  Uiso   1.00
C61    C     0.81708   0.59486   0.18919   0.00000  Uiso   1.00
C62    C     0.84968   0.69334   0.23259   0.00000  Uiso   1.00
C63    C     0.88232   0.59504   0.27605   0.00000  Uiso   1.00
C64    C     0.71044   0.59484   0.11731   0.00000  Uiso   1.00
C65    C     0.65339   0.69331   0.10027   0.00000  Uiso   1.00
C66    C     0.59626   0.59502   0.08321   0.00000  Uiso   1.00
C67    C     0.80738   0.59484   0.10621   0.00000  Uiso   1.00
C68    C     0.83180   0.69331   0.07983   0.00000  Uiso   1.00
C69    C     0.85627   0.59500   0.05341   0.00000  Uiso   1.00
H70    H     0.77830   0.17719   0.13758   0.00000  Uiso   1.00
H71    H     0.84967   0.15949   0.23259   0.00000  Uiso   1.00
H72    H     0.65341   0.15948   0.10028   0.00000  Uiso   1.00
H73    H     0.83180   0.15947   0.07984   0.00000  Uiso   1.00
H74    H     0.92876   0.22363   0.33793   0.00000  Uiso   1.00
H75    H     0.51494   0.22359   0.05893   0.00000  Uiso   1.00
H76    H     0.89111   0.22357   0.01583   0.00000  Uiso   1.00
H77    H     0.77830   0.82259   0.13757   0.00000  Uiso   1.00
H78    H     0.84967   0.84031   0.23258   0.00000  Uiso   1.00
H79    H     0.65340   0.84029   0.10027   0.00000  Uiso   1.00
H80    H     0.83180   0.84028   0.07983   0.00000  Uiso   1.00
H81    H     0.92876   0.77621   0.33792   0.00000  Uiso   1.00
H82    H     0.51493   0.77616   0.05892   0.00000  Uiso   1.00
H83    H     0.89111   0.77615   0.01583   0.00000  Uiso   1.00
O84    O     0.97569   0.49994   0.40043   0.00000  Uiso   1.00
O85    O     0.43277   0.49988   0.03438   0.00000  Uiso   1.00
O86    O     0.92630   0.49985   0.97785   0.00000  Uiso   1.00
N87    N     0.91898   0.35125   0.32488   0.00000  Uiso   1.00
N88    N     0.53208   0.35121   0.06404   0.00000  Uiso   1.00
N89    N     0.88375   0.35119   0.02375   0.00000  Uiso   1.00
N90    N     0.91898   0.64859   0.32488   0.00000  Uiso   1.00
N91    N     0.53208   0.64855   0.06404   0.00000  Uiso   1.00
N92    N     0.88375   0.64853   0.02374   0.00000  Uiso   1.00
C93    C     0.72169   0.82505   0.36242   0.00000  Uiso   1.00
C94    C     0.68292   0.90493   0.31080   0.00000  Uiso   1.00
C95    C     0.65032   0.80647   0.26740   0.00000  Uiso   1.00
C96    C     0.61768   0.90477   0.22394   0.00000  Uiso   1.00
C97    C     0.55750   0.99992   0.14379   0.00000  Uiso   1.00
C98    C     0.78955   0.90492   0.38269   0.00000  Uiso   1.00
C99    C     0.84661   0.80645   0.39973   0.00000  Uiso   1.00
C100   C     0.90374   0.90475   0.41678   0.00000  Uiso   1.00
C101   C     0.00911   0.99988   0.44826   0.00000  Uiso   1.00
C102   C     0.69262   0.90491   0.39379   0.00000  Uiso   1.00
C103   C     0.66819   0.80644   0.42017   0.00000  Uiso   1.00
C104   C     0.64373   0.90474   0.44658   0.00000  Uiso   1.00
C105   C     0.59860   0.99985   0.49529   0.00000  Uiso   1.00
C106   C     0.72170   0.17472   0.36243   0.00000  Uiso   1.00
C107   C     0.68292   0.09486   0.31081   0.00000  Uiso   1.00
C108   C     0.65032   0.19334   0.26741   0.00000  Uiso   1.00
C109   C     0.61768   0.09504   0.22395   0.00000  Uiso   1.00
C110   C     0.78956   0.09484   0.38269   0.00000  Uiso   1.00
C111   C     0.84661   0.19331   0.39973   0.00000  Uiso   1.00
C112   C     0.90374   0.09502   0.41679   0.00000  Uiso   1.00
C113   C     0.69262   0.09484   0.39379   0.00000  Uiso   1.00
C114   C     0.66820   0.19331   0.42017   0.00000  Uiso   1.00
C115   C     0.64373   0.09500   0.44659   0.00000  Uiso   1.00
H116   H     0.72170   0.67719   0.36242   0.00000  Uiso   1.00
H117   H     0.65033   0.65949   0.26741   0.00000  Uiso   1.00
H118   H     0.84659   0.65948   0.39972   0.00000  Uiso   1.00
H119   H     0.66820   0.65947   0.42016   0.00000  Uiso   1.00
H120   H     0.57124   0.72363   0.16207   0.00000  Uiso   1.00
H121   H     0.98506   0.72359   0.44107   0.00000  Uiso   1.00
H122   H     0.60889   0.72357   0.48417   0.00000  Uiso   1.00
H123   H     0.72170   0.32259   0.36243   0.00000  Uiso   1.00
H124   H     0.65033   0.34031   0.26742   0.00000  Uiso   1.00
H125   H     0.84660   0.34029   0.39973   0.00000  Uiso   1.00
H126   H     0.66820   0.34028   0.42017   0.00000  Uiso   1.00
H127   H     0.57124   0.27621   0.16208   0.00000  Uiso   1.00
H128   H     0.98507   0.27616   0.44108   0.00000  Uiso   1.00
H129   H     0.60889   0.27615   0.48417   0.00000  Uiso   1.00
O130   O     0.52431   0.99994   0.09957   0.00000  Uiso   1.00
O131   O     0.06723   0.99988   0.46562   0.00000  Uiso   1.00
O132   O     0.57370   0.99985   0.52215   0.00000  Uiso   1.00
N133   N     0.58102   0.85125   0.17512   0.00000  Uiso   1.00
N134   N     0.96792   0.85121   0.43596   0.00000  Uiso   1.00
N135   N     0.61625   0.85119   0.47625   0.00000  Uiso   1.00
N136   N     0.58102   0.14859   0.17512   0.00000  Uiso   1.00
N137   N     0.96792   0.14855   0.43596   0.00000  Uiso   1.00
N138   N     0.61625   0.14853   0.47626   0.00000  Uiso   1.00
C139   C     0.22169   0.32505   0.36242   0.00000  Uiso   1.00
C140   C     0.18292   0.40493   0.31080   0.00000  Uiso   1.00
C141   C     0.15032   0.30647   0.26740   0.00000  Uiso   1.00
C142   C     0.11768   0.40477   0.22394   0.00000  Uiso   1.00
C143   C     0.05750   0.49992   0.14379   0.00000  Uiso   1.00
C144   C     0.28955   0.40492   0.38269   0.00000  Uiso   1.00
C145   C     0.34661   0.30645   0.39973   0.00000  Uiso   1.00
C146   C     0.40374   0.40475   0.41678   0.00000  Uiso   1.00
C147   C     0.50911   0.49988   0.44826   0.00000  Uiso   1.00
C148   C     0.19262   0.40491   0.39379   0.00000  Uiso   1.00
C149   C     0.16819   0.30644   0.42017   0.00000  Uiso   1.00
C150   C     0.14373   0.40474   0.44658   0.00000  Uiso   1.00
C151   C     0.09860   0.49985   0.49529   0.00000  Uiso   1.00
C152   C     0.22170   0.67472   0.36243   0.00000  Uiso   1.00
C153   C     0.18292   0.59486   0.31081   0.00000  Uiso   1.00
C154   C     0.15032   0.69334   0.26741   0.00000  Uiso   1.00
C155   C     0.11768   0.59504   0.22395   0.00000  Uiso   1.00
C156   C     0.28956   0.59484   0.38269   0.00000  Uiso   1.00
C157   C     0.34661   0.69331   0.39973   0.00000  Uiso   1.00
C158   C     0.40374   0.59502   0.41679   0.00000  Uiso   1.00
C159   C     0.19262   0.59484   0.39379   0.00000  Uiso   1.00
C160   C     0.16820   0.69331   0.42017   0.00000  Uiso   1.00
C161   C     0.14373   0.59500   0.44659   0.00000  Uiso   1.00
H162   H     0.22170   0.17719   0.36242   0.00000  Uiso   1.00
H163   H     0.15033   0.15949   0.26741   0.00000  Uiso   1.00
H164   H     0.34659   0.15948   0.39972   0.00000  Uiso   1.00
H165   H     0.16820   0.15947   0.42016   0.00000  Uiso   1.00
H166   H     0.07124   0.22363   0.16207   0.00000  Uiso   1.00
H167   H     0.48506   0.22359   0.44107   0.00000  Uiso   1.00
H168   H     0.10889   0.22357   0.48417   0.00000  Uiso   1.00
H169   H     0.22170   0.82259   0.36243   0.00000  Uiso   1.00
H170   H     0.15033   0.84031   0.26742   0.00000  Uiso   1.00
H171   H     0.34660   0.84029   0.39973   0.00000  Uiso   1.00
H172   H     0.16820   0.84028   0.42017   0.00000  Uiso   1.00
H173   H     0.07124   0.77621   0.16208   0.00000  Uiso   1.00
H174   H     0.48507   0.77616   0.44108   0.00000  Uiso   1.00
H175   H     0.10889   0.77615   0.48417   0.00000  Uiso   1.00
O176   O     0.02431   0.49994   0.09957   0.00000  Uiso   1.00
O177   O     0.56723   0.49988   0.46562   0.00000  Uiso   1.00
O178   O     0.07370   0.49985   0.52215   0.00000  Uiso   1.00
N179   N     0.08102   0.35125   0.17512   0.00000  Uiso   1.00
N180   N     0.46792   0.35121   0.43596   0.00000  Uiso   1.00
N181   N     0.11625   0.35119   0.47625   0.00000  Uiso   1.00
N182   N     0.08102   0.64859   0.17512   0.00000  Uiso   1.00
N183   N     0.46792   0.64855   0.43596   0.00000  Uiso   1.00
N184   N     0.11625   0.64853   0.47626   0.00000  Uiso   1.00
C185   C     0.72169   0.17495   0.86242   0.00000  Uiso   1.00
C186   C     0.68292   0.09507   0.81080   0.00000  Uiso   1.00
C187   C     0.65032   0.19353   0.76740   0.00000  Uiso   1.00
C188   C     0.61768   0.09523   0.72394   0.00000  Uiso   1.00
C189   C     0.55750   0.00008   0.64379   0.00000  Uiso   1.00
C190   C     0.78955   0.09508   0.88269   0.00000  Uiso   1.00
C191   C     0.84661   0.19355   0.89973   0.00000  Uiso   1.00
C192   C     0.90374   0.09525   0.91678   0.00000  Uiso   1.00
C193   C     0.00911   0.00012   0.94826   0.00000  Uiso   1.00
C194   C     0.69262   0.09509   0.89379   0.00000  Uiso   1.00
C195   C     0.66819   0.19356   0.92017   0.00000  Uiso   1.00
C196   C     0.64373   0.09526   0.94658   0.00000  Uiso   1.00
C197   C     0.59860   0.00015   0.99529   0.00000  Uiso   1.00
C198   C     0.72170   0.82528   0.86243   0.00000  Uiso   1.00
C199   C     0.68292   0.90514   0.81081   0.00000  Uiso   1.00
C200   C     0.65032   0.80666   0.76741   0.00000  Uiso   1.00
C201   C     0.61768   0.90496   0.72395   0.00000  Uiso   1.00
C202   C     0.78956   0.90516   0.88269   0.00000  Uiso   1.00
C203   C     0.84661   0.80669   0.89973   0.00000  Uiso   1.00
C204   C     0.90374   0.90498   0.91679   0.00000  Uiso   1.00
C205   C     0.69262   0.90516   0.89379   0.00000  Uiso   1.00
C206   C     0.66820   0.80669   0.92017   0.00000  Uiso   1.00
C207   C     0.64373   0.90500   0.94659   0.00000  Uiso   1.00
H208   H     0.72170   0.32281   0.86242   0.00000  Uiso   1.00
H209   H     0.65033   0.34051   0.76741   0.00000  Uiso   1.00
H210   H     0.84659   0.34052   0.89972   0.00000  Uiso   1.00
H211   H     0.66820   0.34053   0.92016   0.00000  Uiso   1.00
H212   H     0.57124   0.27637   0.66207   0.00000  Uiso   1.00
H213   H     0.98506   0.27641   0.94107   0.00000  Uiso   1.00
H214   H     0.60889   0.27643   0.98417   0.00000  Uiso   1.00
H215   H     0.72170   0.67741   0.86243   0.00000  Uiso   1.00
H216   H     0.65033   0.65969   0.76742   0.00000  Uiso   1.00
H217   H     0.84660   0.65971   0.89973   0.00000  Uiso   1.00
H218   H     0.66820   0.65972   0.92017   0.00000  Uiso   1.00
H219   H     0.57124   0.72379   0.66208   0.00000  Uiso   1.00
H220   H     0.98507   0.72384   0.94108   0.00000  Uiso   1.00
H221   H     0.60889   0.72385   0.98417   0.00000  Uiso   1.00
O222   O     0.52431   0.00006   0.59957   0.00000  Uiso   1.00
O223   O     0.06723   0.00012   0.96562   0.00000  Uiso   1.00
O224   O     0.57370   0.00015   0.02215   0.00000  Uiso   1.00
N225   N     0.58102   0.14875   0.67512   0.00000  Uiso   1.00
N226   N     0.96792   0.14879   0.93596   0.00000  Uiso   1.00
N227   N     0.61625   0.14881   0.97625   0.00000  Uiso   1.00
N228   N     0.58102   0.85141   0.67512   0.00000  Uiso   1.00
N229   N     0.96792   0.85145   0.93596   0.00000  Uiso   1.00
N230   N     0.61625   0.85147   0.97626   0.00000  Uiso   1.00
C231   C     0.22169   0.67495   0.86242   0.00000  Uiso   1.00
C232   C     0.18292   0.59507   0.81080   0.00000  Uiso   1.00
C233   C     0.15032   0.69353   0.76740   0.00000  Uiso   1.00
C234   C     0.11768   0.59523   0.72394   0.00000  Uiso   1.00
C235   C     0.05750   0.50008   0.64379   0.00000  Uiso   1.00
C236   C     0.28955   0.59508   0.88269   0.00000  Uiso   1.00
C237   C     0.34661   0.69355   0.89973   0.00000  Uiso   1.00
C238   C     0.40374   0.59525   0.91678   0.00000  Uiso   1.00
C239   C     0.50911   0.50012   0.94826   0.00000  Uiso   1.00
C240   C     0.19262   0.59509   0.89379   0.00000  Uiso   1.00
C241   C     0.16819   0.69356   0.92017   0.00000  Uiso   1.00
C242   C     0.14373   0.59526   0.94658   0.00000  Uiso   1.00
C243   C     0.09860   0.50015   0.99529   0.00000  Uiso   1.00
C244   C     0.22170   0.32528   0.86243   0.00000  Uiso   1.00
C245   C     0.18292   0.40514   0.81081   0.00000  Uiso   1.00
C246   C     0.15032   0.30666   0.76741   0.00000  Uiso   1.00
C247   C     0.11768   0.40496   0.72395   0.00000  Uiso   1.00
C248   C     0.28956   0.40516   0.88269   0.00000  Uiso   1.00
C249   C     0.34661   0.30669   0.89973   0.00000  Uiso   1.00
C250   C     0.40374   0.40498   0.91679   0.00000  Uiso   1.00
C251   C     0.19262   0.40516   0.89379   0.00000  Uiso   1.00
C252   C     0.16820   0.30669   0.92017   0.00000  Uiso   1.00
C253   C     0.14373   0.40500   0.94659   0.00000  Uiso   1.00
H254   H     0.22170   0.82281   0.86242   0.00000  Uiso   1.00
H255   H     0.15033   0.84051   0.76741   0.00000  Uiso   1.00
H256   H     0.34659   0.84052   0.89972   0.00000  Uiso   1.00
H257   H     0.16820   0.84053   0.92016   0.00000  Uiso   1.00
H258   H     0.07124   0.77637   0.66207   0.00000  Uiso   1.00
H259   H     0.48506   0.77641   0.94107   0.00000  Uiso   1.00
H260   H     0.10889   0.77643   0.98417   0.00000  Uiso   1.00
H261   H     0.22170   0.17741   0.86243   0.00000  Uiso   1.00
H262   H     0.15033   0.15969   0.76742   0.00000  Uiso   1.00
H263   H     0.34660   0.15971   0.89973   0.00000  Uiso   1.00
H264   H     0.16820   0.15972   0.92017   0.00000  Uiso   1.00
H265   H     0.07124   0.22379   0.66208   0.00000  Uiso   1.00
H266   H     0.48507   0.22384   0.94108   0.00000  Uiso   1.00
H267   H     0.10889   0.22385   0.98417   0.00000  Uiso   1.00
O268   O     0.02431   0.50006   0.59957   0.00000  Uiso   1.00
O269   O     0.56723   0.50012   0.96562   0.00000  Uiso   1.00
O270   O     0.07370   0.50015   0.02215   0.00000  Uiso   1.00
N271   N     0.08102   0.64875   0.67512   0.00000  Uiso   1.00
N272   N     0.46792   0.64879   0.93596   0.00000  Uiso   1.00
N273   N     0.11625   0.64881   0.97625   0.00000  Uiso   1.00
N274   N     0.08102   0.35141   0.67512   0.00000  Uiso   1.00
N275   N     0.46792   0.35145   0.93596   0.00000  Uiso   1.00
N276   N     0.11625   0.35147   0.97626   0.00000  Uiso   1.00
C277   C     0.27831   0.17495   0.63758   0.00000  Uiso   1.00
C278   C     0.31708   0.09507   0.68920   0.00000  Uiso   1.00
C279   C     0.34968   0.19353   0.73260   0.00000  Uiso   1.00
C280   C     0.38232   0.09523   0.77606   0.00000  Uiso   1.00
C281   C     0.44250   0.00008   0.85621   0.00000  Uiso   1.00
C282   C     0.21045   0.09508   0.61731   0.00000  Uiso   1.00
C283   C     0.15339   0.19355   0.60027   0.00000  Uiso   1.00
C284   C     0.09626   0.09525   0.58322   0.00000  Uiso   1.00
C285   C     0.99089   0.00012   0.55174   0.00000  Uiso   1.00
C286   C     0.30738   0.09509   0.60621   0.00000  Uiso   1.00
C287   C     0.33181   0.19356   0.57983   0.00000  Uiso   1.00
C288   C     0.35627   0.09526   0.55342   0.00000  Uiso   1.00
C289   C     0.40140   0.00015   0.50471   0.00000  Uiso   1.00
C290   C     0.27830   0.82528   0.63757   0.00000  Uiso   1.00
C291   C     0.31708   0.90514   0.68919   0.00000  Uiso   1.00
C292   C     0.34968   0.80666   0.73259   0.00000  Uiso   1.00
C293   C     0.38232   0.90496   0.77605   0.00000  Uiso   1.00
C294   C     0.21044   0.90516   0.61731   0.00000  Uiso   1.00
C295   C     0.15339   0.80669   0.60027   0.00000  Uiso   1.00
C296   C     0.09626   0.90498   0.58321   0.00000  Uiso   1.00
C297   C     0.30738   0.90516   0.60621   0.00000  Uiso   1.00
C298   C     0.33180   0.80669   0.57983   0.00000  Uiso   1.00
C299   C     0.35627   0.90500   0.55341   0.00000  Uiso   1.00
H300   H     0.27830   0.32281   0.63758   0.00000  Uiso   1.00
H301   H     0.34967   0.34051   0.73259   0.00000  Uiso   1.00
H302   H     0.15341   0.34052   0.60028   0.00000  Uiso   1.00
H303   H     0.33180   0.34053   0.57984   0.00000  Uiso   1.00
H304   H     0.42876   0.27637   0.83793   0.00000  Uiso   1.00
H305   H     0.01494   0.27641   0.55893   0.00000  Uiso   1.00
H306   H     0.39111   0.27643   0.51583   0.00000  Uiso   1.00
H307   H     0.27830   0.67741   0.63757   0.00000  Uiso   1.00
H308   H     0.34967   0.65969   0.73258   0.00000  Uiso   1.00
H309   H     0.15340   0.65971   0.60027   0.00000  Uiso   1.00
H310   H     0.33180   0.65972   0.57983   0.00000  Uiso   1.00
H311   H     0.42876   0.72379   0.83792   0.00000  Uiso   1.00
H312   H     0.01493   0.72384   0.55892   0.00000  Uiso   1.00
H313   H     0.39111   0.72385   0.51583   0.00000  Uiso   1.00
O314   O     0.47569   0.00006   0.90043   0.00000  Uiso   1.00
O315   O     0.93277   0.00012   0.53438   0.00000  Uiso   1.00
O316   O     0.42630   0.00015   0.47785   0.00000  Uiso   1.00
N317   N     0.41898   0.14875   0.82488   0.00000  Uiso   1.00
N318   N     0.03208   0.14879   0.56404   0.00000  Uiso   1.00
N319   N     0.38375   0.14881   0.52375   0.00000  Uiso   1.00
N320   N     0.41898   0.85141   0.82488   0.00000  Uiso   1.00
N321   N     0.03208   0.85145   0.56404   0.00000  Uiso   1.00
N322   N     0.38375   0.85147   0.52374   0.00000  Uiso   1.00
C323   C     0.77831   0.67495   0.63758   0.00000  Uiso   1.00
C324   C     0.81708   0.59507   0.68920   0.00000  Uiso   1.00
C325   C     0.84968   0.69353   0.73260   0.00000  Uiso   1.00
C326   C     0.88232   0.59523   0.77606   0.00000  Uiso   1.00
C327   C     0.94250   0.50008   0.85621   0.00000  Uiso   1.00
C328   C     0.71045   0.59508   0.61731   0.00000  Uiso   1.00
C329   C     0.65339   0.69355   0.60027   0.00000  Uiso   1.00
C330   C     0.59626   0.59525   0.58322   0.00000  Uiso   1.00
C331   C     0.49089   0.50012   0.55174   0.00000  Uiso   1.00
C332   C     0.80738   0.59509   0.60621   0.00000  Uiso   1.00
C333   C     0.83181   0.69356   0.57983   0.00000  Uiso   1.00
C334   C     0.85627   0.59526   0.55342   0.00000  Uiso   1.00
C335   C     0.90140   0.50015   0.50471   0.00000  Uiso   1.00
C336   C     0.77830   0.32528   0.63757   0.00000  Uiso   1.00
C337   C     0.81708   0.40514   0.68919   0.00000  Uiso   1.00
C338   C     0.84968   0.30666   0.73259   0.00000  Uiso   1.00
C339   C     0.88232   0.40496   0.77605   0.00000  Uiso   1.00
C340   C     0.71044   0.40516   0.61731   0.00000  Uiso   1.00
C341   C     0.65339   0.30669   0.60027   0.00000  Uiso   1.00
C342   C     0.59626   0.40498   0.58321   0.00000  Uiso   1.00
C343   C     0.80738   0.40516   0.60621   0.00000  Uiso   1.00
C344   C     0.83180   0.30669   0.57983   0.00000  Uiso   1.00
C345   C     0.85627   0.40500   0.55341   0.00000  Uiso   1.00
H346   H     0.77830   0.82281   0.63758   0.00000  Uiso   1.00
H347   H     0.84967   0.84051   0.73259   0.00000  Uiso   1.00
H348   H     0.65341   0.84052   0.60028   0.00000  Uiso   1.00
H349   H     0.83180   0.84053   0.57984   0.00000  Uiso   1.00
H350   H     0.92876   0.77637   0.83793   0.00000  Uiso   1.00
H351   H     0.51494   0.77641   0.55893   0.00000  Uiso   1.00
H352   H     0.89111   0.77643   0.51583   0.00000  Uiso   1.00
H353   H     0.77830   0.17741   0.63757   0.00000  Uiso   1.00
H354   H     0.84967   0.15969   0.73258   0.00000  Uiso   1.00
H355   H     0.65340   0.15971   0.60027   0.00000  Uiso   1.00
H356   H     0.83180   0.15972   0.57983   0.00000  Uiso   1.00
H357   H     0.92876   0.22379   0.83792   0.00000  Uiso   1.00
H358   H     0.51493   0.22384   0.55892   0.00000  Uiso   1.00
H359   H     0.89111   0.22385   0.51583   0.00000  Uiso   1.00
O360   O     0.97569   0.50006   0.90043   0.00000  Uiso   1.00
O361   O     0.43277   0.50012   0.53438   0.00000  Uiso   1.00
O362   O     0.92630   0.50015   0.47785   0.00000  Uiso   1.00
N363   N     0.91898   0.64875   0.82488   0.00000  Uiso   1.00
N364   N     0.53208   0.64879   0.56404   0.00000  Uiso   1.00
N365   N     0.88375   0.64881   0.52375   0.00000  Uiso   1.00
N366   N     0.91898   0.35141   0.82488   0.00000  Uiso   1.00
N367   N     0.53208   0.35145   0.56404   0.00000  Uiso   1.00
N368   N     0.88375   0.35147   0.52374   0.00000  Uiso   1.00
