data_job_04957
_audit_creation_date              2018-12-19
_audit_creation_method            'Materials Studio'
_symmetry_space_group_name_H-M    'P1'
_symmetry_Int_Tables_number       1
_symmetry_cell_setting            triclinic
loop_
_symmetry_equiv_pos_as_xyz
  x,y,z
_cell_length_a                    32.7231
_cell_length_b                    32.7231
_cell_length_c                    7.0238
_cell_angle_alpha                 90.0000
_cell_angle_beta                  90.0000
_cell_angle_gamma                 90.0000
loop_
_atom_site_label
_atom_site_type_symbol
_atom_site_fract_x
_atom_site_fract_y
_atom_site_fract_z
_atom_site_U_iso_or_equiv
_atom_site_adp_type
_atom_site_occupancy
C1     C     0.71324   0.48364   0.90204   0.00000  Uiso   1.00
C2     C     0.73103   0.51567   0.76789   0.00000  Uiso   1.00
C3     C     0.74596   0.55369   0.82114   0.00000  Uiso   1.00
C4     C     0.76093   0.57858   0.67707   0.00000  Uiso   1.00
C5     C     0.78853   0.63026   0.49773   0.00000  Uiso   1.00
C6     C     0.67047   0.47431   0.82763   0.00000  Uiso   1.00
C7     C     0.63448   0.47754   0.93112   0.00000  Uiso   1.00
C8     C     0.59848   0.46760   0.83734   0.00000  Uiso   1.00
C9     C     0.53206   0.45504   0.75079   0.00000  Uiso   1.00
C10    C     0.73825   0.44491   0.87037   0.00000  Uiso   1.00
C11    C     0.75925   0.42341   0.00980   0.00000  Uiso   1.00
C12    C     0.78030   0.38873   0.95201   0.00000  Uiso   1.00
C13    C     0.81912   0.33051   0.93182   0.00000  Uiso   1.00
C14    C     0.71328   0.46025   0.55150   0.00000  Uiso   1.00
C15    C     0.73105   0.50297   0.57749   0.00000  Uiso   1.00
C16    C     0.74600   0.52781   0.43330   0.00000  Uiso   1.00
C17    C     0.76096   0.56586   0.48633   0.00000  Uiso   1.00
C18    C     0.67049   0.46161   0.63724   0.00000  Uiso   1.00
C19    C     0.63453   0.45166   0.54329   0.00000  Uiso   1.00
C20    C     0.59850   0.45488   0.64660   0.00000  Uiso   1.00
C21    C     0.73827   0.43221   0.67997   0.00000  Uiso   1.00
C22    C     0.75929   0.39754   0.62196   0.00000  Uiso   1.00
C23    C     0.78032   0.37600   0.76127   0.00000  Uiso   1.00
H24    H     0.71322   0.49353   0.05027   0.00000  Uiso   1.00
H25    H     0.74593   0.56351   0.96850   0.00000  Uiso   1.00
H26    H     0.63448   0.48736   0.07847   0.00000  Uiso   1.00
H27    H     0.75923   0.43325   0.15713   0.00000  Uiso   1.00
H28    H     0.78220   0.63550   0.79387   0.00000  Uiso   1.00
H29    H     0.54719   0.47493   0.02576   0.00000  Uiso   1.00
H30    H     0.81024   0.36083   0.19163   0.00000  Uiso   1.00
H31    H     0.71330   0.45036   0.40326   0.00000  Uiso   1.00
H32    H     0.74602   0.51798   0.28597   0.00000  Uiso   1.00
H33    H     0.63456   0.44183   0.39595   0.00000  Uiso   1.00
H34    H     0.75930   0.38772   0.47461   0.00000  Uiso   1.00
H35    H     0.78226   0.59854   0.23990   0.00000  Uiso   1.00
H36    H     0.54725   0.43798   0.47180   0.00000  Uiso   1.00
H37    H     0.81030   0.32387   0.63767   0.00000  Uiso   1.00
O38    O     0.80374   0.66228   0.45140   0.00000  Uiso   1.00
O39    O     0.49541   0.45162   0.75565   0.00000  Uiso   1.00
O40    O     0.84054   0.30192   0.97327   0.00000  Uiso   1.00
N41    N     0.77773   0.61752   0.67959   0.00000  Uiso   1.00
N42    N     0.55801   0.46741   0.89639   0.00000  Uiso   1.00
N43    N     0.80393   0.36072   0.05147   0.00000  Uiso   1.00
N44    N     0.77776   0.59763   0.38151   0.00000  Uiso   1.00
N45    N     0.55804   0.44752   0.59830   0.00000  Uiso   1.00
N46    N     0.80397   0.34084   0.75339   0.00000  Uiso   1.00
C47    C     0.28676   0.51636   0.90204   0.00000  Uiso   1.00
C48    C     0.26897   0.48433   0.76789   0.00000  Uiso   1.00
C49    C     0.25404   0.44631   0.82114   0.00000  Uiso   1.00
C50    C     0.23907   0.42142   0.67707   0.00000  Uiso   1.00
C51    C     0.21147   0.36974   0.49773   0.00000  Uiso   1.00
C52    C     0.32953   0.52569   0.82763   0.00000  Uiso   1.00
C53    C     0.36552   0.52246   0.93112   0.00000  Uiso   1.00
C54    C     0.40152   0.53240   0.83734   0.00000  Uiso   1.00
C55    C     0.46794   0.54496   0.75079   0.00000  Uiso   1.00
C56    C     0.26175   0.55509   0.87037   0.00000  Uiso   1.00
C57    C     0.24075   0.57659   0.00980   0.00000  Uiso   1.00
C58    C     0.21970   0.61127   0.95201   0.00000  Uiso   1.00
C59    C     0.18088   0.66949   0.93182   0.00000  Uiso   1.00
C60    C     0.28672   0.53975   0.55150   0.00000  Uiso   1.00
C61    C     0.26895   0.49703   0.57749   0.00000  Uiso   1.00
C62    C     0.25400   0.47219   0.43330   0.00000  Uiso   1.00
C63    C     0.23904   0.43414   0.48633   0.00000  Uiso   1.00
C64    C     0.32951   0.53839   0.63724   0.00000  Uiso   1.00
C65    C     0.36547   0.54834   0.54329   0.00000  Uiso   1.00
C66    C     0.40150   0.54512   0.64660   0.00000  Uiso   1.00
C67    C     0.26173   0.56779   0.67997   0.00000  Uiso   1.00
C68    C     0.24071   0.60246   0.62196   0.00000  Uiso   1.00
C69    C     0.21968   0.62400   0.76127   0.00000  Uiso   1.00
H70    H     0.28678   0.50647   0.05027   0.00000  Uiso   1.00
H71    H     0.25407   0.43649   0.96850   0.00000  Uiso   1.00
H72    H     0.36552   0.51264   0.07847   0.00000  Uiso   1.00
H73    H     0.24077   0.56675   0.15713   0.00000  Uiso   1.00
H74    H     0.21780   0.36450   0.79387   0.00000  Uiso   1.00
H75    H     0.45281   0.52507   0.02576   0.00000  Uiso   1.00
H76    H     0.18976   0.63917   0.19163   0.00000  Uiso   1.00
H77    H     0.28670   0.54964   0.40326   0.00000  Uiso   1.00
H78    H     0.25398   0.48202   0.28597   0.00000  Uiso   1.00
H79    H     0.36544   0.55817   0.39595   0.00000  Uiso   1.00
H80    H     0.24070   0.61228   0.47461   0.00000  Uiso   1.00
H81    H     0.21774   0.40146   0.23990   0.00000  Uiso   1.00
H82    H     0.45275   0.56202   0.47180   0.00000  Uiso   1.00
H83    H     0.18970   0.67613   0.63767   0.00000  Uiso   1.00
O84    O     0.19626   0.33772   0.45140   0.00000  Uiso   1.00
O85    O     0.50459   0.54838   0.75565   0.00000  Uiso   1.00
O86    O     0.15946   0.69808   0.97327   0.00000  Uiso   1.00
N87    N     0.22227   0.38248   0.67959   0.00000  Uiso   1.00
N88    N     0.44199   0.53259   0.89639   0.00000  Uiso   1.00
N89    N     0.19607   0.63928   0.05147   0.00000  Uiso   1.00
N90    N     0.22224   0.40237   0.38151   0.00000  Uiso   1.00
N91    N     0.44196   0.55248   0.59830   0.00000  Uiso   1.00
N92    N     0.19603   0.65916   0.75339   0.00000  Uiso   1.00
C93    C     0.01636   0.21324   0.90204   0.00000  Uiso   1.00
C94    C     0.98433   0.23103   0.76789   0.00000  Uiso   1.00
C95    C     0.94631   0.24596   0.82114   0.00000  Uiso   1.00
C96    C     0.92142   0.26093   0.67707   0.00000  Uiso   1.00
C97    C     0.86974   0.28853   0.49773   0.00000  Uiso   1.00
C98    C     0.02569   0.17047   0.82763   0.00000  Uiso   1.00
C99    C     0.02246   0.13448   0.93112   0.00000  Uiso   1.00
C100   C     0.03240   0.09848   0.83734   0.00000  Uiso   1.00
C101   C     0.04496   0.03206   0.75079   0.00000  Uiso   1.00
C102   C     0.05509   0.23825   0.87037   0.00000  Uiso   1.00
C103   C     0.07659   0.25925   0.00980   0.00000  Uiso   1.00
C104   C     0.11127   0.28030   0.95201   0.00000  Uiso   1.00
C105   C     0.16949   0.31912   0.93182   0.00000  Uiso   1.00
C106   C     0.03975   0.21328   0.55150   0.00000  Uiso   1.00
C107   C     0.99703   0.23105   0.57749   0.00000  Uiso   1.00
C108   C     0.97219   0.24600   0.43330   0.00000  Uiso   1.00
C109   C     0.93414   0.26096   0.48633   0.00000  Uiso   1.00
C110   C     0.03839   0.17049   0.63724   0.00000  Uiso   1.00
C111   C     0.04834   0.13453   0.54329   0.00000  Uiso   1.00
C112   C     0.04512   0.09850   0.64660   0.00000  Uiso   1.00
C113   C     0.06779   0.23827   0.67997   0.00000  Uiso   1.00
C114   C     0.10246   0.25929   0.62196   0.00000  Uiso   1.00
C115   C     0.12400   0.28032   0.76127   0.00000  Uiso   1.00
H116   H     0.00647   0.21322   0.05027   0.00000  Uiso   1.00
H117   H     0.93649   0.24593   0.96850   0.00000  Uiso   1.00
H118   H     0.01264   0.13448   0.07847   0.00000  Uiso   1.00
H119   H     0.06675   0.25923   0.15713   0.00000  Uiso   1.00
H120   H     0.86450   0.28220   0.79387   0.00000  Uiso   1.00
H121   H     0.02507   0.04719   0.02576   0.00000  Uiso   1.00
H122   H     0.13917   0.31024   0.19163   0.00000  Uiso   1.00
H123   H     0.04964   0.21330   0.40326   0.00000  Uiso   1.00
H124   H     0.98202   0.24602   0.28597   0.00000  Uiso   1.00
H125   H     0.05817   0.13456   0.39595   0.00000  Uiso   1.00
H126   H     0.11228   0.25930   0.47461   0.00000  Uiso   1.00
H127   H     0.90146   0.28226   0.23990   0.00000  Uiso   1.00
H128   H     0.06202   0.04725   0.47180   0.00000  Uiso   1.00
H129   H     0.17613   0.31030   0.63767   0.00000  Uiso   1.00
O130   O     0.83772   0.30374   0.45140   0.00000  Uiso   1.00
O131   O     0.04838   0.99541   0.75565   0.00000  Uiso   1.00
O132   O     0.19808   0.34054   0.97327   0.00000  Uiso   1.00
N133   N     0.88248   0.27773   0.67959   0.00000  Uiso   1.00
N134   N     0.03259   0.05801   0.89639   0.00000  Uiso   1.00
N135   N     0.13928   0.30393   0.05147   0.00000  Uiso   1.00
N136   N     0.90237   0.27776   0.38151   0.00000  Uiso   1.00
N137   N     0.05248   0.05804   0.59830   0.00000  Uiso   1.00
N138   N     0.15916   0.30397   0.75339   0.00000  Uiso   1.00
C139   C     0.98364   0.78676   0.90204   0.00000  Uiso   1.00
C140   C     0.01567   0.76897   0.76789   0.00000  Uiso   1.00
C141   C     0.05369   0.75404   0.82114   0.00000  Uiso   1.00
C142   C     0.07858   0.73907   0.67707   0.00000  Uiso   1.00
C143   C     0.13026   0.71147   0.49773   0.00000  Uiso   1.00
C144   C     0.97431   0.82953   0.82763   0.00000  Uiso   1.00
C145   C     0.97754   0.86552   0.93112   0.00000  Uiso   1.00
C146   C     0.96760   0.90152   0.83734   0.00000  Uiso   1.00
C147   C     0.95504   0.96794   0.75079   0.00000  Uiso   1.00
C148   C     0.94491   0.76175   0.87037   0.00000  Uiso   1.00
C149   C     0.92341   0.74075   0.00980   0.00000  Uiso   1.00
C150   C     0.88873   0.71970   0.95201   0.00000  Uiso   1.00
C151   C     0.83051   0.68088   0.93182   0.00000  Uiso   1.00
C152   C     0.96025   0.78672   0.55150   0.00000  Uiso   1.00
C153   C     0.00297   0.76895   0.57749   0.00000  Uiso   1.00
C154   C     0.02781   0.75400   0.43330   0.00000  Uiso   1.00
C155   C     0.06586   0.73904   0.48633   0.00000  Uiso   1.00
C156   C     0.96161   0.82951   0.63724   0.00000  Uiso   1.00
C157   C     0.95166   0.86547   0.54329   0.00000  Uiso   1.00
C158   C     0.95488   0.90150   0.64660   0.00000  Uiso   1.00
C159   C     0.93221   0.76173   0.67997   0.00000  Uiso   1.00
C160   C     0.89754   0.74071   0.62196   0.00000  Uiso   1.00
C161   C     0.87600   0.71968   0.76127   0.00000  Uiso   1.00
H162   H     0.99353   0.78678   0.05027   0.00000  Uiso   1.00
H163   H     0.06351   0.75407   0.96850   0.00000  Uiso   1.00
H164   H     0.98736   0.86552   0.07847   0.00000  Uiso   1.00
H165   H     0.93325   0.74077   0.15713   0.00000  Uiso   1.00
H166   H     0.13550   0.71780   0.79387   0.00000  Uiso   1.00
H167   H     0.97493   0.95281   0.02576   0.00000  Uiso   1.00
H168   H     0.86083   0.68976   0.19163   0.00000  Uiso   1.00
H169   H     0.95036   0.78670   0.40326   0.00000  Uiso   1.00
H170   H     0.01798   0.75398   0.28597   0.00000  Uiso   1.00
H171   H     0.94183   0.86544   0.39595   0.00000  Uiso   1.00
H172   H     0.88772   0.74070   0.47461   0.00000  Uiso   1.00
H173   H     0.09854   0.71774   0.23990   0.00000  Uiso   1.00
H174   H     0.93798   0.95275   0.47180   0.00000  Uiso   1.00
H175   H     0.82387   0.68970   0.63767   0.00000  Uiso   1.00
O176   O     0.16228   0.69626   0.45140   0.00000  Uiso   1.00
O177   O     0.95162   0.00459   0.75565   0.00000  Uiso   1.00
O178   O     0.80192   0.65946   0.97327   0.00000  Uiso   1.00
N179   N     0.11752   0.72227   0.67959   0.00000  Uiso   1.00
N180   N     0.96741   0.94199   0.89639   0.00000  Uiso   1.00
N181   N     0.86072   0.69607   0.05147   0.00000  Uiso   1.00
N182   N     0.09763   0.72224   0.38151   0.00000  Uiso   1.00
N183   N     0.94752   0.94196   0.59830   0.00000  Uiso   1.00
N184   N     0.84084   0.69603   0.75339   0.00000  Uiso   1.00
C185   C     0.78676   0.01636   0.09796   0.00000  Uiso   1.00
C186   C     0.76897   0.98433   0.23211   0.00000  Uiso   1.00
C187   C     0.75404   0.94631   0.17886   0.00000  Uiso   1.00
C188   C     0.73907   0.92142   0.32293   0.00000  Uiso   1.00
C189   C     0.71147   0.86974   0.50227   0.00000  Uiso   1.00
C190   C     0.82953   0.02569   0.17237   0.00000  Uiso   1.00
C191   C     0.86552   0.02246   0.06888   0.00000  Uiso   1.00
C192   C     0.90152   0.03240   0.16266   0.00000  Uiso   1.00
C193   C     0.96794   0.04496   0.24921   0.00000  Uiso   1.00
C194   C     0.76175   0.05509   0.12963   0.00000  Uiso   1.00
C195   C     0.74075   0.07659   0.99020   0.00000  Uiso   1.00
C196   C     0.71970   0.11127   0.04799   0.00000  Uiso   1.00
C197   C     0.68088   0.16949   0.06818   0.00000  Uiso   1.00
C198   C     0.78672   0.03975   0.44850   0.00000  Uiso   1.00
C199   C     0.76895   0.99703   0.42251   0.00000  Uiso   1.00
C200   C     0.75400   0.97219   0.56670   0.00000  Uiso   1.00
C201   C     0.73904   0.93414   0.51367   0.00000  Uiso   1.00
C202   C     0.82951   0.03839   0.36276   0.00000  Uiso   1.00
C203   C     0.86547   0.04834   0.45671   0.00000  Uiso   1.00
C204   C     0.90150   0.04512   0.35340   0.00000  Uiso   1.00
C205   C     0.76173   0.06779   0.32003   0.00000  Uiso   1.00
C206   C     0.74071   0.10246   0.37804   0.00000  Uiso   1.00
C207   C     0.71968   0.12400   0.23873   0.00000  Uiso   1.00
H208   H     0.78678   0.00647   0.94973   0.00000  Uiso   1.00
H209   H     0.75407   0.93649   0.03150   0.00000  Uiso   1.00
H210   H     0.86552   0.01264   0.92153   0.00000  Uiso   1.00
H211   H     0.74077   0.06675   0.84287   0.00000  Uiso   1.00
H212   H     0.71780   0.86450   0.20613   0.00000  Uiso   1.00
H213   H     0.95281   0.02507   0.97424   0.00000  Uiso   1.00
H214   H     0.68976   0.13917   0.80837   0.00000  Uiso   1.00
H215   H     0.78670   0.04964   0.59674   0.00000  Uiso   1.00
H216   H     0.75398   0.98202   0.71403   0.00000  Uiso   1.00
H217   H     0.86544   0.05817   0.60405   0.00000  Uiso   1.00
H218   H     0.74070   0.11228   0.52539   0.00000  Uiso   1.00
H219   H     0.71774   0.90146   0.76010   0.00000  Uiso   1.00
H220   H     0.95275   0.06202   0.52820   0.00000  Uiso   1.00
H221   H     0.68970   0.17613   0.36233   0.00000  Uiso   1.00
O222   O     0.69626   0.83772   0.54860   0.00000  Uiso   1.00
O223   O     0.00459   0.04838   0.24435   0.00000  Uiso   1.00
O224   O     0.65946   0.19808   0.02673   0.00000  Uiso   1.00
N225   N     0.72227   0.88248   0.32041   0.00000  Uiso   1.00
N226   N     0.94199   0.03259   0.10361   0.00000  Uiso   1.00
N227   N     0.69607   0.13928   0.94853   0.00000  Uiso   1.00
N228   N     0.72224   0.90237   0.61849   0.00000  Uiso   1.00
N229   N     0.94196   0.05248   0.40170   0.00000  Uiso   1.00
N230   N     0.69603   0.15916   0.24661   0.00000  Uiso   1.00
C231   C     0.21324   0.98364   0.09796   0.00000  Uiso   1.00
C232   C     0.23103   0.01567   0.23211   0.00000  Uiso   1.00
C233   C     0.24596   0.05369   0.17886   0.00000  Uiso   1.00
C234   C     0.26093   0.07858   0.32293   0.00000  Uiso   1.00
C235   C     0.28853   0.13026   0.50227   0.00000  Uiso   1.00
C236   C     0.17047   0.97431   0.17237   0.00000  Uiso   1.00
C237   C     0.13448   0.97754   0.06888   0.00000  Uiso   1.00
C238   C     0.09848   0.96760   0.16266   0.00000  Uiso   1.00
C239   C     0.03206   0.95504   0.24921   0.00000  Uiso   1.00
C240   C     0.23825   0.94491   0.12963   0.00000  Uiso   1.00
C241   C     0.25925   0.92341   0.99020   0.00000  Uiso   1.00
C242   C     0.28030   0.88873   0.04799   0.00000  Uiso   1.00
C243   C     0.31912   0.83051   0.06818   0.00000  Uiso   1.00
C244   C     0.21328   0.96025   0.44850   0.00000  Uiso   1.00
C245   C     0.23105   0.00297   0.42251   0.00000  Uiso   1.00
C246   C     0.24600   0.02781   0.56670   0.00000  Uiso   1.00
C247   C     0.26096   0.06586   0.51367   0.00000  Uiso   1.00
C248   C     0.17049   0.96161   0.36276   0.00000  Uiso   1.00
C249   C     0.13453   0.95166   0.45671   0.00000  Uiso   1.00
C250   C     0.09850   0.95488   0.35340   0.00000  Uiso   1.00
C251   C     0.23827   0.93221   0.32003   0.00000  Uiso   1.00
C252   C     0.25929   0.89754   0.37804   0.00000  Uiso   1.00
C253   C     0.28032   0.87600   0.23873   0.00000  Uiso   1.00
H254   H     0.21322   0.99353   0.94973   0.00000  Uiso   1.00
H255   H     0.24593   0.06351   0.03150   0.00000  Uiso   1.00
H256   H     0.13448   0.98736   0.92153   0.00000  Uiso   1.00
H257   H     0.25923   0.93325   0.84287   0.00000  Uiso   1.00
H258   H     0.28220   0.13550   0.20613   0.00000  Uiso   1.00
H259   H     0.04719   0.97493   0.97424   0.00000  Uiso   1.00
H260   H     0.31024   0.86083   0.80837   0.00000  Uiso   1.00
H261   H     0.21330   0.95036   0.59674   0.00000  Uiso   1.00
H262   H     0.24602   0.01798   0.71403   0.00000  Uiso   1.00
H263   H     0.13456   0.94183   0.60405   0.00000  Uiso   1.00
H264   H     0.25930   0.88772   0.52539   0.00000  Uiso   1.00
H265   H     0.28226   0.09854   0.76010   0.00000  Uiso   1.00
H266   H     0.04725   0.93798   0.52820   0.00000  Uiso   1.00
H267   H     0.31030   0.82387   0.36233   0.00000  Uiso   1.00
O268   O     0.30374   0.16228   0.54860   0.00000  Uiso   1.00
O269   O     0.99541   0.95162   0.24435   0.00000  Uiso   1.00
O270   O     0.34054   0.80192   0.02673   0.00000  Uiso   1.00
N271   N     0.27773   0.11752   0.32041   0.00000  Uiso   1.00
N272   N     0.05801   0.96741   0.10361   0.00000  Uiso   1.00
N273   N     0.30393   0.86072   0.94853   0.00000  Uiso   1.00
N274   N     0.27776   0.09763   0.61849   0.00000  Uiso   1.00
N275   N     0.05804   0.94752   0.40170   0.00000  Uiso   1.00
N276   N     0.30397   0.84084   0.24661   0.00000  Uiso   1.00
C277   C     0.48364   0.28676   0.09796   0.00000  Uiso   1.00
C278   C     0.51567   0.26897   0.23211   0.00000  Uiso   1.00
C279   C     0.55369   0.25404   0.17886   0.00000  Uiso   1.00
C280   C     0.57858   0.23907   0.32293   0.00000  Uiso   1.00
C281   C     0.63026   0.21147   0.50227   0.00000  Uiso   1.00
C282   C     0.47431   0.32953   0.17237   0.00000  Uiso   1.00
C283   C     0.47754   0.36552   0.06888   0.00000  Uiso   1.00
C284   C     0.46760   0.40152   0.16266   0.00000  Uiso   1.00
C285   C     0.45504   0.46794   0.24921   0.00000  Uiso   1.00
C286   C     0.44491   0.26175   0.12963   0.00000  Uiso   1.00
C287   C     0.42341   0.24075   0.99020   0.00000  Uiso   1.00
C288   C     0.38873   0.21970   0.04799   0.00000  Uiso   1.00
C289   C     0.33051   0.18088   0.06818   0.00000  Uiso   1.00
C290   C     0.46025   0.28672   0.44850   0.00000  Uiso   1.00
C291   C     0.50297   0.26895   0.42251   0.00000  Uiso   1.00
C292   C     0.52781   0.25400   0.56670   0.00000  Uiso   1.00
C293   C     0.56586   0.23904   0.51367   0.00000  Uiso   1.00
C294   C     0.46161   0.32951   0.36276   0.00000  Uiso   1.00
C295   C     0.45166   0.36547   0.45671   0.00000  Uiso   1.00
C296   C     0.45488   0.40150   0.35340   0.00000  Uiso   1.00
C297   C     0.43221   0.26173   0.32003   0.00000  Uiso   1.00
C298   C     0.39754   0.24071   0.37804   0.00000  Uiso   1.00
C299   C     0.37600   0.21968   0.23873   0.00000  Uiso   1.00
H300   H     0.49353   0.28678   0.94973   0.00000  Uiso   1.00
H301   H     0.56351   0.25407   0.03150   0.00000  Uiso   1.00
H302   H     0.48736   0.36552   0.92153   0.00000  Uiso   1.00
H303   H     0.43325   0.24077   0.84287   0.00000  Uiso   1.00
H304   H     0.63550   0.21780   0.20613   0.00000  Uiso   1.00
H305   H     0.47493   0.45281   0.97424   0.00000  Uiso   1.00
H306   H     0.36083   0.18976   0.80837   0.00000  Uiso   1.00
H307   H     0.45036   0.28670   0.59674   0.00000  Uiso   1.00
H308   H     0.51798   0.25398   0.71403   0.00000  Uiso   1.00
H309   H     0.44183   0.36544   0.60405   0.00000  Uiso   1.00
H310   H     0.38772   0.24070   0.52539   0.00000  Uiso   1.00
H311   H     0.59854   0.21774   0.76010   0.00000  Uiso   1.00
H312   H     0.43798   0.45275   0.52820   0.00000  Uiso   1.00
H313   H     0.32387   0.18970   0.36233   0.00000  Uiso   1.00
O314   O     0.66228   0.19626   0.54860   0.00000  Uiso   1.00
O315   O     0.45162   0.50459   0.24435   0.00000  Uiso   1.00
O316   O     0.30192   0.15946   0.02673   0.00000  Uiso   1.00
N317   N     0.61752   0.22227   0.32041   0.00000  Uiso   1.00
N318   N     0.46741   0.44199   0.10361   0.00000  Uiso   1.00
N319   N     0.36072   0.19607   0.94853   0.00000  Uiso   1.00
N320   N     0.59763   0.22224   0.61849   0.00000  Uiso   1.00
N321   N     0.44752   0.44196   0.40170   0.00000  Uiso   1.00
N322   N     0.34084   0.19603   0.24661   0.00000  Uiso   1.00
C323   C     0.51636   0.71324   0.09796   0.00000  Uiso   1.00
C324   C     0.48433   0.73103   0.23211   0.00000  Uiso   1.00
C325   C     0.44631   0.74596   0.17886   0.00000  Uiso   1.00
C326   C     0.42142   0.76093   0.32293   0.00000  Uiso   1.00
C327   C     0.36974   0.78853   0.50227   0.00000  Uiso   1.00
C328   C     0.52569   0.67047   0.17237   0.00000  Uiso   1.00
C329   C     0.52246   0.63448   0.06888   0.00000  Uiso   1.00
C330   C     0.53240   0.59848   0.16266   0.00000  Uiso   1.00
C331   C     0.54496   0.53206   0.24921   0.00000  Uiso   1.00
C332   C     0.55509   0.73825   0.12963   0.00000  Uiso   1.00
C333   C     0.57659   0.75925   0.99020   0.00000  Uiso   1.00
C334   C     0.61127   0.78030   0.04799   0.00000  Uiso   1.00
C335   C     0.66949   0.81912   0.06818   0.00000  Uiso   1.00
C336   C     0.53975   0.71328   0.44850   0.00000  Uiso   1.00
C337   C     0.49703   0.73105   0.42251   0.00000  Uiso   1.00
C338   C     0.47219   0.74600   0.56670   0.00000  Uiso   1.00
C339   C     0.43414   0.76096   0.51367   0.00000  Uiso   1.00
C340   C     0.53839   0.67049   0.36276   0.00000  Uiso   1.00
C341   C     0.54834   0.63453   0.45671   0.00000  Uiso   1.00
C342   C     0.54512   0.59850   0.35340   0.00000  Uiso   1.00
C343   C     0.56779   0.73827   0.32003   0.00000  Uiso   1.00
C344   C     0.60246   0.75929   0.37804   0.00000  Uiso   1.00
C345   C     0.62400   0.78032   0.23873   0.00000  Uiso   1.00
H346   H     0.50647   0.71322   0.94973   0.00000  Uiso   1.00
H347   H     0.43649   0.74593   0.03150   0.00000  Uiso   1.00
H348   H     0.51264   0.63448   0.92153   0.00000  Uiso   1.00
H349   H     0.56675   0.75923   0.84287   0.00000  Uiso   1.00
H350   H     0.36450   0.78220   0.20613   0.00000  Uiso   1.00
H351   H     0.52507   0.54719   0.97424   0.00000  Uiso   1.00
H352   H     0.63917   0.81024   0.80837   0.00000  Uiso   1.00
H353   H     0.54964   0.71330   0.59674   0.00000  Uiso   1.00
H354   H     0.48202   0.74602   0.71403   0.00000  Uiso   1.00
H355   H     0.55817   0.63456   0.60405   0.00000  Uiso   1.00
H356   H     0.61228   0.75930   0.52539   0.00000  Uiso   1.00
H357   H     0.40146   0.78226   0.76010   0.00000  Uiso   1.00
H358   H     0.56202   0.54725   0.52820   0.00000  Uiso   1.00
H359   H     0.67613   0.81030   0.36233   0.00000  Uiso   1.00
O360   O     0.33772   0.80374   0.54860   0.00000  Uiso   1.00
O361   O     0.54838   0.49541   0.24435   0.00000  Uiso   1.00
O362   O     0.69808   0.84054   0.02673   0.00000  Uiso   1.00
N363   N     0.38248   0.77773   0.32041   0.00000  Uiso   1.00
N364   N     0.53259   0.55801   0.10361   0.00000  Uiso   1.00
N365   N     0.63928   0.80393   0.94853   0.00000  Uiso   1.00
N366   N     0.40237   0.77776   0.61849   0.00000  Uiso   1.00
N367   N     0.55248   0.55804   0.40170   0.00000  Uiso   1.00
N368   N     0.65916   0.80397   0.24661   0.00000  Uiso   1.00
