data_job_02857
_audit_creation_date              2018-12-19
_audit_creation_method            'Materials Studio'
_symmetry_space_group_name_H-M    'P1'
_symmetry_Int_Tables_number       1
_symmetry_cell_setting            triclinic
loop_
_symmetry_equiv_pos_as_xyz
  x,y,z
_cell_length_a                    16.2524
_cell_length_b                    10.5534
_cell_length_c                    13.1420
_cell_angle_alpha                 90.0000
_cell_angle_beta                  90.0000
_cell_angle_gamma                 90.0000
loop_
_atom_site_label
_atom_site_type_symbol
_atom_site_fract_x
_atom_site_fract_y
_atom_site_fract_z
_atom_site_U_iso_or_equiv
_atom_site_adp_type
_atom_site_occupancy
C1     C     0.21484   0.86716   0.02289   0.00000  Uiso   1.00
C2     C     0.16366   0.93380   0.10410   0.00000  Uiso   1.00
C3     C     0.08739   0.98986   0.08905   0.00000  Uiso   1.00
C4     C     0.05055   0.04598   0.17304   0.00000  Uiso   1.00
C5     C     0.96530   0.14950   0.28459   0.00000  Uiso   1.00
C6     C     0.29809   0.93380   0.02207   0.00000  Uiso   1.00
C7     C     0.33484   0.98985   0.93803   0.00000  Uiso   1.00
C8     C     0.41117   0.04595   0.95297   0.00000  Uiso   1.00
C9     C     0.53465   0.14940   0.93715   0.00000  Uiso   1.00
C10    C     0.23088   0.73388   0.06306   0.00000  Uiso   1.00
C11    C     0.21114   0.62181   0.01348   0.00000  Uiso   1.00
C12    C     0.23089   0.50959   0.06292   0.00000  Uiso   1.00
C13    C     0.25002   0.30262   0.11074   0.00000  Uiso   1.00
C14    C     0.28505   0.86713   0.19882   0.00000  Uiso   1.00
C15    C     0.20180   0.93378   0.19966   0.00000  Uiso   1.00
C16    C     0.16506   0.98982   0.28370   0.00000  Uiso   1.00
C17    C     0.08875   0.04595   0.26877   0.00000  Uiso   1.00
C18    C     0.33622   0.93379   0.11762   0.00000  Uiso   1.00
C19    C     0.41251   0.98981   0.13268   0.00000  Uiso   1.00
C20    C     0.44937   0.04593   0.04870   0.00000  Uiso   1.00
C21    C     0.26901   0.73386   0.15862   0.00000  Uiso   1.00
C22    C     0.28881   0.62178   0.20813   0.00000  Uiso   1.00
C23    C     0.26909   0.50957   0.15865   0.00000  Uiso   1.00
H24    H     0.18516   0.86718   0.94849   0.00000  Uiso   1.00
H25    H     0.05790   0.98986   0.01508   0.00000  Uiso   1.00
H26    H     0.30532   0.98983   0.86409   0.00000  Uiso   1.00
H27    H     0.18163   0.62187   0.93953   0.00000  Uiso   1.00
H28    H     0.93365   0.12591   0.13104   0.00000  Uiso   1.00
H29    H     0.45535   0.12582   0.81267   0.00000  Uiso   1.00
H30    H     0.19453   0.34988   0.97175   0.00000  Uiso   1.00
H31    H     0.31474   0.86712   0.27322   0.00000  Uiso   1.00
H32    H     0.19459   0.98980   0.35764   0.00000  Uiso   1.00
H33    H     0.44201   0.98977   0.20664   0.00000  Uiso   1.00
H34    H     0.31832   0.62180   0.28208   0.00000  Uiso   1.00
H35    H     0.04459   0.12587   0.40907   0.00000  Uiso   1.00
H36    H     0.56630   0.12576   0.09069   0.00000  Uiso   1.00
H37    H     0.30547   0.34983   0.24977   0.00000  Uiso   1.00
O38    O     0.90776   0.20663   0.31972   0.00000  Uiso   1.00
O39    O     0.59222   0.20648   0.90202   0.00000  Uiso   1.00
O40    O     0.25002   0.18847   0.11073   0.00000  Uiso   1.00
N41    N     0.97624   0.10904   0.18490   0.00000  Uiso   1.00
N42    N     0.46400   0.10897   0.88724   0.00000  Uiso   1.00
N43    N     0.22017   0.38353   0.03595   0.00000  Uiso   1.00
N44    N     0.03594   0.10902   0.33450   0.00000  Uiso   1.00
N45    N     0.52369   0.10894   0.03684   0.00000  Uiso   1.00
N46    N     0.27986   0.38351   0.18556   0.00000  Uiso   1.00
C47    C     0.78516   0.13284   0.52289   0.00000  Uiso   1.00
C48    C     0.83634   0.06620   0.60410   0.00000  Uiso   1.00
C49    C     0.91261   0.01014   0.58905   0.00000  Uiso   1.00
C50    C     0.94945   0.95402   0.67304   0.00000  Uiso   1.00
C51    C     0.03470   0.85050   0.78459   0.00000  Uiso   1.00
C52    C     0.70191   0.06620   0.52207   0.00000  Uiso   1.00
C53    C     0.66516   0.01015   0.43803   0.00000  Uiso   1.00
C54    C     0.58883   0.95405   0.45297   0.00000  Uiso   1.00
C55    C     0.46535   0.85060   0.43715   0.00000  Uiso   1.00
C56    C     0.76912   0.26612   0.56306   0.00000  Uiso   1.00
C57    C     0.78886   0.37819   0.51348   0.00000  Uiso   1.00
C58    C     0.76911   0.49041   0.56292   0.00000  Uiso   1.00
C59    C     0.74998   0.69738   0.61074   0.00000  Uiso   1.00
C60    C     0.71495   0.13287   0.69882   0.00000  Uiso   1.00
C61    C     0.79820   0.06622   0.69966   0.00000  Uiso   1.00
C62    C     0.83494   0.01018   0.78370   0.00000  Uiso   1.00
C63    C     0.91125   0.95405   0.76877   0.00000  Uiso   1.00
C64    C     0.66378   0.06621   0.61762   0.00000  Uiso   1.00
C65    C     0.58749   0.01019   0.63268   0.00000  Uiso   1.00
C66    C     0.55063   0.95407   0.54870   0.00000  Uiso   1.00
C67    C     0.73099   0.26614   0.65862   0.00000  Uiso   1.00
C68    C     0.71119   0.37822   0.70813   0.00000  Uiso   1.00
C69    C     0.73091   0.49043   0.65865   0.00000  Uiso   1.00
H70    H     0.81484   0.13282   0.44849   0.00000  Uiso   1.00
H71    H     0.94210   0.01014   0.51508   0.00000  Uiso   1.00
H72    H     0.69468   0.01017   0.36409   0.00000  Uiso   1.00
H73    H     0.81837   0.37813   0.43953   0.00000  Uiso   1.00
H74    H     0.06635   0.87409   0.63104   0.00000  Uiso   1.00
H75    H     0.54465   0.87418   0.31267   0.00000  Uiso   1.00
H76    H     0.80547   0.65012   0.47175   0.00000  Uiso   1.00
H77    H     0.68526   0.13288   0.77322   0.00000  Uiso   1.00
H78    H     0.80541   0.01020   0.85764   0.00000  Uiso   1.00
H79    H     0.55799   0.01023   0.70664   0.00000  Uiso   1.00
H80    H     0.68168   0.37820   0.78208   0.00000  Uiso   1.00
H81    H     0.95541   0.87413   0.90907   0.00000  Uiso   1.00
H82    H     0.43370   0.87424   0.59069   0.00000  Uiso   1.00
H83    H     0.69453   0.65017   0.74977   0.00000  Uiso   1.00
O84    O     0.09224   0.79337   0.81972   0.00000  Uiso   1.00
O85    O     0.40778   0.79352   0.40202   0.00000  Uiso   1.00
O86    O     0.74998   0.81153   0.61073   0.00000  Uiso   1.00
N87    N     0.02376   0.89096   0.68490   0.00000  Uiso   1.00
N88    N     0.53600   0.89103   0.38724   0.00000  Uiso   1.00
N89    N     0.77983   0.61647   0.53595   0.00000  Uiso   1.00
N90    N     0.96406   0.89098   0.83450   0.00000  Uiso   1.00
N91    N     0.47631   0.89106   0.53684   0.00000  Uiso   1.00
N92    N     0.72014   0.61649   0.68556   0.00000  Uiso   1.00
C93    C     0.71484   0.63284   0.02289   0.00000  Uiso   1.00
C94    C     0.66366   0.56620   0.10410   0.00000  Uiso   1.00
C95    C     0.58739   0.51014   0.08905   0.00000  Uiso   1.00
C96    C     0.55055   0.45402   0.17304   0.00000  Uiso   1.00
C97    C     0.46530   0.35050   0.28459   0.00000  Uiso   1.00
C98    C     0.79809   0.56620   0.02207   0.00000  Uiso   1.00
C99    C     0.83484   0.51015   0.93803   0.00000  Uiso   1.00
C100   C     0.91117   0.45405   0.95297   0.00000  Uiso   1.00
C101   C     0.03465   0.35060   0.93715   0.00000  Uiso   1.00
C102   C     0.73088   0.76612   0.06306   0.00000  Uiso   1.00
C103   C     0.71114   0.87819   0.01348   0.00000  Uiso   1.00
C104   C     0.73089   0.99041   0.06292   0.00000  Uiso   1.00
C105   C     0.75002   0.19738   0.11074   0.00000  Uiso   1.00
C106   C     0.78505   0.63287   0.19882   0.00000  Uiso   1.00
C107   C     0.70180   0.56622   0.19966   0.00000  Uiso   1.00
C108   C     0.66506   0.51018   0.28370   0.00000  Uiso   1.00
C109   C     0.58875   0.45405   0.26877   0.00000  Uiso   1.00
C110   C     0.83622   0.56621   0.11762   0.00000  Uiso   1.00
C111   C     0.91251   0.51019   0.13268   0.00000  Uiso   1.00
C112   C     0.94937   0.45407   0.04870   0.00000  Uiso   1.00
C113   C     0.76901   0.76614   0.15862   0.00000  Uiso   1.00
C114   C     0.78881   0.87822   0.20813   0.00000  Uiso   1.00
C115   C     0.76909   0.99043   0.15865   0.00000  Uiso   1.00
H116   H     0.68516   0.63282   0.94849   0.00000  Uiso   1.00
H117   H     0.55790   0.51014   0.01508   0.00000  Uiso   1.00
H118   H     0.80532   0.51017   0.86409   0.00000  Uiso   1.00
H119   H     0.68163   0.87813   0.93953   0.00000  Uiso   1.00
H120   H     0.43365   0.37409   0.13104   0.00000  Uiso   1.00
H121   H     0.95535   0.37418   0.81267   0.00000  Uiso   1.00
H122   H     0.69453   0.15012   0.97175   0.00000  Uiso   1.00
H123   H     0.81474   0.63288   0.27322   0.00000  Uiso   1.00
H124   H     0.69459   0.51020   0.35764   0.00000  Uiso   1.00
H125   H     0.94201   0.51023   0.20664   0.00000  Uiso   1.00
H126   H     0.81832   0.87820   0.28208   0.00000  Uiso   1.00
H127   H     0.54459   0.37413   0.40907   0.00000  Uiso   1.00
H128   H     0.06630   0.37424   0.09069   0.00000  Uiso   1.00
H129   H     0.80547   0.15017   0.24977   0.00000  Uiso   1.00
O130   O     0.40776   0.29337   0.31972   0.00000  Uiso   1.00
O131   O     0.09222   0.29352   0.90202   0.00000  Uiso   1.00
O132   O     0.75002   0.31153   0.11073   0.00000  Uiso   1.00
N133   N     0.47624   0.39096   0.18490   0.00000  Uiso   1.00
N134   N     0.96400   0.39103   0.88724   0.00000  Uiso   1.00
N135   N     0.72017   0.11647   0.03595   0.00000  Uiso   1.00
N136   N     0.53594   0.39098   0.33450   0.00000  Uiso   1.00
N137   N     0.02369   0.39106   0.03684   0.00000  Uiso   1.00
N138   N     0.77986   0.11649   0.18556   0.00000  Uiso   1.00
C139   C     0.28516   0.36716   0.52289   0.00000  Uiso   1.00
C140   C     0.33634   0.43380   0.60410   0.00000  Uiso   1.00
C141   C     0.41261   0.48986   0.58905   0.00000  Uiso   1.00
C142   C     0.44945   0.54598   0.67304   0.00000  Uiso   1.00
C143   C     0.53470   0.64950   0.78459   0.00000  Uiso   1.00
C144   C     0.20191   0.43380   0.52207   0.00000  Uiso   1.00
C145   C     0.16516   0.48985   0.43803   0.00000  Uiso   1.00
C146   C     0.08883   0.54595   0.45297   0.00000  Uiso   1.00
C147   C     0.96535   0.64940   0.43715   0.00000  Uiso   1.00
C148   C     0.26912   0.23388   0.56306   0.00000  Uiso   1.00
C149   C     0.28886   0.12181   0.51348   0.00000  Uiso   1.00
C150   C     0.26911   0.00959   0.56292   0.00000  Uiso   1.00
C151   C     0.24998   0.80262   0.61074   0.00000  Uiso   1.00
C152   C     0.21495   0.36713   0.69882   0.00000  Uiso   1.00
C153   C     0.29820   0.43378   0.69966   0.00000  Uiso   1.00
C154   C     0.33494   0.48982   0.78370   0.00000  Uiso   1.00
C155   C     0.41125   0.54595   0.76877   0.00000  Uiso   1.00
C156   C     0.16378   0.43379   0.61762   0.00000  Uiso   1.00
C157   C     0.08749   0.48981   0.63268   0.00000  Uiso   1.00
C158   C     0.05063   0.54593   0.54870   0.00000  Uiso   1.00
C159   C     0.23099   0.23386   0.65862   0.00000  Uiso   1.00
C160   C     0.21119   0.12178   0.70813   0.00000  Uiso   1.00
C161   C     0.23091   0.00957   0.65865   0.00000  Uiso   1.00
H162   H     0.31484   0.36718   0.44849   0.00000  Uiso   1.00
H163   H     0.44210   0.48986   0.51508   0.00000  Uiso   1.00
H164   H     0.19468   0.48983   0.36409   0.00000  Uiso   1.00
H165   H     0.31837   0.12187   0.43953   0.00000  Uiso   1.00
H166   H     0.56635   0.62591   0.63104   0.00000  Uiso   1.00
H167   H     0.04465   0.62582   0.31267   0.00000  Uiso   1.00
H168   H     0.30547   0.84988   0.47175   0.00000  Uiso   1.00
H169   H     0.18526   0.36712   0.77322   0.00000  Uiso   1.00
H170   H     0.30541   0.48980   0.85764   0.00000  Uiso   1.00
H171   H     0.05799   0.48977   0.70664   0.00000  Uiso   1.00
H172   H     0.18168   0.12180   0.78208   0.00000  Uiso   1.00
H173   H     0.45541   0.62587   0.90907   0.00000  Uiso   1.00
H174   H     0.93370   0.62576   0.59069   0.00000  Uiso   1.00
H175   H     0.19453   0.84983   0.74977   0.00000  Uiso   1.00
O176   O     0.59224   0.70663   0.81972   0.00000  Uiso   1.00
O177   O     0.90778   0.70648   0.40202   0.00000  Uiso   1.00
O178   O     0.24998   0.68847   0.61073   0.00000  Uiso   1.00
N179   N     0.52376   0.60904   0.68490   0.00000  Uiso   1.00
N180   N     0.03600   0.60897   0.38724   0.00000  Uiso   1.00
N181   N     0.27983   0.88353   0.53595   0.00000  Uiso   1.00
N182   N     0.46406   0.60902   0.83450   0.00000  Uiso   1.00
N183   N     0.97631   0.60894   0.53684   0.00000  Uiso   1.00
N184   N     0.22014   0.88351   0.68556   0.00000  Uiso   1.00
