data_job_00343
_audit_creation_date              2018-12-19
_audit_creation_method            'Materials Studio'
_symmetry_space_group_name_H-M    'P1'
_symmetry_Int_Tables_number       1
_symmetry_cell_setting            triclinic
loop_
_symmetry_equiv_pos_as_xyz
  x,y,z
_cell_length_a                    30.1732
_cell_length_b                    8.9625
_cell_length_c                    41.1004
_cell_angle_alpha                 90.0000
_cell_angle_beta                  153.7515
_cell_angle_gamma                 90.0000
loop_
_atom_site_label
_atom_site_type_symbol
_atom_site_fract_x
_atom_site_fract_y
_atom_site_fract_z
_atom_site_U_iso_or_equiv
_atom_site_adp_type
_atom_site_occupancy
C1     C     0.74492   0.16045   0.13192   0.00000  Uiso   1.00
C2     C     0.72722   0.07205   0.15144   0.00000  Uiso   1.00
C3     C     0.66277   0.11215   0.13403   0.00000  Uiso   1.00
C4     C     0.65717   0.01629   0.15681   0.00000  Uiso   1.00
C5     C     0.62107   0.89902   0.18125   0.00000  Uiso   1.00
C6     C     0.85738   0.18987   0.20447   0.00000  Uiso   1.00
C7     C     0.90237   0.32902   0.23164   0.00000  Uiso   1.00
C8     C     0.00635   0.33233   0.29906   0.00000  Uiso   1.00
C9     C     0.17232   0.39796   0.40580   0.00000  Uiso   1.00
C10    C     0.72189   0.05392   0.08881   0.00000  Uiso   1.00
C11    C     0.65298   0.07878   0.01874   0.00000  Uiso   1.00
C12    C     0.64290   0.96765   0.98879   0.00000  Uiso   1.00
C13    C     0.59851   0.82221   0.91595   0.00000  Uiso   1.00
C14    C     0.84957   0.91891   0.20335   0.00000  Uiso   1.00
C15    C     0.78406   0.94085   0.19024   0.00000  Uiso   1.00
C16    C     0.77855   0.84490   0.21306   0.00000  Uiso   1.00
C17    C     0.71411   0.88485   0.19568   0.00000  Uiso   1.00
C18    C     0.91422   0.05867   0.24327   0.00000  Uiso   1.00
C19    C     0.01815   0.06178   0.31067   0.00000  Uiso   1.00
C20    C     0.06329   0.20090   0.33793   0.00000  Uiso   1.00
C21    C     0.77873   0.92272   0.12761   0.00000  Uiso   1.00
C22    C     0.76876   0.81153   0.09777   0.00000  Uiso   1.00
C23    C     0.69984   0.83622   0.02766   0.00000  Uiso   1.00
H24    H     0.70068   0.26260   0.10172   0.00000  Uiso   1.00
H25    H     0.61881   0.21370   0.10401   0.00000  Uiso   1.00
H26    H     0.85837   0.43053   0.20160   0.00000  Uiso   1.00
H27    H     0.60901   0.18033   0.98873   0.00000  Uiso   1.00
H28    H     0.55313   0.10165   0.12368   0.00000  Uiso   1.00
H29    H     0.05826   0.55885   0.32944   0.00000  Uiso   1.00
H30    H     0.53244   0.03125   0.88056   0.00000  Uiso   1.00
H31    H     0.89383   0.81676   0.23356   0.00000  Uiso   1.00
H32    H     0.82255   0.74338   0.24308   0.00000  Uiso   1.00
H33    H     0.06211   0.96022   0.34067   0.00000  Uiso   1.00
H34    H     0.81276   0.71002   0.12781   0.00000  Uiso   1.00
H35    H     0.71850   0.71993   0.23656   0.00000  Uiso   1.00
H36    H     0.22363   0.17713   0.44232   0.00000  Uiso   1.00
H37    H     0.69781   0.64953   0.99345   0.00000  Uiso   1.00
O38    O     0.58547   0.87059   0.18402   0.00000  Uiso   1.00
O39    O     0.24817   0.47042   0.45396   0.00000  Uiso   1.00
O40    O     0.55831   0.77822   0.86505   0.00000  Uiso   1.00
N41    N     0.60182   0.02186   0.14892   0.00000  Uiso   1.00
N42    N     0.07408   0.44932   0.34130   0.00000  Uiso   1.00
N43    N     0.58251   0.95608   0.92165   0.00000  Uiso   1.00
N44    N     0.69080   0.81646   0.20966   0.00000  Uiso   1.00
N45    N     0.16306   0.24392   0.40204   0.00000  Uiso   1.00
N46    N     0.67149   0.75068   0.98239   0.00000  Uiso   1.00
C47    C     0.24492   0.66045   0.13192   0.00000  Uiso   1.00
C48    C     0.22722   0.57205   0.15144   0.00000  Uiso   1.00
C49    C     0.16277   0.61215   0.13403   0.00000  Uiso   1.00
C50    C     0.15717   0.51629   0.15681   0.00000  Uiso   1.00
C51    C     0.12107   0.39902   0.18125   0.00000  Uiso   1.00
C52    C     0.35738   0.68987   0.20447   0.00000  Uiso   1.00
C53    C     0.40237   0.82902   0.23164   0.00000  Uiso   1.00
C54    C     0.50635   0.83233   0.29906   0.00000  Uiso   1.00
C55    C     0.67232   0.89796   0.40580   0.00000  Uiso   1.00
C56    C     0.22189   0.55392   0.08881   0.00000  Uiso   1.00
C57    C     0.15298   0.57878   0.01874   0.00000  Uiso   1.00
C58    C     0.14290   0.46765   0.98879   0.00000  Uiso   1.00
C59    C     0.09851   0.32221   0.91595   0.00000  Uiso   1.00
C60    C     0.34957   0.41891   0.20335   0.00000  Uiso   1.00
C61    C     0.28406   0.44085   0.19024   0.00000  Uiso   1.00
C62    C     0.27855   0.34490   0.21306   0.00000  Uiso   1.00
C63    C     0.21411   0.38485   0.19568   0.00000  Uiso   1.00
C64    C     0.41422   0.55867   0.24327   0.00000  Uiso   1.00
C65    C     0.51815   0.56178   0.31067   0.00000  Uiso   1.00
C66    C     0.56329   0.70090   0.33793   0.00000  Uiso   1.00
C67    C     0.27873   0.42272   0.12761   0.00000  Uiso   1.00
C68    C     0.26876   0.31153   0.09777   0.00000  Uiso   1.00
C69    C     0.19984   0.33622   0.02766   0.00000  Uiso   1.00
H70    H     0.20068   0.76260   0.10172   0.00000  Uiso   1.00
H71    H     0.11881   0.71370   0.10401   0.00000  Uiso   1.00
H72    H     0.35837   0.93053   0.20160   0.00000  Uiso   1.00
H73    H     0.10901   0.68033   0.98873   0.00000  Uiso   1.00
H74    H     0.05313   0.60165   0.12368   0.00000  Uiso   1.00
H75    H     0.55826   0.05885   0.32944   0.00000  Uiso   1.00
H76    H     0.03244   0.53125   0.88056   0.00000  Uiso   1.00
H77    H     0.39383   0.31676   0.23356   0.00000  Uiso   1.00
H78    H     0.32255   0.24338   0.24308   0.00000  Uiso   1.00
H79    H     0.56211   0.46022   0.34067   0.00000  Uiso   1.00
H80    H     0.31276   0.21002   0.12781   0.00000  Uiso   1.00
H81    H     0.21850   0.21993   0.23656   0.00000  Uiso   1.00
H82    H     0.72363   0.67713   0.44232   0.00000  Uiso   1.00
H83    H     0.19781   0.14953   0.99345   0.00000  Uiso   1.00
O84    O     0.08547   0.37059   0.18402   0.00000  Uiso   1.00
O85    O     0.74817   0.97042   0.45396   0.00000  Uiso   1.00
O86    O     0.05831   0.27822   0.86505   0.00000  Uiso   1.00
N87    N     0.10182   0.52186   0.14892   0.00000  Uiso   1.00
N88    N     0.57408   0.94932   0.34130   0.00000  Uiso   1.00
N89    N     0.08251   0.45608   0.92165   0.00000  Uiso   1.00
N90    N     0.19080   0.31646   0.20966   0.00000  Uiso   1.00
N91    N     0.66306   0.74392   0.40204   0.00000  Uiso   1.00
N92    N     0.17149   0.25068   0.98239   0.00000  Uiso   1.00
C93    C     0.25508   0.16045   0.36808   0.00000  Uiso   1.00
C94    C     0.27278   0.07205   0.34856   0.00000  Uiso   1.00
C95    C     0.33723   0.11215   0.36597   0.00000  Uiso   1.00
C96    C     0.34283   0.01629   0.34319   0.00000  Uiso   1.00
C97    C     0.37893   0.89902   0.31875   0.00000  Uiso   1.00
C98    C     0.14262   0.18987   0.29553   0.00000  Uiso   1.00
C99    C     0.09763   0.32902   0.26836   0.00000  Uiso   1.00
C100   C     0.99365   0.33233   0.20094   0.00000  Uiso   1.00
C101   C     0.82768   0.39796   0.09420   0.00000  Uiso   1.00
C102   C     0.27811   0.05392   0.41119   0.00000  Uiso   1.00
C103   C     0.34702   0.07878   0.48126   0.00000  Uiso   1.00
C104   C     0.35710   0.96765   0.51121   0.00000  Uiso   1.00
C105   C     0.40149   0.82221   0.58405   0.00000  Uiso   1.00
C106   C     0.15043   0.91891   0.29665   0.00000  Uiso   1.00
C107   C     0.21594   0.94085   0.30976   0.00000  Uiso   1.00
C108   C     0.22145   0.84490   0.28694   0.00000  Uiso   1.00
C109   C     0.28589   0.88485   0.30432   0.00000  Uiso   1.00
C110   C     0.08578   0.05867   0.25673   0.00000  Uiso   1.00
C111   C     0.98185   0.06178   0.18933   0.00000  Uiso   1.00
C112   C     0.93671   0.20090   0.16207   0.00000  Uiso   1.00
C113   C     0.22127   0.92272   0.37239   0.00000  Uiso   1.00
C114   C     0.23124   0.81153   0.40223   0.00000  Uiso   1.00
C115   C     0.30016   0.83622   0.47234   0.00000  Uiso   1.00
H116   H     0.29932   0.26260   0.39828   0.00000  Uiso   1.00
H117   H     0.38119   0.21370   0.39599   0.00000  Uiso   1.00
H118   H     0.14163   0.43053   0.29840   0.00000  Uiso   1.00
H119   H     0.39099   0.18033   0.51127   0.00000  Uiso   1.00
H120   H     0.44687   0.10165   0.37632   0.00000  Uiso   1.00
H121   H     0.94174   0.55885   0.17056   0.00000  Uiso   1.00
H122   H     0.46756   0.03125   0.61944   0.00000  Uiso   1.00
H123   H     0.10617   0.81676   0.26644   0.00000  Uiso   1.00
H124   H     0.17745   0.74338   0.25692   0.00000  Uiso   1.00
H125   H     0.93789   0.96022   0.15933   0.00000  Uiso   1.00
H126   H     0.18724   0.71002   0.37219   0.00000  Uiso   1.00
H127   H     0.28150   0.71993   0.26344   0.00000  Uiso   1.00
H128   H     0.77637   0.17713   0.05768   0.00000  Uiso   1.00
H129   H     0.30219   0.64953   0.50655   0.00000  Uiso   1.00
O130   O     0.41453   0.87059   0.31598   0.00000  Uiso   1.00
O131   O     0.75183   0.47042   0.04604   0.00000  Uiso   1.00
O132   O     0.44169   0.77822   0.63495   0.00000  Uiso   1.00
N133   N     0.39818   0.02186   0.35108   0.00000  Uiso   1.00
N134   N     0.92592   0.44932   0.15870   0.00000  Uiso   1.00
N135   N     0.41749   0.95608   0.57835   0.00000  Uiso   1.00
N136   N     0.30920   0.81646   0.29034   0.00000  Uiso   1.00
N137   N     0.83694   0.24392   0.09796   0.00000  Uiso   1.00
N138   N     0.32851   0.75068   0.51761   0.00000  Uiso   1.00
C139   C     0.75508   0.66045   0.36808   0.00000  Uiso   1.00
C140   C     0.77278   0.57205   0.34856   0.00000  Uiso   1.00
C141   C     0.83723   0.61215   0.36597   0.00000  Uiso   1.00
C142   C     0.84283   0.51629   0.34319   0.00000  Uiso   1.00
C143   C     0.87893   0.39902   0.31875   0.00000  Uiso   1.00
C144   C     0.64262   0.68987   0.29553   0.00000  Uiso   1.00
C145   C     0.59763   0.82902   0.26836   0.00000  Uiso   1.00
C146   C     0.49365   0.83233   0.20094   0.00000  Uiso   1.00
C147   C     0.32768   0.89796   0.09420   0.00000  Uiso   1.00
C148   C     0.77811   0.55392   0.41119   0.00000  Uiso   1.00
C149   C     0.84702   0.57878   0.48126   0.00000  Uiso   1.00
C150   C     0.85710   0.46765   0.51121   0.00000  Uiso   1.00
C151   C     0.90149   0.32221   0.58405   0.00000  Uiso   1.00
C152   C     0.65043   0.41891   0.29665   0.00000  Uiso   1.00
C153   C     0.71594   0.44085   0.30976   0.00000  Uiso   1.00
C154   C     0.72145   0.34490   0.28694   0.00000  Uiso   1.00
C155   C     0.78589   0.38485   0.30432   0.00000  Uiso   1.00
C156   C     0.58578   0.55867   0.25673   0.00000  Uiso   1.00
C157   C     0.48185   0.56178   0.18933   0.00000  Uiso   1.00
C158   C     0.43671   0.70090   0.16207   0.00000  Uiso   1.00
C159   C     0.72127   0.42272   0.37239   0.00000  Uiso   1.00
C160   C     0.73124   0.31153   0.40223   0.00000  Uiso   1.00
C161   C     0.80016   0.33622   0.47234   0.00000  Uiso   1.00
H162   H     0.79932   0.76260   0.39828   0.00000  Uiso   1.00
H163   H     0.88119   0.71370   0.39599   0.00000  Uiso   1.00
H164   H     0.64163   0.93053   0.29840   0.00000  Uiso   1.00
H165   H     0.89099   0.68033   0.51127   0.00000  Uiso   1.00
H166   H     0.94687   0.60165   0.37632   0.00000  Uiso   1.00
H167   H     0.44174   0.05885   0.17056   0.00000  Uiso   1.00
H168   H     0.96756   0.53125   0.61944   0.00000  Uiso   1.00
H169   H     0.60617   0.31676   0.26644   0.00000  Uiso   1.00
H170   H     0.67745   0.24338   0.25692   0.00000  Uiso   1.00
H171   H     0.43789   0.46022   0.15933   0.00000  Uiso   1.00
H172   H     0.68724   0.21002   0.37219   0.00000  Uiso   1.00
H173   H     0.78150   0.21993   0.26344   0.00000  Uiso   1.00
H174   H     0.27637   0.67713   0.05768   0.00000  Uiso   1.00
H175   H     0.80219   0.14953   0.50655   0.00000  Uiso   1.00
O176   O     0.91453   0.37059   0.31598   0.00000  Uiso   1.00
O177   O     0.25183   0.97042   0.04604   0.00000  Uiso   1.00
O178   O     0.94169   0.27822   0.63495   0.00000  Uiso   1.00
N179   N     0.89818   0.52186   0.35108   0.00000  Uiso   1.00
N180   N     0.42592   0.94932   0.15870   0.00000  Uiso   1.00
N181   N     0.91749   0.45608   0.57835   0.00000  Uiso   1.00
N182   N     0.80920   0.31646   0.29034   0.00000  Uiso   1.00
N183   N     0.33694   0.74392   0.09796   0.00000  Uiso   1.00
N184   N     0.82851   0.25068   0.51761   0.00000  Uiso   1.00
C185   C     0.25508   0.83955   0.86808   0.00000  Uiso   1.00
C186   C     0.27278   0.92795   0.84856   0.00000  Uiso   1.00
C187   C     0.33723   0.88785   0.86597   0.00000  Uiso   1.00
C188   C     0.34283   0.98371   0.84319   0.00000  Uiso   1.00
C189   C     0.37893   0.10098   0.81875   0.00000  Uiso   1.00
C190   C     0.14262   0.81013   0.79553   0.00000  Uiso   1.00
C191   C     0.09763   0.67098   0.76836   0.00000  Uiso   1.00
C192   C     0.99365   0.66767   0.70094   0.00000  Uiso   1.00
C193   C     0.82768   0.60204   0.59420   0.00000  Uiso   1.00
C194   C     0.27811   0.94608   0.91119   0.00000  Uiso   1.00
C195   C     0.34702   0.92122   0.98126   0.00000  Uiso   1.00
C196   C     0.35710   0.03235   0.01121   0.00000  Uiso   1.00
C197   C     0.40149   0.17779   0.08405   0.00000  Uiso   1.00
C198   C     0.15043   0.08109   0.79665   0.00000  Uiso   1.00
C199   C     0.21594   0.05915   0.80976   0.00000  Uiso   1.00
C200   C     0.22145   0.15510   0.78694   0.00000  Uiso   1.00
C201   C     0.28589   0.11515   0.80432   0.00000  Uiso   1.00
C202   C     0.08578   0.94133   0.75673   0.00000  Uiso   1.00
C203   C     0.98185   0.93822   0.68933   0.00000  Uiso   1.00
C204   C     0.93671   0.79910   0.66207   0.00000  Uiso   1.00
C205   C     0.22127   0.07728   0.87239   0.00000  Uiso   1.00
C206   C     0.23124   0.18847   0.90223   0.00000  Uiso   1.00
C207   C     0.30016   0.16378   0.97234   0.00000  Uiso   1.00
H208   H     0.29932   0.73740   0.89828   0.00000  Uiso   1.00
H209   H     0.38119   0.78630   0.89599   0.00000  Uiso   1.00
H210   H     0.14163   0.56947   0.79840   0.00000  Uiso   1.00
H211   H     0.39099   0.81967   0.01127   0.00000  Uiso   1.00
H212   H     0.44687   0.89835   0.87632   0.00000  Uiso   1.00
H213   H     0.94174   0.44115   0.67056   0.00000  Uiso   1.00
H214   H     0.46756   0.96875   0.11944   0.00000  Uiso   1.00
H215   H     0.10617   0.18324   0.76644   0.00000  Uiso   1.00
H216   H     0.17745   0.25662   0.75692   0.00000  Uiso   1.00
H217   H     0.93789   0.03978   0.65933   0.00000  Uiso   1.00
H218   H     0.18724   0.28998   0.87219   0.00000  Uiso   1.00
H219   H     0.28150   0.28007   0.76344   0.00000  Uiso   1.00
H220   H     0.77637   0.82287   0.55768   0.00000  Uiso   1.00
H221   H     0.30219   0.35047   0.00655   0.00000  Uiso   1.00
O222   O     0.41453   0.12941   0.81598   0.00000  Uiso   1.00
O223   O     0.75183   0.52958   0.54604   0.00000  Uiso   1.00
O224   O     0.44169   0.22178   0.13495   0.00000  Uiso   1.00
N225   N     0.39818   0.97814   0.85108   0.00000  Uiso   1.00
N226   N     0.92592   0.55068   0.65870   0.00000  Uiso   1.00
N227   N     0.41749   0.04392   0.07835   0.00000  Uiso   1.00
N228   N     0.30920   0.18354   0.79034   0.00000  Uiso   1.00
N229   N     0.83694   0.75608   0.59796   0.00000  Uiso   1.00
N230   N     0.32851   0.24932   0.01761   0.00000  Uiso   1.00
C231   C     0.75508   0.33955   0.86808   0.00000  Uiso   1.00
C232   C     0.77278   0.42795   0.84856   0.00000  Uiso   1.00
C233   C     0.83723   0.38785   0.86597   0.00000  Uiso   1.00
C234   C     0.84283   0.48371   0.84319   0.00000  Uiso   1.00
C235   C     0.87893   0.60098   0.81875   0.00000  Uiso   1.00
C236   C     0.64262   0.31013   0.79553   0.00000  Uiso   1.00
C237   C     0.59763   0.17098   0.76836   0.00000  Uiso   1.00
C238   C     0.49365   0.16767   0.70094   0.00000  Uiso   1.00
C239   C     0.32768   0.10204   0.59420   0.00000  Uiso   1.00
C240   C     0.77811   0.44608   0.91119   0.00000  Uiso   1.00
C241   C     0.84702   0.42122   0.98126   0.00000  Uiso   1.00
C242   C     0.85710   0.53235   0.01121   0.00000  Uiso   1.00
C243   C     0.90149   0.67779   0.08405   0.00000  Uiso   1.00
C244   C     0.65043   0.58109   0.79665   0.00000  Uiso   1.00
C245   C     0.71594   0.55915   0.80976   0.00000  Uiso   1.00
C246   C     0.72145   0.65510   0.78694   0.00000  Uiso   1.00
C247   C     0.78589   0.61515   0.80432   0.00000  Uiso   1.00
C248   C     0.58578   0.44133   0.75673   0.00000  Uiso   1.00
C249   C     0.48185   0.43822   0.68933   0.00000  Uiso   1.00
C250   C     0.43671   0.29910   0.66207   0.00000  Uiso   1.00
C251   C     0.72127   0.57728   0.87239   0.00000  Uiso   1.00
C252   C     0.73124   0.68847   0.90223   0.00000  Uiso   1.00
C253   C     0.80016   0.66378   0.97234   0.00000  Uiso   1.00
H254   H     0.79932   0.23740   0.89828   0.00000  Uiso   1.00
H255   H     0.88119   0.28630   0.89599   0.00000  Uiso   1.00
H256   H     0.64163   0.06947   0.79840   0.00000  Uiso   1.00
H257   H     0.89099   0.31967   0.01127   0.00000  Uiso   1.00
H258   H     0.94687   0.39835   0.87632   0.00000  Uiso   1.00
H259   H     0.44174   0.94115   0.67056   0.00000  Uiso   1.00
H260   H     0.96756   0.46875   0.11944   0.00000  Uiso   1.00
H261   H     0.60617   0.68324   0.76644   0.00000  Uiso   1.00
H262   H     0.67745   0.75662   0.75692   0.00000  Uiso   1.00
H263   H     0.43789   0.53978   0.65933   0.00000  Uiso   1.00
H264   H     0.68724   0.78998   0.87219   0.00000  Uiso   1.00
H265   H     0.78150   0.78007   0.76344   0.00000  Uiso   1.00
H266   H     0.27637   0.32287   0.55768   0.00000  Uiso   1.00
H267   H     0.80219   0.85047   0.00655   0.00000  Uiso   1.00
O268   O     0.91453   0.62941   0.81598   0.00000  Uiso   1.00
O269   O     0.25183   0.02958   0.54604   0.00000  Uiso   1.00
O270   O     0.94169   0.72178   0.13495   0.00000  Uiso   1.00
N271   N     0.89818   0.47814   0.85108   0.00000  Uiso   1.00
N272   N     0.42592   0.05068   0.65870   0.00000  Uiso   1.00
N273   N     0.91749   0.54392   0.07835   0.00000  Uiso   1.00
N274   N     0.80920   0.68354   0.79034   0.00000  Uiso   1.00
N275   N     0.33694   0.25608   0.59796   0.00000  Uiso   1.00
N276   N     0.82851   0.74932   0.01761   0.00000  Uiso   1.00
C277   C     0.74492   0.83955   0.63192   0.00000  Uiso   1.00
C278   C     0.72722   0.92795   0.65144   0.00000  Uiso   1.00
C279   C     0.66277   0.88785   0.63403   0.00000  Uiso   1.00
C280   C     0.65717   0.98371   0.65681   0.00000  Uiso   1.00
C281   C     0.62107   0.10098   0.68125   0.00000  Uiso   1.00
C282   C     0.85738   0.81013   0.70447   0.00000  Uiso   1.00
C283   C     0.90237   0.67098   0.73164   0.00000  Uiso   1.00
C284   C     0.00635   0.66767   0.79906   0.00000  Uiso   1.00
C285   C     0.17232   0.60204   0.90580   0.00000  Uiso   1.00
C286   C     0.72189   0.94608   0.58881   0.00000  Uiso   1.00
C287   C     0.65298   0.92122   0.51874   0.00000  Uiso   1.00
C288   C     0.64290   0.03235   0.48879   0.00000  Uiso   1.00
C289   C     0.59851   0.17779   0.41595   0.00000  Uiso   1.00
C290   C     0.84957   0.08109   0.70335   0.00000  Uiso   1.00
C291   C     0.78406   0.05915   0.69024   0.00000  Uiso   1.00
C292   C     0.77855   0.15510   0.71306   0.00000  Uiso   1.00
C293   C     0.71411   0.11515   0.69568   0.00000  Uiso   1.00
C294   C     0.91422   0.94133   0.74327   0.00000  Uiso   1.00
C295   C     0.01815   0.93822   0.81067   0.00000  Uiso   1.00
C296   C     0.06329   0.79910   0.83793   0.00000  Uiso   1.00
C297   C     0.77873   0.07728   0.62761   0.00000  Uiso   1.00
C298   C     0.76876   0.18847   0.59777   0.00000  Uiso   1.00
C299   C     0.69984   0.16378   0.52766   0.00000  Uiso   1.00
H300   H     0.70068   0.73740   0.60172   0.00000  Uiso   1.00
H301   H     0.61881   0.78630   0.60401   0.00000  Uiso   1.00
H302   H     0.85837   0.56947   0.70160   0.00000  Uiso   1.00
H303   H     0.60901   0.81967   0.48873   0.00000  Uiso   1.00
H304   H     0.55313   0.89835   0.62368   0.00000  Uiso   1.00
H305   H     0.05826   0.44115   0.82944   0.00000  Uiso   1.00
H306   H     0.53244   0.96875   0.38056   0.00000  Uiso   1.00
H307   H     0.89383   0.18324   0.73356   0.00000  Uiso   1.00
H308   H     0.82255   0.25662   0.74308   0.00000  Uiso   1.00
H309   H     0.06211   0.03978   0.84067   0.00000  Uiso   1.00
H310   H     0.81276   0.28998   0.62781   0.00000  Uiso   1.00
H311   H     0.71850   0.28007   0.73656   0.00000  Uiso   1.00
H312   H     0.22363   0.82287   0.94232   0.00000  Uiso   1.00
H313   H     0.69781   0.35047   0.49345   0.00000  Uiso   1.00
O314   O     0.58547   0.12941   0.68402   0.00000  Uiso   1.00
O315   O     0.24817   0.52958   0.95396   0.00000  Uiso   1.00
O316   O     0.55831   0.22178   0.36505   0.00000  Uiso   1.00
N317   N     0.60182   0.97814   0.64892   0.00000  Uiso   1.00
N318   N     0.07408   0.55068   0.84130   0.00000  Uiso   1.00
N319   N     0.58251   0.04392   0.42165   0.00000  Uiso   1.00
N320   N     0.69080   0.18354   0.70966   0.00000  Uiso   1.00
N321   N     0.16306   0.75608   0.90204   0.00000  Uiso   1.00
N322   N     0.67149   0.24932   0.48239   0.00000  Uiso   1.00
C323   C     0.24492   0.33955   0.63192   0.00000  Uiso   1.00
C324   C     0.22722   0.42795   0.65144   0.00000  Uiso   1.00
C325   C     0.16277   0.38785   0.63403   0.00000  Uiso   1.00
C326   C     0.15717   0.48371   0.65681   0.00000  Uiso   1.00
C327   C     0.12107   0.60098   0.68125   0.00000  Uiso   1.00
C328   C     0.35738   0.31013   0.70447   0.00000  Uiso   1.00
C329   C     0.40237   0.17098   0.73164   0.00000  Uiso   1.00
C330   C     0.50635   0.16767   0.79906   0.00000  Uiso   1.00
C331   C     0.67232   0.10204   0.90580   0.00000  Uiso   1.00
C332   C     0.22189   0.44608   0.58881   0.00000  Uiso   1.00
C333   C     0.15298   0.42122   0.51874   0.00000  Uiso   1.00
C334   C     0.14290   0.53235   0.48879   0.00000  Uiso   1.00
C335   C     0.09851   0.67779   0.41595   0.00000  Uiso   1.00
C336   C     0.34957   0.58109   0.70335   0.00000  Uiso   1.00
C337   C     0.28406   0.55915   0.69024   0.00000  Uiso   1.00
C338   C     0.27855   0.65510   0.71306   0.00000  Uiso   1.00
C339   C     0.21411   0.61515   0.69568   0.00000  Uiso   1.00
C340   C     0.41422   0.44133   0.74327   0.00000  Uiso   1.00
C341   C     0.51815   0.43822   0.81067   0.00000  Uiso   1.00
C342   C     0.56329   0.29910   0.83793   0.00000  Uiso   1.00
C343   C     0.27873   0.57728   0.62761   0.00000  Uiso   1.00
C344   C     0.26876   0.68847   0.59777   0.00000  Uiso   1.00
C345   C     0.19984   0.66378   0.52766   0.00000  Uiso   1.00
H346   H     0.20068   0.23740   0.60172   0.00000  Uiso   1.00
H347   H     0.11881   0.28630   0.60401   0.00000  Uiso   1.00
H348   H     0.35837   0.06947   0.70160   0.00000  Uiso   1.00
H349   H     0.10901   0.31967   0.48873   0.00000  Uiso   1.00
H350   H     0.05313   0.39835   0.62368   0.00000  Uiso   1.00
H351   H     0.55826   0.94115   0.82944   0.00000  Uiso   1.00
H352   H     0.03244   0.46875   0.38056   0.00000  Uiso   1.00
H353   H     0.39383   0.68324   0.73356   0.00000  Uiso   1.00
H354   H     0.32255   0.75662   0.74308   0.00000  Uiso   1.00
H355   H     0.56211   0.53978   0.84067   0.00000  Uiso   1.00
H356   H     0.31276   0.78998   0.62781   0.00000  Uiso   1.00
H357   H     0.21850   0.78007   0.73656   0.00000  Uiso   1.00
H358   H     0.72363   0.32287   0.94232   0.00000  Uiso   1.00
H359   H     0.19781   0.85047   0.49345   0.00000  Uiso   1.00
O360   O     0.08547   0.62941   0.68402   0.00000  Uiso   1.00
O361   O     0.74817   0.02958   0.95396   0.00000  Uiso   1.00
O362   O     0.05831   0.72178   0.36505   0.00000  Uiso   1.00
N363   N     0.10182   0.47814   0.64892   0.00000  Uiso   1.00
N364   N     0.57408   0.05068   0.84130   0.00000  Uiso   1.00
N365   N     0.08251   0.54392   0.42165   0.00000  Uiso   1.00
N366   N     0.19080   0.68354   0.70966   0.00000  Uiso   1.00
N367   N     0.66306   0.25608   0.90204   0.00000  Uiso   1.00
N368   N     0.17149   0.74932   0.48239   0.00000  Uiso   1.00
