data_job_03483
_audit_creation_date              2018-12-19
_audit_creation_method            'Materials Studio'
_symmetry_space_group_name_H-M    'P1'
_symmetry_Int_Tables_number       1
_symmetry_cell_setting            triclinic
loop_
_symmetry_equiv_pos_as_xyz
  x,y,z
_cell_length_a                    28.1071
_cell_length_b                    28.1071
_cell_length_c                    8.1747
_cell_angle_alpha                 90.0000
_cell_angle_beta                  90.0000
_cell_angle_gamma                 120.0000
loop_
_atom_site_label
_atom_site_type_symbol
_atom_site_fract_x
_atom_site_fract_y
_atom_site_fract_z
_atom_site_U_iso_or_equiv
_atom_site_adp_type
_atom_site_occupancy
C1     C     0.91326   0.22720   0.08011   0.00000  Uiso   1.00
C2     C     0.87076   0.18728   0.95901   0.00000  Uiso   1.00
C3     C     0.81467   0.15581   0.98703   0.00000  Uiso   1.00
C4     C     0.78272   0.12180   0.86075   0.00000  Uiso   1.00
C5     C     0.71319   0.06015   0.69539   0.00000  Uiso   1.00
C6     C     0.95550   0.20870   0.10030   0.00000  Uiso   1.00
C7     C     0.97067   0.19524   0.24711   0.00000  Uiso   1.00
C8     C     0.01005   0.17927   0.23976   0.00000  Uiso   1.00
C9     C     0.07211   0.15092   0.29376   0.00000  Uiso   1.00
C10    C     0.94296   0.28258   0.99320   0.00000  Uiso   1.00
C11    C     0.94760   0.33126   0.04999   0.00000  Uiso   1.00
C12    C     0.97644   0.37749   0.95248   0.00000  Uiso   1.00
C13    C     0.01903   0.46386   0.84020   0.00000  Uiso   1.00
C14    C     0.95625   0.22276   0.80601   0.00000  Uiso   1.00
C15    C     0.89412   0.18487   0.81013   0.00000  Uiso   1.00
C16    C     0.86224   0.15090   0.68377   0.00000  Uiso   1.00
C17    C     0.80611   0.11938   0.71160   0.00000  Uiso   1.00
C18    C     0.97886   0.20628   0.95142   0.00000  Uiso   1.00
C19    C     0.01823   0.19033   0.94385   0.00000  Uiso   1.00
C20    C     0.03345   0.17685   0.09061   0.00000  Uiso   1.00
C21    C     0.96632   0.28017   0.84431   0.00000  Uiso   1.00
C22    C     0.99516   0.32634   0.74671   0.00000  Uiso   1.00
C23    C     0.99984   0.37508   0.80333   0.00000  Uiso   1.00
H24    H     0.89508   0.22908   0.19603   0.00000  Uiso   1.00
H25    H     0.79662   0.15768   0.10228   0.00000  Uiso   1.00
H26    H     0.95259   0.19712   0.36231   0.00000  Uiso   1.00
H27    H     0.92952   0.33311   0.16520   0.00000  Uiso   1.00
H28    H     0.69776   0.07745   0.93269   0.00000  Uiso   1.00
H29    H     0.02665   0.16062   0.48100   0.00000  Uiso   1.00
H30    H     0.97801   0.44738   0.06537   0.00000  Uiso   1.00
H31    H     0.97444   0.22088   0.69009   0.00000  Uiso   1.00
H32    H     0.88033   0.14904   0.56857   0.00000  Uiso   1.00
H33    H     0.03630   0.18847   0.82861   0.00000  Uiso   1.00
H34    H     0.01323   0.32446   0.63151   0.00000  Uiso   1.00
H35    H     0.76570   0.07043   0.49952   0.00000  Uiso   1.00
H36    H     0.09459   0.15360   0.04783   0.00000  Uiso   1.00
H37    H     0.04595   0.44036   0.63220   0.00000  Uiso   1.00
O38    O     0.66839   0.02681   0.64531   0.00000  Uiso   1.00
O39    O     0.09989   0.13594   0.36467   0.00000  Uiso   1.00
O40    O     0.03607   0.51216   0.81938   0.00000  Uiso   1.00
N41    N     0.72666   0.08567   0.84741   0.00000  Uiso   1.00
N42    N     0.03415   0.16342   0.36004   0.00000  Uiso   1.00
N43    N     0.98868   0.43152   0.97149   0.00000  Uiso   1.00
N44    N     0.76322   0.08189   0.61432   0.00000  Uiso   1.00
N45    N     0.07071   0.15964   0.12696   0.00000  Uiso   1.00
N46    N     0.02524   0.42774   0.73840   0.00000  Uiso   1.00
C47    C     0.77280   0.68606   0.08011   0.00000  Uiso   1.00
C48    C     0.81272   0.68349   0.95901   0.00000  Uiso   1.00
C49    C     0.84419   0.65886   0.98703   0.00000  Uiso   1.00
C50    C     0.87820   0.66092   0.86075   0.00000  Uiso   1.00
C51    C     0.93985   0.65304   0.69539   0.00000  Uiso   1.00
C52    C     0.79130   0.74681   0.10030   0.00000  Uiso   1.00
C53    C     0.80476   0.77542   0.24711   0.00000  Uiso   1.00
C54    C     0.82073   0.83078   0.23976   0.00000  Uiso   1.00
C55    C     0.84908   0.92120   0.29376   0.00000  Uiso   1.00
C56    C     0.71742   0.66038   0.99320   0.00000  Uiso   1.00
C57    C     0.66874   0.61634   0.04999   0.00000  Uiso   1.00
C58    C     0.62251   0.59895   0.95248   0.00000  Uiso   1.00
C59    C     0.53614   0.55518   0.84020   0.00000  Uiso   1.00
C60    C     0.77724   0.73349   0.80601   0.00000  Uiso   1.00
C61    C     0.81513   0.70925   0.81013   0.00000  Uiso   1.00
C62    C     0.84910   0.71135   0.68377   0.00000  Uiso   1.00
C63    C     0.88062   0.68673   0.71160   0.00000  Uiso   1.00
C64    C     0.79372   0.77257   0.95142   0.00000  Uiso   1.00
C65    C     0.80967   0.82790   0.94385   0.00000  Uiso   1.00
C66    C     0.82315   0.85659   0.09061   0.00000  Uiso   1.00
C67    C     0.71983   0.68615   0.84431   0.00000  Uiso   1.00
C68    C     0.67366   0.66882   0.74671   0.00000  Uiso   1.00
C69    C     0.62492   0.62476   0.80333   0.00000  Uiso   1.00
H70    H     0.77092   0.66600   0.19603   0.00000  Uiso   1.00
H71    H     0.84232   0.63893   0.10228   0.00000  Uiso   1.00
H72    H     0.80288   0.75547   0.36231   0.00000  Uiso   1.00
H73    H     0.66689   0.59642   0.16520   0.00000  Uiso   1.00
H74    H     0.92255   0.62031   0.93269   0.00000  Uiso   1.00
H75    H     0.83938   0.86603   0.48100   0.00000  Uiso   1.00
H76    H     0.55262   0.53063   0.06537   0.00000  Uiso   1.00
H77    H     0.77912   0.75355   0.69009   0.00000  Uiso   1.00
H78    H     0.85096   0.73129   0.56857   0.00000  Uiso   1.00
H79    H     0.81153   0.84783   0.82861   0.00000  Uiso   1.00
H80    H     0.67554   0.68877   0.63151   0.00000  Uiso   1.00
H81    H     0.92957   0.69527   0.49952   0.00000  Uiso   1.00
H82    H     0.84640   0.94099   0.04783   0.00000  Uiso   1.00
H83    H     0.55964   0.60559   0.63220   0.00000  Uiso   1.00
O84    O     0.97319   0.64158   0.64531   0.00000  Uiso   1.00
O85    O     0.86406   0.96395   0.36467   0.00000  Uiso   1.00
O86    O     0.48784   0.52391   0.81938   0.00000  Uiso   1.00
N87    N     0.91433   0.64099   0.84741   0.00000  Uiso   1.00
N88    N     0.83658   0.87073   0.36004   0.00000  Uiso   1.00
N89    N     0.56848   0.55717   0.97149   0.00000  Uiso   1.00
N90    N     0.91811   0.68133   0.61432   0.00000  Uiso   1.00
N91    N     0.84036   0.91107   0.12696   0.00000  Uiso   1.00
N92    N     0.57226   0.59750   0.73840   0.00000  Uiso   1.00
C93    C     0.31394   0.08674   0.08011   0.00000  Uiso   1.00
C94    C     0.31651   0.12924   0.95901   0.00000  Uiso   1.00
C95    C     0.34114   0.18533   0.98703   0.00000  Uiso   1.00
C96    C     0.33908   0.21728   0.86075   0.00000  Uiso   1.00
C97    C     0.34696   0.28681   0.69539   0.00000  Uiso   1.00
C98    C     0.25319   0.04450   0.10030   0.00000  Uiso   1.00
C99    C     0.22458   0.02933   0.24711   0.00000  Uiso   1.00
C100   C     0.16922   0.98995   0.23976   0.00000  Uiso   1.00
C101   C     0.07880   0.92789   0.29376   0.00000  Uiso   1.00
C102   C     0.33962   0.05704   0.99320   0.00000  Uiso   1.00
C103   C     0.38366   0.05240   0.04999   0.00000  Uiso   1.00
C104   C     0.40105   0.02356   0.95248   0.00000  Uiso   1.00
C105   C     0.44482   0.98097   0.84020   0.00000  Uiso   1.00
C106   C     0.26651   0.04375   0.80601   0.00000  Uiso   1.00
C107   C     0.29075   0.10588   0.81013   0.00000  Uiso   1.00
C108   C     0.28865   0.13776   0.68377   0.00000  Uiso   1.00
C109   C     0.31327   0.19389   0.71160   0.00000  Uiso   1.00
C110   C     0.22743   0.02114   0.95142   0.00000  Uiso   1.00
C111   C     0.17210   0.98177   0.94385   0.00000  Uiso   1.00
C112   C     0.14341   0.96655   0.09061   0.00000  Uiso   1.00
C113   C     0.31385   0.03368   0.84431   0.00000  Uiso   1.00
C114   C     0.33118   0.00484   0.74671   0.00000  Uiso   1.00
C115   C     0.37524   0.00016   0.80333   0.00000  Uiso   1.00
H116   H     0.33400   0.10492   0.19603   0.00000  Uiso   1.00
H117   H     0.36107   0.20338   0.10228   0.00000  Uiso   1.00
H118   H     0.24453   0.04741   0.36231   0.00000  Uiso   1.00
H119   H     0.40358   0.07048   0.16520   0.00000  Uiso   1.00
H120   H     0.37969   0.30224   0.93269   0.00000  Uiso   1.00
H121   H     0.13397   0.97335   0.48100   0.00000  Uiso   1.00
H122   H     0.46937   0.02199   0.06537   0.00000  Uiso   1.00
H123   H     0.24645   0.02556   0.69009   0.00000  Uiso   1.00
H124   H     0.26871   0.11967   0.56857   0.00000  Uiso   1.00
H125   H     0.15217   0.96370   0.82861   0.00000  Uiso   1.00
H126   H     0.31123   0.98677   0.63151   0.00000  Uiso   1.00
H127   H     0.30473   0.23430   0.49952   0.00000  Uiso   1.00
H128   H     0.05901   0.90541   0.04783   0.00000  Uiso   1.00
H129   H     0.39441   0.95405   0.63220   0.00000  Uiso   1.00
O130   O     0.35842   0.33161   0.64531   0.00000  Uiso   1.00
O131   O     0.03605   0.90011   0.36467   0.00000  Uiso   1.00
O132   O     0.47609   0.96393   0.81938   0.00000  Uiso   1.00
N133   N     0.35901   0.27334   0.84741   0.00000  Uiso   1.00
N134   N     0.12927   0.96585   0.36004   0.00000  Uiso   1.00
N135   N     0.44283   0.01132   0.97149   0.00000  Uiso   1.00
N136   N     0.31867   0.23678   0.61432   0.00000  Uiso   1.00
N137   N     0.08893   0.92929   0.12696   0.00000  Uiso   1.00
N138   N     0.40250   0.97476   0.73840   0.00000  Uiso   1.00
C139   C     0.08674   0.77280   0.91989   0.00000  Uiso   1.00
C140   C     0.12924   0.81272   0.04099   0.00000  Uiso   1.00
C141   C     0.18533   0.84419   0.01297   0.00000  Uiso   1.00
C142   C     0.21728   0.87820   0.13925   0.00000  Uiso   1.00
C143   C     0.28681   0.93985   0.30461   0.00000  Uiso   1.00
C144   C     0.04450   0.79130   0.89970   0.00000  Uiso   1.00
C145   C     0.02933   0.80476   0.75289   0.00000  Uiso   1.00
C146   C     0.98995   0.82073   0.76024   0.00000  Uiso   1.00
C147   C     0.92789   0.84908   0.70624   0.00000  Uiso   1.00
C148   C     0.05704   0.71742   0.00680   0.00000  Uiso   1.00
C149   C     0.05240   0.66874   0.95001   0.00000  Uiso   1.00
C150   C     0.02356   0.62251   0.04752   0.00000  Uiso   1.00
C151   C     0.98097   0.53614   0.15980   0.00000  Uiso   1.00
C152   C     0.04375   0.77724   0.19399   0.00000  Uiso   1.00
C153   C     0.10588   0.81513   0.18987   0.00000  Uiso   1.00
C154   C     0.13776   0.84910   0.31623   0.00000  Uiso   1.00
C155   C     0.19389   0.88062   0.28840   0.00000  Uiso   1.00
C156   C     0.02114   0.79372   0.04858   0.00000  Uiso   1.00
C157   C     0.98177   0.80967   0.05615   0.00000  Uiso   1.00
C158   C     0.96655   0.82315   0.90939   0.00000  Uiso   1.00
C159   C     0.03368   0.71983   0.15569   0.00000  Uiso   1.00
C160   C     0.00484   0.67366   0.25329   0.00000  Uiso   1.00
C161   C     0.00016   0.62492   0.19667   0.00000  Uiso   1.00
H162   H     0.10492   0.77092   0.80397   0.00000  Uiso   1.00
H163   H     0.20338   0.84232   0.89772   0.00000  Uiso   1.00
H164   H     0.04741   0.80288   0.63769   0.00000  Uiso   1.00
H165   H     0.07048   0.66689   0.83480   0.00000  Uiso   1.00
H166   H     0.30224   0.92255   0.06731   0.00000  Uiso   1.00
H167   H     0.97335   0.83938   0.51900   0.00000  Uiso   1.00
H168   H     0.02199   0.55262   0.93463   0.00000  Uiso   1.00
H169   H     0.02556   0.77912   0.30991   0.00000  Uiso   1.00
H170   H     0.11967   0.85096   0.43143   0.00000  Uiso   1.00
H171   H     0.96370   0.81153   0.17139   0.00000  Uiso   1.00
H172   H     0.98677   0.67554   0.36849   0.00000  Uiso   1.00
H173   H     0.23430   0.92957   0.50048   0.00000  Uiso   1.00
H174   H     0.90541   0.84640   0.95217   0.00000  Uiso   1.00
H175   H     0.95405   0.55964   0.36780   0.00000  Uiso   1.00
O176   O     0.33161   0.97319   0.35469   0.00000  Uiso   1.00
O177   O     0.90011   0.86406   0.63533   0.00000  Uiso   1.00
O178   O     0.96393   0.48784   0.18062   0.00000  Uiso   1.00
N179   N     0.27334   0.91433   0.15259   0.00000  Uiso   1.00
N180   N     0.96585   0.83658   0.63996   0.00000  Uiso   1.00
N181   N     0.01132   0.56848   0.02851   0.00000  Uiso   1.00
N182   N     0.23678   0.91811   0.38568   0.00000  Uiso   1.00
N183   N     0.92929   0.84036   0.87304   0.00000  Uiso   1.00
N184   N     0.97476   0.57226   0.26160   0.00000  Uiso   1.00
C185   C     0.22720   0.31394   0.91989   0.00000  Uiso   1.00
C186   C     0.18728   0.31651   0.04099   0.00000  Uiso   1.00
C187   C     0.15581   0.34114   0.01297   0.00000  Uiso   1.00
C188   C     0.12180   0.33908   0.13925   0.00000  Uiso   1.00
C189   C     0.06015   0.34696   0.30461   0.00000  Uiso   1.00
C190   C     0.20870   0.25319   0.89970   0.00000  Uiso   1.00
C191   C     0.19524   0.22458   0.75289   0.00000  Uiso   1.00
C192   C     0.17927   0.16922   0.76024   0.00000  Uiso   1.00
C193   C     0.15092   0.07880   0.70624   0.00000  Uiso   1.00
C194   C     0.28258   0.33962   0.00680   0.00000  Uiso   1.00
C195   C     0.33126   0.38366   0.95001   0.00000  Uiso   1.00
C196   C     0.37749   0.40105   0.04752   0.00000  Uiso   1.00
C197   C     0.46386   0.44482   0.15980   0.00000  Uiso   1.00
C198   C     0.22276   0.26651   0.19399   0.00000  Uiso   1.00
C199   C     0.18487   0.29075   0.18987   0.00000  Uiso   1.00
C200   C     0.15090   0.28865   0.31623   0.00000  Uiso   1.00
C201   C     0.11938   0.31327   0.28840   0.00000  Uiso   1.00
C202   C     0.20628   0.22743   0.04858   0.00000  Uiso   1.00
C203   C     0.19033   0.17210   0.05615   0.00000  Uiso   1.00
C204   C     0.17685   0.14341   0.90939   0.00000  Uiso   1.00
C205   C     0.28017   0.31385   0.15569   0.00000  Uiso   1.00
C206   C     0.32634   0.33118   0.25329   0.00000  Uiso   1.00
C207   C     0.37508   0.37524   0.19667   0.00000  Uiso   1.00
H208   H     0.22908   0.33400   0.80397   0.00000  Uiso   1.00
H209   H     0.15768   0.36107   0.89772   0.00000  Uiso   1.00
H210   H     0.19712   0.24453   0.63769   0.00000  Uiso   1.00
H211   H     0.33311   0.40358   0.83480   0.00000  Uiso   1.00
H212   H     0.07745   0.37969   0.06731   0.00000  Uiso   1.00
H213   H     0.16062   0.13397   0.51900   0.00000  Uiso   1.00
H214   H     0.44738   0.46937   0.93463   0.00000  Uiso   1.00
H215   H     0.22088   0.24645   0.30991   0.00000  Uiso   1.00
H216   H     0.14904   0.26871   0.43143   0.00000  Uiso   1.00
H217   H     0.18847   0.15217   0.17139   0.00000  Uiso   1.00
H218   H     0.32446   0.31123   0.36849   0.00000  Uiso   1.00
H219   H     0.07043   0.30473   0.50048   0.00000  Uiso   1.00
H220   H     0.15360   0.05901   0.95217   0.00000  Uiso   1.00
H221   H     0.44036   0.39441   0.36780   0.00000  Uiso   1.00
O222   O     0.02681   0.35842   0.35469   0.00000  Uiso   1.00
O223   O     0.13594   0.03605   0.63533   0.00000  Uiso   1.00
O224   O     0.51216   0.47609   0.18062   0.00000  Uiso   1.00
N225   N     0.08567   0.35901   0.15259   0.00000  Uiso   1.00
N226   N     0.16342   0.12927   0.63996   0.00000  Uiso   1.00
N227   N     0.43152   0.44283   0.02851   0.00000  Uiso   1.00
N228   N     0.08189   0.31867   0.38568   0.00000  Uiso   1.00
N229   N     0.15964   0.08893   0.87304   0.00000  Uiso   1.00
N230   N     0.42774   0.40250   0.26160   0.00000  Uiso   1.00
C231   C     0.68606   0.91326   0.91989   0.00000  Uiso   1.00
C232   C     0.68349   0.87076   0.04099   0.00000  Uiso   1.00
C233   C     0.65886   0.81467   0.01297   0.00000  Uiso   1.00
C234   C     0.66092   0.78272   0.13925   0.00000  Uiso   1.00
C235   C     0.65304   0.71319   0.30461   0.00000  Uiso   1.00
C236   C     0.74681   0.95550   0.89970   0.00000  Uiso   1.00
C237   C     0.77542   0.97067   0.75289   0.00000  Uiso   1.00
C238   C     0.83078   0.01005   0.76024   0.00000  Uiso   1.00
C239   C     0.92120   0.07211   0.70624   0.00000  Uiso   1.00
C240   C     0.66038   0.94296   0.00680   0.00000  Uiso   1.00
C241   C     0.61634   0.94760   0.95001   0.00000  Uiso   1.00
C242   C     0.59895   0.97644   0.04752   0.00000  Uiso   1.00
C243   C     0.55518   0.01903   0.15980   0.00000  Uiso   1.00
C244   C     0.73349   0.95625   0.19399   0.00000  Uiso   1.00
C245   C     0.70925   0.89412   0.18987   0.00000  Uiso   1.00
C246   C     0.71135   0.86224   0.31623   0.00000  Uiso   1.00
C247   C     0.68673   0.80611   0.28840   0.00000  Uiso   1.00
C248   C     0.77257   0.97886   0.04858   0.00000  Uiso   1.00
C249   C     0.82790   0.01823   0.05615   0.00000  Uiso   1.00
C250   C     0.85659   0.03345   0.90939   0.00000  Uiso   1.00
C251   C     0.68615   0.96632   0.15569   0.00000  Uiso   1.00
C252   C     0.66882   0.99516   0.25329   0.00000  Uiso   1.00
C253   C     0.62476   0.99984   0.19667   0.00000  Uiso   1.00
H254   H     0.66600   0.89508   0.80397   0.00000  Uiso   1.00
H255   H     0.63893   0.79662   0.89772   0.00000  Uiso   1.00
H256   H     0.75547   0.95259   0.63769   0.00000  Uiso   1.00
H257   H     0.59642   0.92952   0.83480   0.00000  Uiso   1.00
H258   H     0.62031   0.69776   0.06731   0.00000  Uiso   1.00
H259   H     0.86603   0.02665   0.51900   0.00000  Uiso   1.00
H260   H     0.53063   0.97801   0.93463   0.00000  Uiso   1.00
H261   H     0.75355   0.97444   0.30991   0.00000  Uiso   1.00
H262   H     0.73129   0.88033   0.43143   0.00000  Uiso   1.00
H263   H     0.84783   0.03630   0.17139   0.00000  Uiso   1.00
H264   H     0.68877   0.01323   0.36849   0.00000  Uiso   1.00
H265   H     0.69527   0.76570   0.50048   0.00000  Uiso   1.00
H266   H     0.94099   0.09459   0.95217   0.00000  Uiso   1.00
H267   H     0.60559   0.04595   0.36780   0.00000  Uiso   1.00
O268   O     0.64158   0.66839   0.35469   0.00000  Uiso   1.00
O269   O     0.96395   0.09989   0.63533   0.00000  Uiso   1.00
O270   O     0.52391   0.03607   0.18062   0.00000  Uiso   1.00
N271   N     0.64099   0.72666   0.15259   0.00000  Uiso   1.00
N272   N     0.87073   0.03415   0.63996   0.00000  Uiso   1.00
N273   N     0.55717   0.98868   0.02851   0.00000  Uiso   1.00
N274   N     0.68133   0.76322   0.38568   0.00000  Uiso   1.00
N275   N     0.91107   0.07071   0.87304   0.00000  Uiso   1.00
N276   N     0.59750   0.02524   0.26160   0.00000  Uiso   1.00
