data_job_03776
_audit_creation_date              2018-12-19
_audit_creation_method            'Materials Studio'
_symmetry_space_group_name_H-M    'P1'
_symmetry_Int_Tables_number       1
_symmetry_cell_setting            triclinic
loop_
_symmetry_equiv_pos_as_xyz
  x,y,z
_cell_length_a                    43.4733
_cell_length_b                    8.1024
_cell_length_c                    19.3334
_cell_angle_alpha                 90.0000
_cell_angle_beta                  90.0000
_cell_angle_gamma                 90.0000
loop_
_atom_site_label
_atom_site_type_symbol
_atom_site_fract_x
_atom_site_fract_y
_atom_site_fract_z
_atom_site_U_iso_or_equiv
_atom_site_adp_type
_atom_site_occupancy
C1     C     0.36280   0.83036   0.14632   0.00000  Uiso   1.00
C2     C     0.34260   0.69466   0.11592   0.00000  Uiso   1.00
C3     C     0.31790   0.71838   0.07156   0.00000  Uiso   1.00
C4     C     0.30234   0.57831   0.04950   0.00000  Uiso   1.00
C5     C     0.26961   0.39165   0.99904   0.00000  Uiso   1.00
C6     C     0.36125   0.80922   0.22462   0.00000  Uiso   1.00
C7     C     0.35224   0.92926   0.27165   0.00000  Uiso   1.00
C8     C     0.35238   0.88563   0.34109   0.00000  Uiso   1.00
C9     C     0.34864   0.87687   0.45940   0.00000  Uiso   1.00
C10    C     0.39571   0.78782   0.12565   0.00000  Uiso   1.00
C11    C     0.41567   0.88989   0.08947   0.00000  Uiso   1.00
C12    C     0.44483   0.82825   0.07561   0.00000  Uiso   1.00
C13    C     0.49458   0.78626   0.04024   0.00000  Uiso   1.00
C14    C     0.37909   0.53943   0.18605   0.00000  Uiso   1.00
C15    C     0.35145   0.53664   0.13750   0.00000  Uiso   1.00
C16    C     0.33592   0.39650   0.11550   0.00000  Uiso   1.00
C17    C     0.31120   0.42000   0.07111   0.00000  Uiso   1.00
C18    C     0.37010   0.65121   0.24620   0.00000  Uiso   1.00
C19    C     0.37026   0.60739   0.31559   0.00000  Uiso   1.00
C20    C     0.36125   0.72732   0.36271   0.00000  Uiso   1.00
C21    C     0.40456   0.62980   0.14722   0.00000  Uiso   1.00
C22    C     0.43369   0.56800   0.13342   0.00000  Uiso   1.00
C23    C     0.45369   0.66994   0.09723   0.00000  Uiso   1.00
H24    H     0.35592   0.95338   0.12953   0.00000  Uiso   1.00
H25    H     0.31106   0.84069   0.05488   0.00000  Uiso   1.00
H26    H     0.34540   0.05154   0.25493   0.00000  Uiso   1.00
H27    H     0.40882   0.01216   0.07279   0.00000  Uiso   1.00
H28    H     0.26522   0.64606   0.98165   0.00000  Uiso   1.00
H29    H     0.33764   0.09068   0.40348   0.00000  Uiso   1.00
H30    H     0.47137   0.00764   0.01939   0.00000  Uiso   1.00
H31    H     0.38598   0.41640   0.20285   0.00000  Uiso   1.00
H32    H     0.34277   0.27423   0.13221   0.00000  Uiso   1.00
H33    H     0.37711   0.48509   0.33227   0.00000  Uiso   1.00
H34    H     0.44053   0.44571   0.15012   0.00000  Uiso   1.00
H35    H     0.29096   0.18630   0.04442   0.00000  Uiso   1.00
H36    H     0.36338   0.63093   0.46625   0.00000  Uiso   1.00
H37    H     0.49711   0.54788   0.08216   0.00000  Uiso   1.00
O38    O     0.24912   0.33235   0.96526   0.00000  Uiso   1.00
O39    O     0.34413   0.91569   0.51869   0.00000  Uiso   1.00
O40    O     0.51958   0.80674   0.01477   0.00000  Uiso   1.00
N41    N     0.27721   0.55736   0.00610   0.00000  Uiso   1.00
N42    N     0.34491   0.97305   0.40049   0.00000  Uiso   1.00
N43    N     0.46994   0.89543   0.04141   0.00000  Uiso   1.00
N44    N     0.29106   0.30997   0.03988   0.00000  Uiso   1.00
N45    N     0.35876   0.72566   0.43426   0.00000  Uiso   1.00
N46    N     0.48379   0.64804   0.07519   0.00000  Uiso   1.00
C47    C     0.13720   0.66964   0.64632   0.00000  Uiso   1.00
C48    C     0.15740   0.80534   0.61592   0.00000  Uiso   1.00
C49    C     0.18210   0.78162   0.57156   0.00000  Uiso   1.00
C50    C     0.19766   0.92169   0.54950   0.00000  Uiso   1.00
C51    C     0.23039   0.10835   0.49904   0.00000  Uiso   1.00
C52    C     0.13875   0.69078   0.72462   0.00000  Uiso   1.00
C53    C     0.14776   0.57074   0.77165   0.00000  Uiso   1.00
C54    C     0.14762   0.61437   0.84109   0.00000  Uiso   1.00
C55    C     0.15136   0.62313   0.95940   0.00000  Uiso   1.00
C56    C     0.10429   0.71218   0.62565   0.00000  Uiso   1.00
C57    C     0.08433   0.61011   0.58947   0.00000  Uiso   1.00
C58    C     0.05517   0.67175   0.57561   0.00000  Uiso   1.00
C59    C     0.00542   0.71374   0.54024   0.00000  Uiso   1.00
C60    C     0.12091   0.96057   0.68605   0.00000  Uiso   1.00
C61    C     0.14855   0.96336   0.63750   0.00000  Uiso   1.00
C62    C     0.16408   0.10350   0.61550   0.00000  Uiso   1.00
C63    C     0.18880   0.08000   0.57111   0.00000  Uiso   1.00
C64    C     0.12990   0.84879   0.74620   0.00000  Uiso   1.00
C65    C     0.12974   0.89261   0.81559   0.00000  Uiso   1.00
C66    C     0.13875   0.77268   0.86271   0.00000  Uiso   1.00
C67    C     0.09544   0.87020   0.64722   0.00000  Uiso   1.00
C68    C     0.06631   0.93200   0.63342   0.00000  Uiso   1.00
C69    C     0.04631   0.83006   0.59723   0.00000  Uiso   1.00
H70    H     0.14408   0.54662   0.62953   0.00000  Uiso   1.00
H71    H     0.18894   0.65931   0.55488   0.00000  Uiso   1.00
H72    H     0.15460   0.44846   0.75493   0.00000  Uiso   1.00
H73    H     0.09118   0.48784   0.57279   0.00000  Uiso   1.00
H74    H     0.23478   0.85394   0.48165   0.00000  Uiso   1.00
H75    H     0.16236   0.40932   0.90348   0.00000  Uiso   1.00
H76    H     0.02863   0.49236   0.51939   0.00000  Uiso   1.00
H77    H     0.11402   0.08360   0.70285   0.00000  Uiso   1.00
H78    H     0.15723   0.22577   0.63221   0.00000  Uiso   1.00
H79    H     0.12289   0.01491   0.83227   0.00000  Uiso   1.00
H80    H     0.05947   0.05429   0.65012   0.00000  Uiso   1.00
H81    H     0.20904   0.31370   0.54442   0.00000  Uiso   1.00
H82    H     0.13662   0.86907   0.96625   0.00000  Uiso   1.00
H83    H     0.00289   0.95212   0.58216   0.00000  Uiso   1.00
O84    O     0.25088   0.16765   0.46526   0.00000  Uiso   1.00
O85    O     0.15587   0.58431   0.01869   0.00000  Uiso   1.00
O86    O     0.98042   0.69326   0.51477   0.00000  Uiso   1.00
N87    N     0.22279   0.94264   0.50610   0.00000  Uiso   1.00
N88    N     0.15509   0.52695   0.90049   0.00000  Uiso   1.00
N89    N     0.03006   0.60457   0.54141   0.00000  Uiso   1.00
N90    N     0.20894   0.19003   0.53988   0.00000  Uiso   1.00
N91    N     0.14124   0.77434   0.93426   0.00000  Uiso   1.00
N92    N     0.01621   0.85196   0.57519   0.00000  Uiso   1.00
C93    C     0.63720   0.83036   0.35368   0.00000  Uiso   1.00
C94    C     0.65740   0.69466   0.38408   0.00000  Uiso   1.00
C95    C     0.68210   0.71838   0.42844   0.00000  Uiso   1.00
C96    C     0.69766   0.57831   0.45050   0.00000  Uiso   1.00
C97    C     0.73039   0.39165   0.50096   0.00000  Uiso   1.00
C98    C     0.63875   0.80922   0.27538   0.00000  Uiso   1.00
C99    C     0.64776   0.92926   0.22835   0.00000  Uiso   1.00
C100   C     0.64762   0.88563   0.15891   0.00000  Uiso   1.00
C101   C     0.65136   0.87687   0.04060   0.00000  Uiso   1.00
C102   C     0.60429   0.78782   0.37435   0.00000  Uiso   1.00
C103   C     0.58433   0.88989   0.41053   0.00000  Uiso   1.00
C104   C     0.55517   0.82825   0.42439   0.00000  Uiso   1.00
C105   C     0.50542   0.78626   0.45976   0.00000  Uiso   1.00
C106   C     0.62091   0.53943   0.31395   0.00000  Uiso   1.00
C107   C     0.64855   0.53664   0.36250   0.00000  Uiso   1.00
C108   C     0.66408   0.39650   0.38450   0.00000  Uiso   1.00
C109   C     0.68880   0.42000   0.42889   0.00000  Uiso   1.00
C110   C     0.62990   0.65121   0.25380   0.00000  Uiso   1.00
C111   C     0.62974   0.60739   0.18441   0.00000  Uiso   1.00
C112   C     0.63875   0.72732   0.13729   0.00000  Uiso   1.00
C113   C     0.59544   0.62980   0.35278   0.00000  Uiso   1.00
C114   C     0.56631   0.56800   0.36658   0.00000  Uiso   1.00
C115   C     0.54631   0.66994   0.40277   0.00000  Uiso   1.00
H116   H     0.64408   0.95338   0.37047   0.00000  Uiso   1.00
H117   H     0.68894   0.84069   0.44512   0.00000  Uiso   1.00
H118   H     0.65460   0.05154   0.24507   0.00000  Uiso   1.00
H119   H     0.59118   0.01216   0.42721   0.00000  Uiso   1.00
H120   H     0.73478   0.64606   0.51835   0.00000  Uiso   1.00
H121   H     0.66236   0.09068   0.09652   0.00000  Uiso   1.00
H122   H     0.52863   0.00764   0.48061   0.00000  Uiso   1.00
H123   H     0.61402   0.41640   0.29715   0.00000  Uiso   1.00
H124   H     0.65723   0.27423   0.36779   0.00000  Uiso   1.00
H125   H     0.62289   0.48509   0.16773   0.00000  Uiso   1.00
H126   H     0.55947   0.44571   0.34988   0.00000  Uiso   1.00
H127   H     0.70904   0.18630   0.45558   0.00000  Uiso   1.00
H128   H     0.63662   0.63093   0.03375   0.00000  Uiso   1.00
H129   H     0.50289   0.54788   0.41784   0.00000  Uiso   1.00
O130   O     0.75088   0.33235   0.53474   0.00000  Uiso   1.00
O131   O     0.65587   0.91569   0.98131   0.00000  Uiso   1.00
O132   O     0.48042   0.80674   0.48523   0.00000  Uiso   1.00
N133   N     0.72279   0.55736   0.49390   0.00000  Uiso   1.00
N134   N     0.65509   0.97305   0.09951   0.00000  Uiso   1.00
N135   N     0.53006   0.89543   0.45859   0.00000  Uiso   1.00
N136   N     0.70894   0.30997   0.46012   0.00000  Uiso   1.00
N137   N     0.64124   0.72566   0.06574   0.00000  Uiso   1.00
N138   N     0.51621   0.64804   0.42481   0.00000  Uiso   1.00
C139   C     0.86280   0.66964   0.85368   0.00000  Uiso   1.00
C140   C     0.84260   0.80534   0.88408   0.00000  Uiso   1.00
C141   C     0.81790   0.78162   0.92844   0.00000  Uiso   1.00
C142   C     0.80234   0.92169   0.95050   0.00000  Uiso   1.00
C143   C     0.76961   0.10835   0.00096   0.00000  Uiso   1.00
C144   C     0.86125   0.69078   0.77538   0.00000  Uiso   1.00
C145   C     0.85224   0.57074   0.72835   0.00000  Uiso   1.00
C146   C     0.85238   0.61437   0.65891   0.00000  Uiso   1.00
C147   C     0.84864   0.62313   0.54060   0.00000  Uiso   1.00
C148   C     0.89571   0.71218   0.87435   0.00000  Uiso   1.00
C149   C     0.91567   0.61011   0.91053   0.00000  Uiso   1.00
C150   C     0.94483   0.67175   0.92439   0.00000  Uiso   1.00
C151   C     0.99458   0.71374   0.95976   0.00000  Uiso   1.00
C152   C     0.87909   0.96057   0.81395   0.00000  Uiso   1.00
C153   C     0.85145   0.96336   0.86250   0.00000  Uiso   1.00
C154   C     0.83592   0.10350   0.88450   0.00000  Uiso   1.00
C155   C     0.81120   0.08000   0.92889   0.00000  Uiso   1.00
C156   C     0.87010   0.84879   0.75380   0.00000  Uiso   1.00
C157   C     0.87026   0.89261   0.68441   0.00000  Uiso   1.00
C158   C     0.86125   0.77268   0.63729   0.00000  Uiso   1.00
C159   C     0.90456   0.87020   0.85278   0.00000  Uiso   1.00
C160   C     0.93369   0.93200   0.86658   0.00000  Uiso   1.00
C161   C     0.95369   0.83006   0.90277   0.00000  Uiso   1.00
H162   H     0.85592   0.54662   0.87047   0.00000  Uiso   1.00
H163   H     0.81106   0.65931   0.94512   0.00000  Uiso   1.00
H164   H     0.84540   0.44846   0.74507   0.00000  Uiso   1.00
H165   H     0.90882   0.48784   0.92721   0.00000  Uiso   1.00
H166   H     0.76522   0.85394   0.01835   0.00000  Uiso   1.00
H167   H     0.83764   0.40932   0.59652   0.00000  Uiso   1.00
H168   H     0.97137   0.49236   0.98061   0.00000  Uiso   1.00
H169   H     0.88598   0.08360   0.79715   0.00000  Uiso   1.00
H170   H     0.84277   0.22577   0.86779   0.00000  Uiso   1.00
H171   H     0.87711   0.01491   0.66773   0.00000  Uiso   1.00
H172   H     0.94053   0.05429   0.84988   0.00000  Uiso   1.00
H173   H     0.79096   0.31370   0.95558   0.00000  Uiso   1.00
H174   H     0.86338   0.86907   0.53375   0.00000  Uiso   1.00
H175   H     0.99711   0.95212   0.91784   0.00000  Uiso   1.00
O176   O     0.74912   0.16765   0.03474   0.00000  Uiso   1.00
O177   O     0.84413   0.58431   0.48131   0.00000  Uiso   1.00
O178   O     0.01958   0.69326   0.98523   0.00000  Uiso   1.00
N179   N     0.77721   0.94264   0.99390   0.00000  Uiso   1.00
N180   N     0.84491   0.52695   0.59951   0.00000  Uiso   1.00
N181   N     0.96994   0.60457   0.95859   0.00000  Uiso   1.00
N182   N     0.79106   0.19003   0.96012   0.00000  Uiso   1.00
N183   N     0.85876   0.77434   0.56574   0.00000  Uiso   1.00
N184   N     0.98379   0.85196   0.92481   0.00000  Uiso   1.00
C185   C     0.63720   0.16964   0.85368   0.00000  Uiso   1.00
C186   C     0.65740   0.30534   0.88408   0.00000  Uiso   1.00
C187   C     0.68210   0.28162   0.92844   0.00000  Uiso   1.00
C188   C     0.69766   0.42169   0.95050   0.00000  Uiso   1.00
C189   C     0.73039   0.60835   0.00096   0.00000  Uiso   1.00
C190   C     0.63875   0.19078   0.77538   0.00000  Uiso   1.00
C191   C     0.64776   0.07074   0.72835   0.00000  Uiso   1.00
C192   C     0.64762   0.11437   0.65891   0.00000  Uiso   1.00
C193   C     0.65136   0.12313   0.54060   0.00000  Uiso   1.00
C194   C     0.60429   0.21218   0.87435   0.00000  Uiso   1.00
C195   C     0.58433   0.11011   0.91053   0.00000  Uiso   1.00
C196   C     0.55517   0.17175   0.92439   0.00000  Uiso   1.00
C197   C     0.50542   0.21374   0.95976   0.00000  Uiso   1.00
C198   C     0.62091   0.46057   0.81395   0.00000  Uiso   1.00
C199   C     0.64855   0.46336   0.86250   0.00000  Uiso   1.00
C200   C     0.66408   0.60350   0.88450   0.00000  Uiso   1.00
C201   C     0.68880   0.58000   0.92889   0.00000  Uiso   1.00
C202   C     0.62990   0.34879   0.75380   0.00000  Uiso   1.00
C203   C     0.62974   0.39261   0.68441   0.00000  Uiso   1.00
C204   C     0.63875   0.27268   0.63729   0.00000  Uiso   1.00
C205   C     0.59544   0.37020   0.85278   0.00000  Uiso   1.00
C206   C     0.56631   0.43200   0.86658   0.00000  Uiso   1.00
C207   C     0.54631   0.33006   0.90277   0.00000  Uiso   1.00
H208   H     0.64408   0.04662   0.87047   0.00000  Uiso   1.00
H209   H     0.68894   0.15931   0.94512   0.00000  Uiso   1.00
H210   H     0.65460   0.94846   0.74507   0.00000  Uiso   1.00
H211   H     0.59118   0.98784   0.92721   0.00000  Uiso   1.00
H212   H     0.73478   0.35394   0.01835   0.00000  Uiso   1.00
H213   H     0.66236   0.90932   0.59652   0.00000  Uiso   1.00
H214   H     0.52863   0.99236   0.98061   0.00000  Uiso   1.00
H215   H     0.61402   0.58360   0.79715   0.00000  Uiso   1.00
H216   H     0.65723   0.72577   0.86779   0.00000  Uiso   1.00
H217   H     0.62289   0.51491   0.66773   0.00000  Uiso   1.00
H218   H     0.55947   0.55429   0.84988   0.00000  Uiso   1.00
H219   H     0.70904   0.81370   0.95558   0.00000  Uiso   1.00
H220   H     0.63662   0.36907   0.53375   0.00000  Uiso   1.00
H221   H     0.50289   0.45212   0.91784   0.00000  Uiso   1.00
O222   O     0.75088   0.66765   0.03474   0.00000  Uiso   1.00
O223   O     0.65587   0.08431   0.48131   0.00000  Uiso   1.00
O224   O     0.48042   0.19326   0.98523   0.00000  Uiso   1.00
N225   N     0.72279   0.44264   0.99390   0.00000  Uiso   1.00
N226   N     0.65509   0.02695   0.59951   0.00000  Uiso   1.00
N227   N     0.53006   0.10457   0.95859   0.00000  Uiso   1.00
N228   N     0.70894   0.69003   0.96012   0.00000  Uiso   1.00
N229   N     0.64124   0.27434   0.56574   0.00000  Uiso   1.00
N230   N     0.51621   0.35196   0.92481   0.00000  Uiso   1.00
C231   C     0.86280   0.33036   0.35368   0.00000  Uiso   1.00
C232   C     0.84260   0.19466   0.38408   0.00000  Uiso   1.00
C233   C     0.81790   0.21838   0.42844   0.00000  Uiso   1.00
C234   C     0.80234   0.07831   0.45050   0.00000  Uiso   1.00
C235   C     0.76961   0.89165   0.50096   0.00000  Uiso   1.00
C236   C     0.86125   0.30922   0.27538   0.00000  Uiso   1.00
C237   C     0.85224   0.42926   0.22835   0.00000  Uiso   1.00
C238   C     0.85238   0.38563   0.15891   0.00000  Uiso   1.00
C239   C     0.84864   0.37687   0.04060   0.00000  Uiso   1.00
C240   C     0.89571   0.28782   0.37435   0.00000  Uiso   1.00
C241   C     0.91567   0.38989   0.41053   0.00000  Uiso   1.00
C242   C     0.94483   0.32825   0.42439   0.00000  Uiso   1.00
C243   C     0.99458   0.28626   0.45976   0.00000  Uiso   1.00
C244   C     0.87909   0.03943   0.31395   0.00000  Uiso   1.00
C245   C     0.85145   0.03664   0.36250   0.00000  Uiso   1.00
C246   C     0.83592   0.89650   0.38450   0.00000  Uiso   1.00
C247   C     0.81120   0.92000   0.42889   0.00000  Uiso   1.00
C248   C     0.87010   0.15121   0.25380   0.00000  Uiso   1.00
C249   C     0.87026   0.10739   0.18441   0.00000  Uiso   1.00
C250   C     0.86125   0.22732   0.13729   0.00000  Uiso   1.00
C251   C     0.90456   0.12980   0.35278   0.00000  Uiso   1.00
C252   C     0.93369   0.06800   0.36658   0.00000  Uiso   1.00
C253   C     0.95369   0.16994   0.40277   0.00000  Uiso   1.00
H254   H     0.85592   0.45338   0.37047   0.00000  Uiso   1.00
H255   H     0.81106   0.34069   0.44512   0.00000  Uiso   1.00
H256   H     0.84540   0.55154   0.24507   0.00000  Uiso   1.00
H257   H     0.90882   0.51216   0.42721   0.00000  Uiso   1.00
H258   H     0.76522   0.14606   0.51835   0.00000  Uiso   1.00
H259   H     0.83764   0.59068   0.09652   0.00000  Uiso   1.00
H260   H     0.97137   0.50764   0.48061   0.00000  Uiso   1.00
H261   H     0.88598   0.91640   0.29715   0.00000  Uiso   1.00
H262   H     0.84277   0.77423   0.36779   0.00000  Uiso   1.00
H263   H     0.87711   0.98509   0.16773   0.00000  Uiso   1.00
H264   H     0.94053   0.94571   0.34988   0.00000  Uiso   1.00
H265   H     0.79096   0.68630   0.45558   0.00000  Uiso   1.00
H266   H     0.86338   0.13093   0.03375   0.00000  Uiso   1.00
H267   H     0.99711   0.04788   0.41784   0.00000  Uiso   1.00
O268   O     0.74912   0.83235   0.53474   0.00000  Uiso   1.00
O269   O     0.84413   0.41569   0.98131   0.00000  Uiso   1.00
O270   O     0.01958   0.30674   0.48523   0.00000  Uiso   1.00
N271   N     0.77721   0.05736   0.49390   0.00000  Uiso   1.00
N272   N     0.84491   0.47305   0.09951   0.00000  Uiso   1.00
N273   N     0.96994   0.39543   0.45859   0.00000  Uiso   1.00
N274   N     0.79106   0.80997   0.46012   0.00000  Uiso   1.00
N275   N     0.85876   0.22566   0.06574   0.00000  Uiso   1.00
N276   N     0.98379   0.14804   0.42481   0.00000  Uiso   1.00
C277   C     0.36280   0.16964   0.64632   0.00000  Uiso   1.00
C278   C     0.34260   0.30534   0.61592   0.00000  Uiso   1.00
C279   C     0.31790   0.28162   0.57156   0.00000  Uiso   1.00
C280   C     0.30234   0.42169   0.54950   0.00000  Uiso   1.00
C281   C     0.26961   0.60835   0.49904   0.00000  Uiso   1.00
C282   C     0.36125   0.19078   0.72462   0.00000  Uiso   1.00
C283   C     0.35224   0.07074   0.77165   0.00000  Uiso   1.00
C284   C     0.35238   0.11437   0.84109   0.00000  Uiso   1.00
C285   C     0.34864   0.12313   0.95940   0.00000  Uiso   1.00
C286   C     0.39571   0.21218   0.62565   0.00000  Uiso   1.00
C287   C     0.41567   0.11011   0.58947   0.00000  Uiso   1.00
C288   C     0.44483   0.17175   0.57561   0.00000  Uiso   1.00
C289   C     0.49458   0.21374   0.54024   0.00000  Uiso   1.00
C290   C     0.37909   0.46057   0.68605   0.00000  Uiso   1.00
C291   C     0.35145   0.46336   0.63750   0.00000  Uiso   1.00
C292   C     0.33592   0.60350   0.61550   0.00000  Uiso   1.00
C293   C     0.31120   0.58000   0.57111   0.00000  Uiso   1.00
C294   C     0.37010   0.34879   0.74620   0.00000  Uiso   1.00
C295   C     0.37026   0.39261   0.81559   0.00000  Uiso   1.00
C296   C     0.36125   0.27268   0.86271   0.00000  Uiso   1.00
C297   C     0.40456   0.37020   0.64722   0.00000  Uiso   1.00
C298   C     0.43369   0.43200   0.63342   0.00000  Uiso   1.00
C299   C     0.45369   0.33006   0.59723   0.00000  Uiso   1.00
H300   H     0.35592   0.04662   0.62953   0.00000  Uiso   1.00
H301   H     0.31106   0.15931   0.55488   0.00000  Uiso   1.00
H302   H     0.34540   0.94846   0.75493   0.00000  Uiso   1.00
H303   H     0.40882   0.98784   0.57279   0.00000  Uiso   1.00
H304   H     0.26522   0.35394   0.48165   0.00000  Uiso   1.00
H305   H     0.33764   0.90932   0.90348   0.00000  Uiso   1.00
H306   H     0.47137   0.99236   0.51939   0.00000  Uiso   1.00
H307   H     0.38598   0.58360   0.70285   0.00000  Uiso   1.00
H308   H     0.34277   0.72577   0.63221   0.00000  Uiso   1.00
H309   H     0.37711   0.51491   0.83227   0.00000  Uiso   1.00
H310   H     0.44053   0.55429   0.65012   0.00000  Uiso   1.00
H311   H     0.29096   0.81370   0.54442   0.00000  Uiso   1.00
H312   H     0.36338   0.36907   0.96625   0.00000  Uiso   1.00
H313   H     0.49711   0.45212   0.58216   0.00000  Uiso   1.00
O314   O     0.24912   0.66765   0.46526   0.00000  Uiso   1.00
O315   O     0.34413   0.08431   0.01869   0.00000  Uiso   1.00
O316   O     0.51958   0.19326   0.51477   0.00000  Uiso   1.00
N317   N     0.27721   0.44264   0.50610   0.00000  Uiso   1.00
N318   N     0.34491   0.02695   0.90049   0.00000  Uiso   1.00
N319   N     0.46994   0.10457   0.54141   0.00000  Uiso   1.00
N320   N     0.29106   0.69003   0.53988   0.00000  Uiso   1.00
N321   N     0.35876   0.27434   0.93426   0.00000  Uiso   1.00
N322   N     0.48379   0.35196   0.57519   0.00000  Uiso   1.00
C323   C     0.13720   0.33036   0.14632   0.00000  Uiso   1.00
C324   C     0.15740   0.19466   0.11592   0.00000  Uiso   1.00
C325   C     0.18210   0.21838   0.07156   0.00000  Uiso   1.00
C326   C     0.19766   0.07831   0.04950   0.00000  Uiso   1.00
C327   C     0.23039   0.89165   0.99904   0.00000  Uiso   1.00
C328   C     0.13875   0.30922   0.22462   0.00000  Uiso   1.00
C329   C     0.14776   0.42926   0.27165   0.00000  Uiso   1.00
C330   C     0.14762   0.38563   0.34109   0.00000  Uiso   1.00
C331   C     0.15136   0.37687   0.45940   0.00000  Uiso   1.00
C332   C     0.10429   0.28782   0.12565   0.00000  Uiso   1.00
C333   C     0.08433   0.38989   0.08947   0.00000  Uiso   1.00
C334   C     0.05517   0.32825   0.07561   0.00000  Uiso   1.00
C335   C     0.00542   0.28626   0.04024   0.00000  Uiso   1.00
C336   C     0.12091   0.03943   0.18605   0.00000  Uiso   1.00
C337   C     0.14855   0.03664   0.13750   0.00000  Uiso   1.00
C338   C     0.16408   0.89650   0.11550   0.00000  Uiso   1.00
C339   C     0.18880   0.92000   0.07111   0.00000  Uiso   1.00
C340   C     0.12990   0.15121   0.24620   0.00000  Uiso   1.00
C341   C     0.12974   0.10739   0.31559   0.00000  Uiso   1.00
C342   C     0.13875   0.22732   0.36271   0.00000  Uiso   1.00
C343   C     0.09544   0.12980   0.14722   0.00000  Uiso   1.00
C344   C     0.06631   0.06800   0.13342   0.00000  Uiso   1.00
C345   C     0.04631   0.16994   0.09723   0.00000  Uiso   1.00
H346   H     0.14408   0.45338   0.12953   0.00000  Uiso   1.00
H347   H     0.18894   0.34069   0.05488   0.00000  Uiso   1.00
H348   H     0.15460   0.55154   0.25493   0.00000  Uiso   1.00
H349   H     0.09118   0.51216   0.07279   0.00000  Uiso   1.00
H350   H     0.23478   0.14606   0.98165   0.00000  Uiso   1.00
H351   H     0.16236   0.59068   0.40348   0.00000  Uiso   1.00
H352   H     0.02863   0.50764   0.01939   0.00000  Uiso   1.00
H353   H     0.11402   0.91640   0.20285   0.00000  Uiso   1.00
H354   H     0.15723   0.77423   0.13221   0.00000  Uiso   1.00
H355   H     0.12289   0.98509   0.33227   0.00000  Uiso   1.00
H356   H     0.05947   0.94571   0.15012   0.00000  Uiso   1.00
H357   H     0.20904   0.68630   0.04442   0.00000  Uiso   1.00
H358   H     0.13662   0.13093   0.46625   0.00000  Uiso   1.00
H359   H     0.00289   0.04788   0.08216   0.00000  Uiso   1.00
O360   O     0.25088   0.83235   0.96526   0.00000  Uiso   1.00
O361   O     0.15587   0.41569   0.51869   0.00000  Uiso   1.00
O362   O     0.98042   0.30674   0.01477   0.00000  Uiso   1.00
N363   N     0.22279   0.05736   0.00610   0.00000  Uiso   1.00
N364   N     0.15509   0.47305   0.40049   0.00000  Uiso   1.00
N365   N     0.03006   0.39543   0.04141   0.00000  Uiso   1.00
N366   N     0.20894   0.80997   0.03988   0.00000  Uiso   1.00
N367   N     0.14124   0.22566   0.43426   0.00000  Uiso   1.00
N368   N     0.01621   0.14804   0.07519   0.00000  Uiso   1.00
