data_job_04446
_audit_creation_date              2018-12-19
_audit_creation_method            'Materials Studio'
_symmetry_space_group_name_H-M    'P1'
_symmetry_Int_Tables_number       1
_symmetry_cell_setting            triclinic
loop_
_symmetry_equiv_pos_as_xyz
  x,y,z
_cell_length_a                    17.6475
_cell_length_b                    21.5470
_cell_length_c                    7.2871
_cell_angle_alpha                 90.0000
_cell_angle_beta                  90.0000
_cell_angle_gamma                 90.0000
loop_
_atom_site_label
_atom_site_type_symbol
_atom_site_fract_x
_atom_site_fract_y
_atom_site_fract_z
_atom_site_U_iso_or_equiv
_atom_site_adp_type
_atom_site_occupancy
C1     C     0.93013   0.21719   0.72390   0.00000  Uiso   1.00
C2     C     0.00346   0.24275   0.64302   0.00000  Uiso   1.00
C3     C     0.06513   0.26426   0.74260   0.00000  Uiso   1.00
C4     C     0.12686   0.28578   0.64309   0.00000  Uiso   1.00
C5     C     0.24071   0.32551   0.54673   0.00000  Uiso   1.00
C6     C     0.86642   0.25643   0.64312   0.00000  Uiso   1.00
C7     C     0.81287   0.28942   0.74279   0.00000  Uiso   1.00
C8     C     0.75923   0.32245   0.64335   0.00000  Uiso   1.00
C9     C     0.66029   0.38337   0.54714   0.00000  Uiso   1.00
C10    C     0.92047   0.15239   0.64311   0.00000  Uiso   1.00
C11    C     0.91235   0.09791   0.74277   0.00000  Uiso   1.00
C12    C     0.90419   0.04335   0.64333   0.00000  Uiso   1.00
C13    C     0.88918   0.94273   0.54712   0.00000  Uiso   1.00
C14    C     0.93008   0.21718   0.37009   0.00000  Uiso   1.00
C15    C     0.00343   0.24274   0.45084   0.00000  Uiso   1.00
C16    C     0.06508   0.26424   0.35115   0.00000  Uiso   1.00
C17    C     0.12683   0.28578   0.45057   0.00000  Uiso   1.00
C18    C     0.86639   0.25642   0.45095   0.00000  Uiso   1.00
C19    C     0.81282   0.28941   0.35134   0.00000  Uiso   1.00
C20    C     0.75920   0.32245   0.45083   0.00000  Uiso   1.00
C21    C     0.92045   0.15238   0.45093   0.00000  Uiso   1.00
C22    C     0.91230   0.09789   0.35132   0.00000  Uiso   1.00
C23    C     0.90417   0.04334   0.45081   0.00000  Uiso   1.00
H24    H     0.93015   0.21719   0.87352   0.00000  Uiso   1.00
H25    H     0.06513   0.26426   0.89133   0.00000  Uiso   1.00
H26    H     0.81290   0.28941   0.89150   0.00000  Uiso   1.00
H27    H     0.91237   0.09793   0.89149   0.00000  Uiso   1.00
H28    H     0.21476   0.31646   0.82632   0.00000  Uiso   1.00
H29    H     0.68291   0.36948   0.82669   0.00000  Uiso   1.00
H30    H     0.89265   0.96570   0.82666   0.00000  Uiso   1.00
H31    H     0.93006   0.21717   0.22047   0.00000  Uiso   1.00
H32    H     0.06504   0.26423   0.20244   0.00000  Uiso   1.00
H33    H     0.81281   0.28939   0.20262   0.00000  Uiso   1.00
H34    H     0.91228   0.09791   0.20260   0.00000  Uiso   1.00
H35    H     0.21469   0.31644   0.26719   0.00000  Uiso   1.00
H36    H     0.68283   0.36946   0.26757   0.00000  Uiso   1.00
H37    H     0.89258   0.96568   0.26753   0.00000  Uiso   1.00
O38    O     0.30351   0.34742   0.54667   0.00000  Uiso   1.00
O39    O     0.60573   0.41698   0.54717   0.00000  Uiso   1.00
O40    O     0.88092   0.88723   0.54713   0.00000  Uiso   1.00
N41    N     0.19622   0.30998   0.69720   0.00000  Uiso   1.00
N42    N     0.69898   0.35956   0.69755   0.00000  Uiso   1.00
N43    N     0.89505   0.98206   0.69752   0.00000  Uiso   1.00
N44    N     0.19619   0.30997   0.39634   0.00000  Uiso   1.00
N45    N     0.69894   0.35955   0.39669   0.00000  Uiso   1.00
N46    N     0.89502   0.98205   0.39666   0.00000  Uiso   1.00
C47    C     0.06987   0.78281   0.72390   0.00000  Uiso   1.00
C48    C     0.99654   0.75725   0.64302   0.00000  Uiso   1.00
C49    C     0.93487   0.73574   0.74260   0.00000  Uiso   1.00
C50    C     0.87314   0.71422   0.64309   0.00000  Uiso   1.00
C51    C     0.75929   0.67449   0.54673   0.00000  Uiso   1.00
C52    C     0.13358   0.74357   0.64312   0.00000  Uiso   1.00
C53    C     0.18713   0.71058   0.74279   0.00000  Uiso   1.00
C54    C     0.24077   0.67755   0.64335   0.00000  Uiso   1.00
C55    C     0.33971   0.61663   0.54714   0.00000  Uiso   1.00
C56    C     0.07953   0.84761   0.64311   0.00000  Uiso   1.00
C57    C     0.08765   0.90209   0.74277   0.00000  Uiso   1.00
C58    C     0.09581   0.95665   0.64333   0.00000  Uiso   1.00
C59    C     0.11082   0.05727   0.54712   0.00000  Uiso   1.00
C60    C     0.06992   0.78282   0.37009   0.00000  Uiso   1.00
C61    C     0.99657   0.75726   0.45084   0.00000  Uiso   1.00
C62    C     0.93492   0.73576   0.35115   0.00000  Uiso   1.00
C63    C     0.87317   0.71422   0.45057   0.00000  Uiso   1.00
C64    C     0.13361   0.74358   0.45095   0.00000  Uiso   1.00
C65    C     0.18718   0.71059   0.35134   0.00000  Uiso   1.00
C66    C     0.24080   0.67755   0.45083   0.00000  Uiso   1.00
C67    C     0.07955   0.84762   0.45093   0.00000  Uiso   1.00
C68    C     0.08770   0.90211   0.35132   0.00000  Uiso   1.00
C69    C     0.09583   0.95666   0.45081   0.00000  Uiso   1.00
H70    H     0.06985   0.78281   0.87352   0.00000  Uiso   1.00
H71    H     0.93487   0.73574   0.89133   0.00000  Uiso   1.00
H72    H     0.18710   0.71059   0.89150   0.00000  Uiso   1.00
H73    H     0.08763   0.90207   0.89149   0.00000  Uiso   1.00
H74    H     0.78524   0.68354   0.82632   0.00000  Uiso   1.00
H75    H     0.31709   0.63052   0.82669   0.00000  Uiso   1.00
H76    H     0.10735   0.03430   0.82666   0.00000  Uiso   1.00
H77    H     0.06994   0.78283   0.22047   0.00000  Uiso   1.00
H78    H     0.93496   0.73577   0.20244   0.00000  Uiso   1.00
H79    H     0.18719   0.71061   0.20262   0.00000  Uiso   1.00
H80    H     0.08772   0.90209   0.20260   0.00000  Uiso   1.00
H81    H     0.78531   0.68356   0.26719   0.00000  Uiso   1.00
H82    H     0.31717   0.63054   0.26757   0.00000  Uiso   1.00
H83    H     0.10742   0.03432   0.26753   0.00000  Uiso   1.00
O84    O     0.69649   0.65258   0.54667   0.00000  Uiso   1.00
O85    O     0.39427   0.58302   0.54717   0.00000  Uiso   1.00
O86    O     0.11908   0.11277   0.54713   0.00000  Uiso   1.00
N87    N     0.80378   0.69002   0.69720   0.00000  Uiso   1.00
N88    N     0.30102   0.64044   0.69755   0.00000  Uiso   1.00
N89    N     0.10495   0.01794   0.69752   0.00000  Uiso   1.00
N90    N     0.80381   0.69003   0.39634   0.00000  Uiso   1.00
N91    N     0.30106   0.64045   0.39669   0.00000  Uiso   1.00
N92    N     0.10498   0.01795   0.39666   0.00000  Uiso   1.00
C93    C     0.43013   0.28281   0.22390   0.00000  Uiso   1.00
C94    C     0.50346   0.25725   0.14302   0.00000  Uiso   1.00
C95    C     0.56513   0.23574   0.24260   0.00000  Uiso   1.00
C96    C     0.62686   0.21422   0.14309   0.00000  Uiso   1.00
C97    C     0.74071   0.17449   0.04673   0.00000  Uiso   1.00
C98    C     0.36642   0.24357   0.14312   0.00000  Uiso   1.00
C99    C     0.31287   0.21058   0.24279   0.00000  Uiso   1.00
C100   C     0.25923   0.17755   0.14335   0.00000  Uiso   1.00
C101   C     0.16029   0.11663   0.04714   0.00000  Uiso   1.00
C102   C     0.42047   0.34761   0.14311   0.00000  Uiso   1.00
C103   C     0.41235   0.40209   0.24277   0.00000  Uiso   1.00
C104   C     0.40419   0.45665   0.14333   0.00000  Uiso   1.00
C105   C     0.38918   0.55727   0.04712   0.00000  Uiso   1.00
C106   C     0.43008   0.28282   0.87009   0.00000  Uiso   1.00
C107   C     0.50343   0.25726   0.95084   0.00000  Uiso   1.00
C108   C     0.56508   0.23576   0.85115   0.00000  Uiso   1.00
C109   C     0.62683   0.21422   0.95057   0.00000  Uiso   1.00
C110   C     0.36639   0.24358   0.95095   0.00000  Uiso   1.00
C111   C     0.31282   0.21059   0.85134   0.00000  Uiso   1.00
C112   C     0.25920   0.17755   0.95083   0.00000  Uiso   1.00
C113   C     0.42045   0.34762   0.95093   0.00000  Uiso   1.00
C114   C     0.41230   0.40211   0.85132   0.00000  Uiso   1.00
C115   C     0.40417   0.45666   0.95081   0.00000  Uiso   1.00
H116   H     0.43015   0.28281   0.37352   0.00000  Uiso   1.00
H117   H     0.56513   0.23574   0.39133   0.00000  Uiso   1.00
H118   H     0.31290   0.21059   0.39150   0.00000  Uiso   1.00
H119   H     0.41237   0.40207   0.39149   0.00000  Uiso   1.00
H120   H     0.71476   0.18354   0.32632   0.00000  Uiso   1.00
H121   H     0.18291   0.13052   0.32669   0.00000  Uiso   1.00
H122   H     0.39265   0.53430   0.32666   0.00000  Uiso   1.00
H123   H     0.43006   0.28283   0.72047   0.00000  Uiso   1.00
H124   H     0.56504   0.23577   0.70244   0.00000  Uiso   1.00
H125   H     0.31281   0.21061   0.70262   0.00000  Uiso   1.00
H126   H     0.41228   0.40209   0.70260   0.00000  Uiso   1.00
H127   H     0.71469   0.18356   0.76719   0.00000  Uiso   1.00
H128   H     0.18283   0.13054   0.76757   0.00000  Uiso   1.00
H129   H     0.39258   0.53432   0.76753   0.00000  Uiso   1.00
O130   O     0.80351   0.15258   0.04667   0.00000  Uiso   1.00
O131   O     0.10573   0.08302   0.04717   0.00000  Uiso   1.00
O132   O     0.38092   0.61277   0.04713   0.00000  Uiso   1.00
N133   N     0.69622   0.19002   0.19720   0.00000  Uiso   1.00
N134   N     0.19898   0.14044   0.19755   0.00000  Uiso   1.00
N135   N     0.39505   0.51794   0.19752   0.00000  Uiso   1.00
N136   N     0.69619   0.19003   0.89634   0.00000  Uiso   1.00
N137   N     0.19894   0.14045   0.89669   0.00000  Uiso   1.00
N138   N     0.39502   0.51795   0.89666   0.00000  Uiso   1.00
C139   C     0.56987   0.71719   0.22390   0.00000  Uiso   1.00
C140   C     0.49654   0.74275   0.14302   0.00000  Uiso   1.00
C141   C     0.43487   0.76426   0.24260   0.00000  Uiso   1.00
C142   C     0.37314   0.78578   0.14309   0.00000  Uiso   1.00
C143   C     0.25929   0.82551   0.04673   0.00000  Uiso   1.00
C144   C     0.63358   0.75643   0.14312   0.00000  Uiso   1.00
C145   C     0.68713   0.78942   0.24279   0.00000  Uiso   1.00
C146   C     0.74077   0.82245   0.14335   0.00000  Uiso   1.00
C147   C     0.83971   0.88337   0.04714   0.00000  Uiso   1.00
C148   C     0.57953   0.65239   0.14311   0.00000  Uiso   1.00
C149   C     0.58765   0.59791   0.24277   0.00000  Uiso   1.00
C150   C     0.59581   0.54335   0.14333   0.00000  Uiso   1.00
C151   C     0.61082   0.44273   0.04712   0.00000  Uiso   1.00
C152   C     0.56992   0.71718   0.87009   0.00000  Uiso   1.00
C153   C     0.49657   0.74274   0.95084   0.00000  Uiso   1.00
C154   C     0.43492   0.76424   0.85115   0.00000  Uiso   1.00
C155   C     0.37317   0.78578   0.95057   0.00000  Uiso   1.00
C156   C     0.63361   0.75642   0.95095   0.00000  Uiso   1.00
C157   C     0.68718   0.78941   0.85134   0.00000  Uiso   1.00
C158   C     0.74080   0.82245   0.95083   0.00000  Uiso   1.00
C159   C     0.57955   0.65238   0.95093   0.00000  Uiso   1.00
C160   C     0.58770   0.59789   0.85132   0.00000  Uiso   1.00
C161   C     0.59583   0.54334   0.95081   0.00000  Uiso   1.00
H162   H     0.56985   0.71719   0.37352   0.00000  Uiso   1.00
H163   H     0.43487   0.76426   0.39133   0.00000  Uiso   1.00
H164   H     0.68710   0.78941   0.39150   0.00000  Uiso   1.00
H165   H     0.58763   0.59793   0.39149   0.00000  Uiso   1.00
H166   H     0.28524   0.81646   0.32632   0.00000  Uiso   1.00
H167   H     0.81709   0.86948   0.32669   0.00000  Uiso   1.00
H168   H     0.60735   0.46570   0.32666   0.00000  Uiso   1.00
H169   H     0.56994   0.71717   0.72047   0.00000  Uiso   1.00
H170   H     0.43496   0.76423   0.70244   0.00000  Uiso   1.00
H171   H     0.68719   0.78939   0.70262   0.00000  Uiso   1.00
H172   H     0.58772   0.59791   0.70260   0.00000  Uiso   1.00
H173   H     0.28531   0.81644   0.76719   0.00000  Uiso   1.00
H174   H     0.81717   0.86946   0.76757   0.00000  Uiso   1.00
H175   H     0.60742   0.46568   0.76753   0.00000  Uiso   1.00
O176   O     0.19649   0.84742   0.04667   0.00000  Uiso   1.00
O177   O     0.89427   0.91698   0.04717   0.00000  Uiso   1.00
O178   O     0.61908   0.38723   0.04713   0.00000  Uiso   1.00
N179   N     0.30378   0.80998   0.19720   0.00000  Uiso   1.00
N180   N     0.80102   0.85956   0.19755   0.00000  Uiso   1.00
N181   N     0.60495   0.48206   0.19752   0.00000  Uiso   1.00
N182   N     0.30381   0.80997   0.89634   0.00000  Uiso   1.00
N183   N     0.80106   0.85955   0.89669   0.00000  Uiso   1.00
N184   N     0.60498   0.48205   0.89666   0.00000  Uiso   1.00
