data_job_03304
_audit_creation_date              2018-12-19
_audit_creation_method            'Materials Studio'
_symmetry_space_group_name_H-M    'P1'
_symmetry_Int_Tables_number       1
_symmetry_cell_setting            triclinic
loop_
_symmetry_equiv_pos_as_xyz
  x,y,z
_cell_length_a                    21.6873
_cell_length_b                    10.1531
_cell_length_c                    15.7612
_cell_angle_alpha                 90.0000
_cell_angle_beta                  60.8227
_cell_angle_gamma                 90.0000
loop_
_atom_site_label
_atom_site_type_symbol
_atom_site_fract_x
_atom_site_fract_y
_atom_site_fract_z
_atom_site_U_iso_or_equiv
_atom_site_adp_type
_atom_site_occupancy
C1     C     0.04627   0.55999   0.82342   0.00000  Uiso   1.00
C2     C     0.07083   0.60883   0.72034   0.00000  Uiso   1.00
C3     C     0.03842   0.70628   0.69416   0.00000  Uiso   1.00
C4     C     0.06904   0.73680   0.59604   0.00000  Uiso   1.00
C5     C     0.09791   0.82242   0.44652   0.00000  Uiso   1.00
C6     C     0.03581   0.41175   0.82132   0.00000  Uiso   1.00
C7     C     0.97395   0.34349   0.88006   0.00000  Uiso   1.00
C8     C     0.97509   0.20811   0.86695   0.00000  Uiso   1.00
C9     C     0.94960   0.98775   0.87426   0.00000  Uiso   1.00
C10    C     0.10893   0.57779   0.84107   0.00000  Uiso   1.00
C11    C     0.10854   0.64912   0.91644   0.00000  Uiso   1.00
C12    C     0.17124   0.65352   0.91997   0.00000  Uiso   1.00
C13    C     0.25927   0.69097   0.95796   0.00000  Uiso   1.00
C14    C     0.15829   0.44092   0.69569   0.00000  Uiso   1.00
C15    C     0.13168   0.54415   0.65096   0.00000  Uiso   1.00
C16    C     0.16236   0.57454   0.55285   0.00000  Uiso   1.00
C17    C     0.13000   0.67202   0.52654   0.00000  Uiso   1.00
C18    C     0.09665   0.34707   0.75195   0.00000  Uiso   1.00
C19    C     0.09789   0.21175   0.73875   0.00000  Uiso   1.00
C20    C     0.03604   0.14332   0.79745   0.00000  Uiso   1.00
C21    C     0.16977   0.51312   0.77170   0.00000  Uiso   1.00
C22    C     0.23248   0.51739   0.77512   0.00000  Uiso   1.00
C23    C     0.23220   0.58872   0.85047   0.00000  Uiso   1.00
H24    H     0.99890   0.61034   0.87743   0.00000  Uiso   1.00
H25    H     0.99133   0.75630   0.74787   0.00000  Uiso   1.00
H26    H     0.92688   0.39357   0.93375   0.00000  Uiso   1.00
H27    H     0.06145   0.69916   0.97011   0.00000  Uiso   1.00
H28    H     0.00976   0.88956   0.57363   0.00000  Uiso   1.00
H29    H     0.87386   0.12473   0.96559   0.00000  Uiso   1.00
H30    H     0.15763   0.76912   0.04227   0.00000  Uiso   1.00
H31    H     0.20566   0.39056   0.64168   0.00000  Uiso   1.00
H32    H     0.20944   0.52447   0.49918   0.00000  Uiso   1.00
H33    H     0.14498   0.16174   0.68506   0.00000  Uiso   1.00
H34    H     0.27956   0.46733   0.72142   0.00000  Uiso   1.00
H35    H     0.18679   0.70140   0.37178   0.00000  Uiso   1.00
H36    H     0.05088   0.93656   0.76374   0.00000  Uiso   1.00
H37    H     0.33466   0.58096   0.84042   0.00000  Uiso   1.00
O38    O     0.09702   0.88750   0.38322   0.00000  Uiso   1.00
O39    O     0.91872   0.88407   0.89746   0.00000  Uiso   1.00
O40    O     0.29103   0.72950   0.99807   0.00000  Uiso   1.00
N41    N     0.05091   0.82692   0.54569   0.00000  Uiso   1.00
N42    N     0.92385   0.11185   0.91213   0.00000  Uiso   1.00
N43    N     0.18915   0.71427   0.98384   0.00000  Uiso   1.00
N44    N     0.14617   0.72567   0.43707   0.00000  Uiso   1.00
N45    N     0.01910   0.01060   0.80351   0.00000  Uiso   1.00
N46    N     0.28440   0.61303   0.87523   0.00000  Uiso   1.00
C47    C     0.54627   0.05999   0.82342   0.00000  Uiso   1.00
C48    C     0.57083   0.10883   0.72034   0.00000  Uiso   1.00
C49    C     0.53842   0.20628   0.69416   0.00000  Uiso   1.00
C50    C     0.56904   0.23680   0.59604   0.00000  Uiso   1.00
C51    C     0.59791   0.32242   0.44652   0.00000  Uiso   1.00
C52    C     0.53581   0.91175   0.82132   0.00000  Uiso   1.00
C53    C     0.47395   0.84349   0.88006   0.00000  Uiso   1.00
C54    C     0.47509   0.70811   0.86695   0.00000  Uiso   1.00
C55    C     0.44960   0.48775   0.87426   0.00000  Uiso   1.00
C56    C     0.60893   0.07779   0.84107   0.00000  Uiso   1.00
C57    C     0.60854   0.14912   0.91644   0.00000  Uiso   1.00
C58    C     0.67124   0.15352   0.91997   0.00000  Uiso   1.00
C59    C     0.75927   0.19097   0.95796   0.00000  Uiso   1.00
C60    C     0.65829   0.94092   0.69569   0.00000  Uiso   1.00
C61    C     0.63168   0.04415   0.65096   0.00000  Uiso   1.00
C62    C     0.66236   0.07454   0.55285   0.00000  Uiso   1.00
C63    C     0.63000   0.17202   0.52654   0.00000  Uiso   1.00
C64    C     0.59665   0.84707   0.75195   0.00000  Uiso   1.00
C65    C     0.59789   0.71175   0.73875   0.00000  Uiso   1.00
C66    C     0.53604   0.64332   0.79745   0.00000  Uiso   1.00
C67    C     0.66977   0.01312   0.77170   0.00000  Uiso   1.00
C68    C     0.73248   0.01739   0.77512   0.00000  Uiso   1.00
C69    C     0.73220   0.08872   0.85047   0.00000  Uiso   1.00
H70    H     0.49890   0.11034   0.87743   0.00000  Uiso   1.00
H71    H     0.49133   0.25630   0.74787   0.00000  Uiso   1.00
H72    H     0.42688   0.89357   0.93375   0.00000  Uiso   1.00
H73    H     0.56145   0.19916   0.97011   0.00000  Uiso   1.00
H74    H     0.50976   0.38956   0.57363   0.00000  Uiso   1.00
H75    H     0.37386   0.62473   0.96559   0.00000  Uiso   1.00
H76    H     0.65763   0.26912   0.04227   0.00000  Uiso   1.00
H77    H     0.70566   0.89056   0.64168   0.00000  Uiso   1.00
H78    H     0.70944   0.02447   0.49918   0.00000  Uiso   1.00
H79    H     0.64498   0.66174   0.68506   0.00000  Uiso   1.00
H80    H     0.77956   0.96733   0.72142   0.00000  Uiso   1.00
H81    H     0.68679   0.20140   0.37178   0.00000  Uiso   1.00
H82    H     0.55088   0.43656   0.76374   0.00000  Uiso   1.00
H83    H     0.83466   0.08096   0.84042   0.00000  Uiso   1.00
O84    O     0.59702   0.38750   0.38322   0.00000  Uiso   1.00
O85    O     0.41872   0.38407   0.89746   0.00000  Uiso   1.00
O86    O     0.79103   0.22950   0.99807   0.00000  Uiso   1.00
N87    N     0.55091   0.32692   0.54569   0.00000  Uiso   1.00
N88    N     0.42385   0.61185   0.91213   0.00000  Uiso   1.00
N89    N     0.68915   0.21427   0.98384   0.00000  Uiso   1.00
N90    N     0.64617   0.22567   0.43707   0.00000  Uiso   1.00
N91    N     0.51910   0.51060   0.80351   0.00000  Uiso   1.00
N92    N     0.78440   0.11303   0.87523   0.00000  Uiso   1.00
C93    C     0.95373   0.55999   0.17658   0.00000  Uiso   1.00
C94    C     0.92917   0.60883   0.27966   0.00000  Uiso   1.00
C95    C     0.96158   0.70628   0.30584   0.00000  Uiso   1.00
C96    C     0.93096   0.73680   0.40396   0.00000  Uiso   1.00
C97    C     0.90209   0.82242   0.55348   0.00000  Uiso   1.00
C98    C     0.96419   0.41175   0.17868   0.00000  Uiso   1.00
C99    C     0.02605   0.34349   0.11994   0.00000  Uiso   1.00
C100   C     0.02491   0.20811   0.13305   0.00000  Uiso   1.00
C101   C     0.05040   0.98775   0.12574   0.00000  Uiso   1.00
C102   C     0.89107   0.57779   0.15893   0.00000  Uiso   1.00
C103   C     0.89146   0.64912   0.08356   0.00000  Uiso   1.00
C104   C     0.82876   0.65352   0.08003   0.00000  Uiso   1.00
C105   C     0.74073   0.69097   0.04204   0.00000  Uiso   1.00
C106   C     0.84171   0.44092   0.30431   0.00000  Uiso   1.00
C107   C     0.86832   0.54415   0.34904   0.00000  Uiso   1.00
C108   C     0.83764   0.57454   0.44715   0.00000  Uiso   1.00
C109   C     0.87000   0.67202   0.47346   0.00000  Uiso   1.00
C110   C     0.90335   0.34707   0.24805   0.00000  Uiso   1.00
C111   C     0.90211   0.21175   0.26125   0.00000  Uiso   1.00
C112   C     0.96396   0.14332   0.20255   0.00000  Uiso   1.00
C113   C     0.83023   0.51312   0.22830   0.00000  Uiso   1.00
C114   C     0.76752   0.51739   0.22488   0.00000  Uiso   1.00
C115   C     0.76780   0.58872   0.14953   0.00000  Uiso   1.00
H116   H     0.00110   0.61034   0.12257   0.00000  Uiso   1.00
H117   H     0.00867   0.75630   0.25213   0.00000  Uiso   1.00
H118   H     0.07312   0.39357   0.06625   0.00000  Uiso   1.00
H119   H     0.93855   0.69916   0.02989   0.00000  Uiso   1.00
H120   H     0.99024   0.88956   0.42637   0.00000  Uiso   1.00
H121   H     0.12614   0.12473   0.03441   0.00000  Uiso   1.00
H122   H     0.84237   0.76912   0.95773   0.00000  Uiso   1.00
H123   H     0.79434   0.39056   0.35832   0.00000  Uiso   1.00
H124   H     0.79056   0.52447   0.50082   0.00000  Uiso   1.00
H125   H     0.85502   0.16174   0.31494   0.00000  Uiso   1.00
H126   H     0.72044   0.46733   0.27858   0.00000  Uiso   1.00
H127   H     0.81321   0.70140   0.62822   0.00000  Uiso   1.00
H128   H     0.94912   0.93656   0.23626   0.00000  Uiso   1.00
H129   H     0.66534   0.58096   0.15958   0.00000  Uiso   1.00
O130   O     0.90298   0.88750   0.61678   0.00000  Uiso   1.00
O131   O     0.08128   0.88407   0.10254   0.00000  Uiso   1.00
O132   O     0.70897   0.72950   0.00193   0.00000  Uiso   1.00
N133   N     0.94909   0.82692   0.45431   0.00000  Uiso   1.00
N134   N     0.07615   0.11185   0.08787   0.00000  Uiso   1.00
N135   N     0.81085   0.71427   0.01616   0.00000  Uiso   1.00
N136   N     0.85383   0.72567   0.56293   0.00000  Uiso   1.00
N137   N     0.98090   0.01060   0.19649   0.00000  Uiso   1.00
N138   N     0.71560   0.61303   0.12477   0.00000  Uiso   1.00
C139   C     0.45373   0.05999   0.17658   0.00000  Uiso   1.00
C140   C     0.42917   0.10883   0.27966   0.00000  Uiso   1.00
C141   C     0.46158   0.20628   0.30584   0.00000  Uiso   1.00
C142   C     0.43096   0.23680   0.40396   0.00000  Uiso   1.00
C143   C     0.40209   0.32242   0.55348   0.00000  Uiso   1.00
C144   C     0.46419   0.91175   0.17868   0.00000  Uiso   1.00
C145   C     0.52605   0.84349   0.11994   0.00000  Uiso   1.00
C146   C     0.52491   0.70811   0.13305   0.00000  Uiso   1.00
C147   C     0.55040   0.48775   0.12574   0.00000  Uiso   1.00
C148   C     0.39107   0.07779   0.15893   0.00000  Uiso   1.00
C149   C     0.39146   0.14912   0.08356   0.00000  Uiso   1.00
C150   C     0.32876   0.15352   0.08003   0.00000  Uiso   1.00
C151   C     0.24073   0.19097   0.04204   0.00000  Uiso   1.00
C152   C     0.34171   0.94092   0.30431   0.00000  Uiso   1.00
C153   C     0.36832   0.04415   0.34904   0.00000  Uiso   1.00
C154   C     0.33764   0.07454   0.44715   0.00000  Uiso   1.00
C155   C     0.37000   0.17202   0.47346   0.00000  Uiso   1.00
C156   C     0.40335   0.84707   0.24805   0.00000  Uiso   1.00
C157   C     0.40211   0.71175   0.26125   0.00000  Uiso   1.00
C158   C     0.46396   0.64332   0.20255   0.00000  Uiso   1.00
C159   C     0.33023   0.01312   0.22830   0.00000  Uiso   1.00
C160   C     0.26752   0.01739   0.22488   0.00000  Uiso   1.00
C161   C     0.26780   0.08872   0.14953   0.00000  Uiso   1.00
H162   H     0.50110   0.11034   0.12257   0.00000  Uiso   1.00
H163   H     0.50867   0.25630   0.25213   0.00000  Uiso   1.00
H164   H     0.57312   0.89357   0.06625   0.00000  Uiso   1.00
H165   H     0.43855   0.19916   0.02989   0.00000  Uiso   1.00
H166   H     0.49024   0.38956   0.42637   0.00000  Uiso   1.00
H167   H     0.62614   0.62473   0.03441   0.00000  Uiso   1.00
H168   H     0.34237   0.26912   0.95773   0.00000  Uiso   1.00
H169   H     0.29434   0.89056   0.35832   0.00000  Uiso   1.00
H170   H     0.29056   0.02447   0.50082   0.00000  Uiso   1.00
H171   H     0.35502   0.66174   0.31494   0.00000  Uiso   1.00
H172   H     0.22044   0.96733   0.27858   0.00000  Uiso   1.00
H173   H     0.31321   0.20140   0.62822   0.00000  Uiso   1.00
H174   H     0.44912   0.43656   0.23626   0.00000  Uiso   1.00
H175   H     0.16534   0.08096   0.15958   0.00000  Uiso   1.00
O176   O     0.40298   0.38750   0.61678   0.00000  Uiso   1.00
O177   O     0.58128   0.38407   0.10254   0.00000  Uiso   1.00
O178   O     0.20897   0.22950   0.00193   0.00000  Uiso   1.00
N179   N     0.44909   0.32692   0.45431   0.00000  Uiso   1.00
N180   N     0.57615   0.61185   0.08787   0.00000  Uiso   1.00
N181   N     0.31085   0.21427   0.01616   0.00000  Uiso   1.00
N182   N     0.35383   0.22567   0.56293   0.00000  Uiso   1.00
N183   N     0.48090   0.51060   0.19649   0.00000  Uiso   1.00
N184   N     0.21560   0.11303   0.12477   0.00000  Uiso   1.00
