data_job_03065
_audit_creation_date              2018-12-19
_audit_creation_method            'Materials Studio'
_symmetry_space_group_name_H-M    'P1'
_symmetry_Int_Tables_number       1
_symmetry_cell_setting            triclinic
loop_
_symmetry_equiv_pos_as_xyz
  x,y,z
_cell_length_a                    33.0687
_cell_length_b                    15.7462
_cell_length_c                    20.5067
_cell_angle_alpha                 90.0000
_cell_angle_beta                  146.2550
_cell_angle_gamma                 90.0000
loop_
_atom_site_label
_atom_site_type_symbol
_atom_site_fract_x
_atom_site_fract_y
_atom_site_fract_z
_atom_site_U_iso_or_equiv
_atom_site_adp_type
_atom_site_occupancy
C1     C     0.28768   0.28407   0.22333   0.00000  Uiso   1.00
C2     C     0.22708   0.32410   0.10160   0.00000  Uiso   1.00
C3     C     0.17440   0.28024   0.99606   0.00000  Uiso   1.00
C4     C     0.12372   0.32847   0.89417   0.00000  Uiso   1.00
C5     C     0.02935   0.37710   0.70460   0.00000  Uiso   1.00
C6     C     0.35878   0.31984   0.29185   0.00000  Uiso   1.00
C7     C     0.41683   0.27239   0.34627   0.00000  Uiso   1.00
C8     C     0.47701   0.31704   0.40455   0.00000  Uiso   1.00
C9     C     0.58712   0.35905   0.51041   0.00000  Uiso   1.00
C10    C     0.27969   0.32043   0.28117   0.00000  Uiso   1.00
C11    C     0.27127   0.27348   0.32665   0.00000  Uiso   1.00
C12    C     0.26488   0.31863   0.37597   0.00000  Uiso   1.00
C13    C     0.25220   0.36157   0.46525   0.00000  Uiso   1.00
C14    C     0.29134   0.44774   0.23007   0.00000  Uiso   1.00
C15    C     0.22907   0.41300   0.10526   0.00000  Uiso   1.00
C16    C     0.17845   0.46131   0.00351   0.00000  Uiso   1.00
C17    C     0.12571   0.41753   0.89784   0.00000  Uiso   1.00
C18    C     0.36076   0.40873   0.29551   0.00000  Uiso   1.00
C19    C     0.42088   0.45346   0.35373   0.00000  Uiso   1.00
C20    C     0.47900   0.40609   0.40822   0.00000  Uiso   1.00
C21    C     0.28168   0.40933   0.28483   0.00000  Uiso   1.00
C22    C     0.27531   0.45456   0.33410   0.00000  Uiso   1.00
C23    C     0.26688   0.40769   0.37964   0.00000  Uiso   1.00
H24    H     0.28614   0.21486   0.22049   0.00000  Uiso   1.00
H25    H     0.17289   0.21144   0.99326   0.00000  Uiso   1.00
H26    H     0.41528   0.20359   0.34344   0.00000  Uiso   1.00
H27    H     0.26973   0.20469   0.32381   0.00000  Uiso   1.00
H28    H     0.04822   0.24684   0.74296   0.00000  Uiso   1.00
H29    H     0.55932   0.23030   0.48135   0.00000  Uiso   1.00
H30    H     0.25242   0.23261   0.43996   0.00000  Uiso   1.00
H31    H     0.29289   0.51695   0.23292   0.00000  Uiso   1.00
H32    H     0.18000   0.53011   0.00637   0.00000  Uiso   1.00
H33    H     0.42240   0.52226   0.35654   0.00000  Uiso   1.00
H34    H     0.27685   0.52336   0.33691   0.00000  Uiso   1.00
H35    H     0.05400   0.50549   0.75360   0.00000  Uiso   1.00
H36    H     0.56511   0.48894   0.49199   0.00000  Uiso   1.00
H37    H     0.25820   0.49126   0.45060   0.00000  Uiso   1.00
O38    O     0.97675   0.37937   0.59902   0.00000  Uiso   1.00
O39    O     0.64730   0.35766   0.56778   0.00000  Uiso   1.00
O40    O     0.24465   0.36069   0.51347   0.00000  Uiso   1.00
N41    N     0.06507   0.30591   0.77655   0.00000  Uiso   1.00
N42    N     0.54291   0.29044   0.46689   0.00000  Uiso   1.00
N43    N     0.25600   0.29260   0.42822   0.00000  Uiso   1.00
N44    N     0.06817   0.44508   0.78228   0.00000  Uiso   1.00
N45    N     0.54602   0.42962   0.47261   0.00000  Uiso   1.00
N46    N     0.25911   0.43178   0.43394   0.00000  Uiso   1.00
C47    C     0.78768   0.78407   0.22333   0.00000  Uiso   1.00
C48    C     0.72708   0.82410   0.10160   0.00000  Uiso   1.00
C49    C     0.67440   0.78024   0.99606   0.00000  Uiso   1.00
C50    C     0.62372   0.82847   0.89417   0.00000  Uiso   1.00
C51    C     0.52935   0.87710   0.70460   0.00000  Uiso   1.00
C52    C     0.85878   0.81984   0.29185   0.00000  Uiso   1.00
C53    C     0.91683   0.77239   0.34627   0.00000  Uiso   1.00
C54    C     0.97701   0.81704   0.40455   0.00000  Uiso   1.00
C55    C     0.08712   0.85905   0.51041   0.00000  Uiso   1.00
C56    C     0.77969   0.82043   0.28117   0.00000  Uiso   1.00
C57    C     0.77127   0.77348   0.32665   0.00000  Uiso   1.00
C58    C     0.76488   0.81863   0.37597   0.00000  Uiso   1.00
C59    C     0.75220   0.86157   0.46525   0.00000  Uiso   1.00
C60    C     0.79134   0.94774   0.23007   0.00000  Uiso   1.00
C61    C     0.72907   0.91300   0.10526   0.00000  Uiso   1.00
C62    C     0.67845   0.96131   0.00351   0.00000  Uiso   1.00
C63    C     0.62571   0.91753   0.89784   0.00000  Uiso   1.00
C64    C     0.86076   0.90873   0.29551   0.00000  Uiso   1.00
C65    C     0.92088   0.95346   0.35373   0.00000  Uiso   1.00
C66    C     0.97900   0.90609   0.40822   0.00000  Uiso   1.00
C67    C     0.78168   0.90933   0.28483   0.00000  Uiso   1.00
C68    C     0.77531   0.95456   0.33410   0.00000  Uiso   1.00
C69    C     0.76688   0.90769   0.37964   0.00000  Uiso   1.00
H70    H     0.78614   0.71486   0.22049   0.00000  Uiso   1.00
H71    H     0.67289   0.71144   0.99326   0.00000  Uiso   1.00
H72    H     0.91528   0.70359   0.34344   0.00000  Uiso   1.00
H73    H     0.76973   0.70469   0.32381   0.00000  Uiso   1.00
H74    H     0.54822   0.74684   0.74296   0.00000  Uiso   1.00
H75    H     0.05932   0.73030   0.48135   0.00000  Uiso   1.00
H76    H     0.75242   0.73261   0.43996   0.00000  Uiso   1.00
H77    H     0.79289   0.01695   0.23292   0.00000  Uiso   1.00
H78    H     0.68000   0.03011   0.00637   0.00000  Uiso   1.00
H79    H     0.92240   0.02226   0.35654   0.00000  Uiso   1.00
H80    H     0.77685   0.02336   0.33691   0.00000  Uiso   1.00
H81    H     0.55400   0.00549   0.75360   0.00000  Uiso   1.00
H82    H     0.06511   0.98894   0.49199   0.00000  Uiso   1.00
H83    H     0.75820   0.99126   0.45060   0.00000  Uiso   1.00
O84    O     0.47675   0.87937   0.59902   0.00000  Uiso   1.00
O85    O     0.14730   0.85766   0.56778   0.00000  Uiso   1.00
O86    O     0.74465   0.86069   0.51347   0.00000  Uiso   1.00
N87    N     0.56507   0.80591   0.77655   0.00000  Uiso   1.00
N88    N     0.04291   0.79044   0.46689   0.00000  Uiso   1.00
N89    N     0.75600   0.79260   0.42822   0.00000  Uiso   1.00
N90    N     0.56817   0.94508   0.78228   0.00000  Uiso   1.00
N91    N     0.04602   0.92962   0.47261   0.00000  Uiso   1.00
N92    N     0.75911   0.93178   0.43394   0.00000  Uiso   1.00
C93    C     0.71232   0.28407   0.27667   0.00000  Uiso   1.00
C94    C     0.77292   0.32410   0.39840   0.00000  Uiso   1.00
C95    C     0.82560   0.28024   0.50394   0.00000  Uiso   1.00
C96    C     0.87628   0.32847   0.60583   0.00000  Uiso   1.00
C97    C     0.97065   0.37710   0.79540   0.00000  Uiso   1.00
C98    C     0.64122   0.31984   0.20815   0.00000  Uiso   1.00
C99    C     0.58317   0.27239   0.15373   0.00000  Uiso   1.00
C100   C     0.52299   0.31704   0.09545   0.00000  Uiso   1.00
C101   C     0.41288   0.35905   0.98959   0.00000  Uiso   1.00
C102   C     0.72031   0.32043   0.21883   0.00000  Uiso   1.00
C103   C     0.72873   0.27348   0.17335   0.00000  Uiso   1.00
C104   C     0.73512   0.31863   0.12403   0.00000  Uiso   1.00
C105   C     0.74780   0.36157   0.03475   0.00000  Uiso   1.00
C106   C     0.70866   0.44774   0.26993   0.00000  Uiso   1.00
C107   C     0.77093   0.41300   0.39474   0.00000  Uiso   1.00
C108   C     0.82155   0.46131   0.49649   0.00000  Uiso   1.00
C109   C     0.87429   0.41753   0.60216   0.00000  Uiso   1.00
C110   C     0.63924   0.40873   0.20449   0.00000  Uiso   1.00
C111   C     0.57912   0.45346   0.14627   0.00000  Uiso   1.00
C112   C     0.52100   0.40609   0.09178   0.00000  Uiso   1.00
C113   C     0.71832   0.40933   0.21517   0.00000  Uiso   1.00
C114   C     0.72469   0.45456   0.16590   0.00000  Uiso   1.00
C115   C     0.73312   0.40769   0.12036   0.00000  Uiso   1.00
H116   H     0.71386   0.21486   0.27951   0.00000  Uiso   1.00
H117   H     0.82711   0.21144   0.50674   0.00000  Uiso   1.00
H118   H     0.58472   0.20359   0.15656   0.00000  Uiso   1.00
H119   H     0.73027   0.20469   0.17619   0.00000  Uiso   1.00
H120   H     0.95178   0.24684   0.75704   0.00000  Uiso   1.00
H121   H     0.44068   0.23030   0.01865   0.00000  Uiso   1.00
H122   H     0.74758   0.23261   0.06004   0.00000  Uiso   1.00
H123   H     0.70711   0.51695   0.26708   0.00000  Uiso   1.00
H124   H     0.82000   0.53011   0.49363   0.00000  Uiso   1.00
H125   H     0.57760   0.52226   0.14346   0.00000  Uiso   1.00
H126   H     0.72315   0.52336   0.16309   0.00000  Uiso   1.00
H127   H     0.94600   0.50549   0.74640   0.00000  Uiso   1.00
H128   H     0.43489   0.48894   0.00801   0.00000  Uiso   1.00
H129   H     0.74180   0.49126   0.04940   0.00000  Uiso   1.00
O130   O     0.02325   0.37937   0.90098   0.00000  Uiso   1.00
O131   O     0.35270   0.35766   0.93222   0.00000  Uiso   1.00
O132   O     0.75535   0.36069   0.98653   0.00000  Uiso   1.00
N133   N     0.93493   0.30591   0.72345   0.00000  Uiso   1.00
N134   N     0.45709   0.29044   0.03311   0.00000  Uiso   1.00
N135   N     0.74400   0.29260   0.07178   0.00000  Uiso   1.00
N136   N     0.93183   0.44508   0.71772   0.00000  Uiso   1.00
N137   N     0.45398   0.42962   0.02739   0.00000  Uiso   1.00
N138   N     0.74089   0.43178   0.06606   0.00000  Uiso   1.00
C139   C     0.21232   0.78407   0.27667   0.00000  Uiso   1.00
C140   C     0.27292   0.82410   0.39840   0.00000  Uiso   1.00
C141   C     0.32560   0.78024   0.50394   0.00000  Uiso   1.00
C142   C     0.37628   0.82847   0.60583   0.00000  Uiso   1.00
C143   C     0.47065   0.87710   0.79540   0.00000  Uiso   1.00
C144   C     0.14122   0.81984   0.20815   0.00000  Uiso   1.00
C145   C     0.08317   0.77239   0.15373   0.00000  Uiso   1.00
C146   C     0.02299   0.81704   0.09545   0.00000  Uiso   1.00
C147   C     0.91288   0.85905   0.98959   0.00000  Uiso   1.00
C148   C     0.22031   0.82043   0.21883   0.00000  Uiso   1.00
C149   C     0.22873   0.77348   0.17335   0.00000  Uiso   1.00
C150   C     0.23512   0.81863   0.12403   0.00000  Uiso   1.00
C151   C     0.24780   0.86157   0.03475   0.00000  Uiso   1.00
C152   C     0.20866   0.94774   0.26993   0.00000  Uiso   1.00
C153   C     0.27093   0.91300   0.39474   0.00000  Uiso   1.00
C154   C     0.32155   0.96131   0.49649   0.00000  Uiso   1.00
C155   C     0.37429   0.91753   0.60216   0.00000  Uiso   1.00
C156   C     0.13924   0.90873   0.20449   0.00000  Uiso   1.00
C157   C     0.07912   0.95346   0.14627   0.00000  Uiso   1.00
C158   C     0.02100   0.90609   0.09178   0.00000  Uiso   1.00
C159   C     0.21832   0.90933   0.21517   0.00000  Uiso   1.00
C160   C     0.22469   0.95456   0.16590   0.00000  Uiso   1.00
C161   C     0.23312   0.90769   0.12036   0.00000  Uiso   1.00
H162   H     0.21386   0.71486   0.27951   0.00000  Uiso   1.00
H163   H     0.32711   0.71144   0.50674   0.00000  Uiso   1.00
H164   H     0.08472   0.70359   0.15656   0.00000  Uiso   1.00
H165   H     0.23027   0.70469   0.17619   0.00000  Uiso   1.00
H166   H     0.45178   0.74684   0.75704   0.00000  Uiso   1.00
H167   H     0.94068   0.73030   0.01865   0.00000  Uiso   1.00
H168   H     0.24758   0.73261   0.06004   0.00000  Uiso   1.00
H169   H     0.20711   0.01695   0.26708   0.00000  Uiso   1.00
H170   H     0.32000   0.03011   0.49363   0.00000  Uiso   1.00
H171   H     0.07760   0.02226   0.14346   0.00000  Uiso   1.00
H172   H     0.22315   0.02336   0.16309   0.00000  Uiso   1.00
H173   H     0.44600   0.00549   0.74640   0.00000  Uiso   1.00
H174   H     0.93489   0.98894   0.00801   0.00000  Uiso   1.00
H175   H     0.24180   0.99126   0.04940   0.00000  Uiso   1.00
O176   O     0.52325   0.87937   0.90098   0.00000  Uiso   1.00
O177   O     0.85270   0.85766   0.93222   0.00000  Uiso   1.00
O178   O     0.25535   0.86069   0.98653   0.00000  Uiso   1.00
N179   N     0.43493   0.80591   0.72345   0.00000  Uiso   1.00
N180   N     0.95709   0.79044   0.03311   0.00000  Uiso   1.00
N181   N     0.24400   0.79260   0.07178   0.00000  Uiso   1.00
N182   N     0.43183   0.94508   0.71772   0.00000  Uiso   1.00
N183   N     0.95398   0.92962   0.02739   0.00000  Uiso   1.00
N184   N     0.24089   0.93178   0.06606   0.00000  Uiso   1.00
C185   C     0.71232   0.71593   0.77667   0.00000  Uiso   1.00
C186   C     0.77292   0.67590   0.89840   0.00000  Uiso   1.00
C187   C     0.82560   0.71976   0.00394   0.00000  Uiso   1.00
C188   C     0.87628   0.67153   0.10583   0.00000  Uiso   1.00
C189   C     0.97065   0.62290   0.29540   0.00000  Uiso   1.00
C190   C     0.64122   0.68016   0.70815   0.00000  Uiso   1.00
C191   C     0.58317   0.72761   0.65373   0.00000  Uiso   1.00
C192   C     0.52299   0.68296   0.59545   0.00000  Uiso   1.00
C193   C     0.41288   0.64095   0.48959   0.00000  Uiso   1.00
C194   C     0.72031   0.67957   0.71883   0.00000  Uiso   1.00
C195   C     0.72873   0.72652   0.67335   0.00000  Uiso   1.00
C196   C     0.73512   0.68137   0.62403   0.00000  Uiso   1.00
C197   C     0.74780   0.63843   0.53475   0.00000  Uiso   1.00
C198   C     0.70866   0.55226   0.76993   0.00000  Uiso   1.00
C199   C     0.77093   0.58700   0.89474   0.00000  Uiso   1.00
C200   C     0.82155   0.53869   0.99649   0.00000  Uiso   1.00
C201   C     0.87429   0.58247   0.10216   0.00000  Uiso   1.00
C202   C     0.63924   0.59127   0.70449   0.00000  Uiso   1.00
C203   C     0.57912   0.54654   0.64627   0.00000  Uiso   1.00
C204   C     0.52100   0.59391   0.59178   0.00000  Uiso   1.00
C205   C     0.71832   0.59067   0.71517   0.00000  Uiso   1.00
C206   C     0.72469   0.54544   0.66590   0.00000  Uiso   1.00
C207   C     0.73312   0.59231   0.62036   0.00000  Uiso   1.00
H208   H     0.71386   0.78514   0.77951   0.00000  Uiso   1.00
H209   H     0.82711   0.78856   0.00674   0.00000  Uiso   1.00
H210   H     0.58472   0.79641   0.65656   0.00000  Uiso   1.00
H211   H     0.73027   0.79531   0.67619   0.00000  Uiso   1.00
H212   H     0.95178   0.75316   0.25704   0.00000  Uiso   1.00
H213   H     0.44068   0.76970   0.51865   0.00000  Uiso   1.00
H214   H     0.74758   0.76739   0.56004   0.00000  Uiso   1.00
H215   H     0.70711   0.48305   0.76708   0.00000  Uiso   1.00
H216   H     0.82000   0.46989   0.99363   0.00000  Uiso   1.00
H217   H     0.57760   0.47774   0.64346   0.00000  Uiso   1.00
H218   H     0.72315   0.47664   0.66309   0.00000  Uiso   1.00
H219   H     0.94600   0.49451   0.24640   0.00000  Uiso   1.00
H220   H     0.43489   0.51106   0.50801   0.00000  Uiso   1.00
H221   H     0.74180   0.50874   0.54940   0.00000  Uiso   1.00
O222   O     0.02325   0.62063   0.40098   0.00000  Uiso   1.00
O223   O     0.35270   0.64234   0.43222   0.00000  Uiso   1.00
O224   O     0.75535   0.63931   0.48653   0.00000  Uiso   1.00
N225   N     0.93493   0.69409   0.22345   0.00000  Uiso   1.00
N226   N     0.45709   0.70956   0.53311   0.00000  Uiso   1.00
N227   N     0.74400   0.70740   0.57178   0.00000  Uiso   1.00
N228   N     0.93183   0.55492   0.21772   0.00000  Uiso   1.00
N229   N     0.45398   0.57038   0.52739   0.00000  Uiso   1.00
N230   N     0.74089   0.56822   0.56606   0.00000  Uiso   1.00
C231   C     0.21232   0.21593   0.77667   0.00000  Uiso   1.00
C232   C     0.27292   0.17590   0.89840   0.00000  Uiso   1.00
C233   C     0.32560   0.21976   0.00394   0.00000  Uiso   1.00
C234   C     0.37628   0.17153   0.10583   0.00000  Uiso   1.00
C235   C     0.47065   0.12290   0.29540   0.00000  Uiso   1.00
C236   C     0.14122   0.18016   0.70815   0.00000  Uiso   1.00
C237   C     0.08317   0.22761   0.65373   0.00000  Uiso   1.00
C238   C     0.02299   0.18296   0.59545   0.00000  Uiso   1.00
C239   C     0.91288   0.14095   0.48959   0.00000  Uiso   1.00
C240   C     0.22031   0.17957   0.71883   0.00000  Uiso   1.00
C241   C     0.22873   0.22652   0.67335   0.00000  Uiso   1.00
C242   C     0.23512   0.18137   0.62403   0.00000  Uiso   1.00
C243   C     0.24780   0.13843   0.53475   0.00000  Uiso   1.00
C244   C     0.20866   0.05226   0.76993   0.00000  Uiso   1.00
C245   C     0.27093   0.08700   0.89474   0.00000  Uiso   1.00
C246   C     0.32155   0.03869   0.99649   0.00000  Uiso   1.00
C247   C     0.37429   0.08247   0.10216   0.00000  Uiso   1.00
C248   C     0.13924   0.09127   0.70449   0.00000  Uiso   1.00
C249   C     0.07912   0.04654   0.64627   0.00000  Uiso   1.00
C250   C     0.02100   0.09391   0.59178   0.00000  Uiso   1.00
C251   C     0.21832   0.09067   0.71517   0.00000  Uiso   1.00
C252   C     0.22469   0.04544   0.66590   0.00000  Uiso   1.00
C253   C     0.23312   0.09231   0.62036   0.00000  Uiso   1.00
H254   H     0.21386   0.28514   0.77951   0.00000  Uiso   1.00
H255   H     0.32711   0.28856   0.00674   0.00000  Uiso   1.00
H256   H     0.08472   0.29641   0.65656   0.00000  Uiso   1.00
H257   H     0.23027   0.29531   0.67619   0.00000  Uiso   1.00
H258   H     0.45178   0.25316   0.25704   0.00000  Uiso   1.00
H259   H     0.94068   0.26970   0.51865   0.00000  Uiso   1.00
H260   H     0.24758   0.26739   0.56004   0.00000  Uiso   1.00
H261   H     0.20711   0.98305   0.76708   0.00000  Uiso   1.00
H262   H     0.32000   0.96989   0.99363   0.00000  Uiso   1.00
H263   H     0.07760   0.97774   0.64346   0.00000  Uiso   1.00
H264   H     0.22315   0.97664   0.66309   0.00000  Uiso   1.00
H265   H     0.44600   0.99451   0.24640   0.00000  Uiso   1.00
H266   H     0.93489   0.01106   0.50801   0.00000  Uiso   1.00
H267   H     0.24180   0.00874   0.54940   0.00000  Uiso   1.00
O268   O     0.52325   0.12063   0.40098   0.00000  Uiso   1.00
O269   O     0.85270   0.14234   0.43222   0.00000  Uiso   1.00
O270   O     0.25535   0.13931   0.48653   0.00000  Uiso   1.00
N271   N     0.43493   0.19409   0.22345   0.00000  Uiso   1.00
N272   N     0.95709   0.20956   0.53311   0.00000  Uiso   1.00
N273   N     0.24400   0.20740   0.57178   0.00000  Uiso   1.00
N274   N     0.43183   0.05492   0.21772   0.00000  Uiso   1.00
N275   N     0.95398   0.07038   0.52739   0.00000  Uiso   1.00
N276   N     0.24089   0.06822   0.56606   0.00000  Uiso   1.00
C277   C     0.28768   0.71593   0.72333   0.00000  Uiso   1.00
C278   C     0.22708   0.67590   0.60160   0.00000  Uiso   1.00
C279   C     0.17440   0.71976   0.49606   0.00000  Uiso   1.00
C280   C     0.12372   0.67153   0.39417   0.00000  Uiso   1.00
C281   C     0.02935   0.62290   0.20460   0.00000  Uiso   1.00
C282   C     0.35878   0.68016   0.79185   0.00000  Uiso   1.00
C283   C     0.41683   0.72761   0.84627   0.00000  Uiso   1.00
C284   C     0.47701   0.68296   0.90455   0.00000  Uiso   1.00
C285   C     0.58712   0.64095   0.01041   0.00000  Uiso   1.00
C286   C     0.27969   0.67957   0.78117   0.00000  Uiso   1.00
C287   C     0.27127   0.72652   0.82665   0.00000  Uiso   1.00
C288   C     0.26488   0.68137   0.87597   0.00000  Uiso   1.00
C289   C     0.25220   0.63843   0.96525   0.00000  Uiso   1.00
C290   C     0.29134   0.55226   0.73007   0.00000  Uiso   1.00
C291   C     0.22907   0.58700   0.60526   0.00000  Uiso   1.00
C292   C     0.17845   0.53869   0.50351   0.00000  Uiso   1.00
C293   C     0.12571   0.58247   0.39784   0.00000  Uiso   1.00
C294   C     0.36076   0.59127   0.79551   0.00000  Uiso   1.00
C295   C     0.42088   0.54654   0.85373   0.00000  Uiso   1.00
C296   C     0.47900   0.59391   0.90822   0.00000  Uiso   1.00
C297   C     0.28168   0.59067   0.78483   0.00000  Uiso   1.00
C298   C     0.27531   0.54544   0.83410   0.00000  Uiso   1.00
C299   C     0.26688   0.59231   0.87964   0.00000  Uiso   1.00
H300   H     0.28614   0.78514   0.72049   0.00000  Uiso   1.00
H301   H     0.17289   0.78856   0.49326   0.00000  Uiso   1.00
H302   H     0.41528   0.79641   0.84344   0.00000  Uiso   1.00
H303   H     0.26973   0.79531   0.82381   0.00000  Uiso   1.00
H304   H     0.04822   0.75316   0.24296   0.00000  Uiso   1.00
H305   H     0.55932   0.76970   0.98135   0.00000  Uiso   1.00
H306   H     0.25242   0.76739   0.93996   0.00000  Uiso   1.00
H307   H     0.29289   0.48305   0.73292   0.00000  Uiso   1.00
H308   H     0.18000   0.46989   0.50637   0.00000  Uiso   1.00
H309   H     0.42240   0.47774   0.85654   0.00000  Uiso   1.00
H310   H     0.27685   0.47664   0.83691   0.00000  Uiso   1.00
H311   H     0.05400   0.49451   0.25360   0.00000  Uiso   1.00
H312   H     0.56511   0.51106   0.99199   0.00000  Uiso   1.00
H313   H     0.25820   0.50874   0.95060   0.00000  Uiso   1.00
O314   O     0.97675   0.62063   0.09902   0.00000  Uiso   1.00
O315   O     0.64730   0.64234   0.06778   0.00000  Uiso   1.00
O316   O     0.24465   0.63931   0.01347   0.00000  Uiso   1.00
N317   N     0.06507   0.69409   0.27655   0.00000  Uiso   1.00
N318   N     0.54291   0.70956   0.96689   0.00000  Uiso   1.00
N319   N     0.25600   0.70740   0.92822   0.00000  Uiso   1.00
N320   N     0.06817   0.55492   0.28228   0.00000  Uiso   1.00
N321   N     0.54602   0.57038   0.97261   0.00000  Uiso   1.00
N322   N     0.25911   0.56822   0.93394   0.00000  Uiso   1.00
C323   C     0.78768   0.21593   0.72333   0.00000  Uiso   1.00
C324   C     0.72708   0.17590   0.60160   0.00000  Uiso   1.00
C325   C     0.67440   0.21976   0.49606   0.00000  Uiso   1.00
C326   C     0.62372   0.17153   0.39417   0.00000  Uiso   1.00
C327   C     0.52935   0.12290   0.20460   0.00000  Uiso   1.00
C328   C     0.85878   0.18016   0.79185   0.00000  Uiso   1.00
C329   C     0.91683   0.22761   0.84627   0.00000  Uiso   1.00
C330   C     0.97701   0.18296   0.90455   0.00000  Uiso   1.00
C331   C     0.08712   0.14095   0.01041   0.00000  Uiso   1.00
C332   C     0.77969   0.17957   0.78117   0.00000  Uiso   1.00
C333   C     0.77127   0.22652   0.82665   0.00000  Uiso   1.00
C334   C     0.76488   0.18137   0.87597   0.00000  Uiso   1.00
C335   C     0.75220   0.13843   0.96525   0.00000  Uiso   1.00
C336   C     0.79134   0.05226   0.73007   0.00000  Uiso   1.00
C337   C     0.72907   0.08700   0.60526   0.00000  Uiso   1.00
C338   C     0.67845   0.03869   0.50351   0.00000  Uiso   1.00
C339   C     0.62571   0.08247   0.39784   0.00000  Uiso   1.00
C340   C     0.86076   0.09127   0.79551   0.00000  Uiso   1.00
C341   C     0.92088   0.04654   0.85373   0.00000  Uiso   1.00
C342   C     0.97900   0.09391   0.90822   0.00000  Uiso   1.00
C343   C     0.78168   0.09067   0.78483   0.00000  Uiso   1.00
C344   C     0.77531   0.04544   0.83410   0.00000  Uiso   1.00
C345   C     0.76688   0.09231   0.87964   0.00000  Uiso   1.00
H346   H     0.78614   0.28514   0.72049   0.00000  Uiso   1.00
H347   H     0.67289   0.28856   0.49326   0.00000  Uiso   1.00
H348   H     0.91528   0.29641   0.84344   0.00000  Uiso   1.00
H349   H     0.76973   0.29531   0.82381   0.00000  Uiso   1.00
H350   H     0.54822   0.25316   0.24296   0.00000  Uiso   1.00
H351   H     0.05932   0.26970   0.98135   0.00000  Uiso   1.00
H352   H     0.75242   0.26739   0.93996   0.00000  Uiso   1.00
H353   H     0.79289   0.98305   0.73292   0.00000  Uiso   1.00
H354   H     0.68000   0.96989   0.50637   0.00000  Uiso   1.00
H355   H     0.92240   0.97774   0.85654   0.00000  Uiso   1.00
H356   H     0.77685   0.97664   0.83691   0.00000  Uiso   1.00
H357   H     0.55400   0.99451   0.25360   0.00000  Uiso   1.00
H358   H     0.06511   0.01106   0.99199   0.00000  Uiso   1.00
H359   H     0.75820   0.00874   0.95060   0.00000  Uiso   1.00
O360   O     0.47675   0.12063   0.09902   0.00000  Uiso   1.00
O361   O     0.14730   0.14234   0.06778   0.00000  Uiso   1.00
O362   O     0.74465   0.13931   0.01347   0.00000  Uiso   1.00
N363   N     0.56507   0.19409   0.27655   0.00000  Uiso   1.00
N364   N     0.04291   0.20956   0.96689   0.00000  Uiso   1.00
N365   N     0.75600   0.20740   0.92822   0.00000  Uiso   1.00
N366   N     0.56817   0.05492   0.28228   0.00000  Uiso   1.00
N367   N     0.04602   0.07038   0.97261   0.00000  Uiso   1.00
N368   N     0.75911   0.06822   0.93394   0.00000  Uiso   1.00
