data_job_03839
_audit_creation_date              2018-12-19
_audit_creation_method            'Materials Studio'
_symmetry_space_group_name_H-M    'P1'
_symmetry_Int_Tables_number       1
_symmetry_cell_setting            triclinic
loop_
_symmetry_equiv_pos_as_xyz
  x,y,z
_cell_length_a                    24.6794
_cell_length_b                    24.6794
_cell_length_c                    12.4827
_cell_angle_alpha                 90.0000
_cell_angle_beta                  90.0000
_cell_angle_gamma                 120.0000
loop_
_atom_site_label
_atom_site_type_symbol
_atom_site_fract_x
_atom_site_fract_y
_atom_site_fract_z
_atom_site_U_iso_or_equiv
_atom_site_adp_type
_atom_site_occupancy
C1     C     0.23158   0.34124   0.63033   0.00000  Uiso   1.00
C2     C     0.25705   0.37057   0.52104   0.00000  Uiso   1.00
C3     C     0.23266   0.39867   0.45571   0.00000  Uiso   1.00
C4     C     0.26269   0.42271   0.35871   0.00000  Uiso   1.00
C5     C     0.29424   0.46883   0.19362   0.00000  Uiso   1.00
C6     C     0.21804   0.27392   0.62285   0.00000  Uiso   1.00
C7     C     0.16084   0.22075   0.64314   0.00000  Uiso   1.00
C8     C     0.15803   0.16343   0.63186   0.00000  Uiso   1.00
C9     C     0.12901   0.05950   0.62492   0.00000  Uiso   1.00
C10    C     0.28591   0.37423   0.70865   0.00000  Uiso   1.00
C11    C     0.28578   0.40540   0.80110   0.00000  Uiso   1.00
C12    C     0.34012   0.43252   0.86208   0.00000  Uiso   1.00
C13    C     0.41649   0.48434   0.98835   0.00000  Uiso   1.00
C14    C     0.32829   0.33396   0.57424   0.00000  Uiso   1.00
C15    C     0.30958   0.36662   0.49057   0.00000  Uiso   1.00
C16    C     0.33966   0.39062   0.39365   0.00000  Uiso   1.00
C17    C     0.31532   0.41876   0.32819   0.00000  Uiso   1.00
C18    C     0.27056   0.26996   0.59238   0.00000  Uiso   1.00
C19    C     0.26784   0.21271   0.58108   0.00000  Uiso   1.00
C20    C     0.21065   0.15947   0.60134   0.00000  Uiso   1.00
C21    C     0.33844   0.37028   0.67818   0.00000  Uiso   1.00
C22    C     0.39279   0.39736   0.73904   0.00000  Uiso   1.00
C23    C     0.39274   0.42857   0.83156   0.00000  Uiso   1.00
H24    H     0.19068   0.34431   0.65405   0.00000  Uiso   1.00
H25    H     0.19200   0.40171   0.47931   0.00000  Uiso   1.00
H26    H     0.12020   0.22383   0.66673   0.00000  Uiso   1.00
H27    H     0.24512   0.40845   0.82465   0.00000  Uiso   1.00
H28    H     0.21662   0.46360   0.27213   0.00000  Uiso   1.00
H29    H     0.06522   0.08851   0.66734   0.00000  Uiso   1.00
H30    H     0.32865   0.47782   0.00037   0.00000  Uiso   1.00
H31    H     0.36919   0.33089   0.55052   0.00000  Uiso   1.00
H32    H     0.38031   0.38756   0.37009   0.00000  Uiso   1.00
H33    H     0.30850   0.20967   0.55751   0.00000  Uiso   1.00
H34    H     0.43343   0.39429   0.71543   0.00000  Uiso   1.00
H35    H     0.36946   0.45211   0.18348   0.00000  Uiso   1.00
H36    H     0.21805   0.07702   0.57870   0.00000  Uiso   1.00
H37    H     0.48149   0.46633   0.91172   0.00000  Uiso   1.00
O38    O     0.29712   0.49536   0.11097   0.00000  Uiso   1.00
O39    O     0.09849   0.00326   0.62949   0.00000  Uiso   1.00
O40    O     0.44411   0.51403   0.06641   0.00000  Uiso   1.00
N41    N     0.25107   0.45313   0.27603   0.00000  Uiso   1.00
N42    N     0.10952   0.10244   0.64552   0.00000  Uiso   1.00
N43    N     0.35580   0.46640   0.95688   0.00000  Uiso   1.00
N44    N     0.33331   0.44694   0.22833   0.00000  Uiso   1.00
N45    N     0.19176   0.09626   0.59782   0.00000  Uiso   1.00
N46    N     0.43804   0.46022   0.90918   0.00000  Uiso   1.00
C47    C     0.65876   0.89034   0.63033   0.00000  Uiso   1.00
C48    C     0.62943   0.88648   0.52104   0.00000  Uiso   1.00
C49    C     0.60133   0.83399   0.45571   0.00000  Uiso   1.00
C50    C     0.57729   0.83998   0.35871   0.00000  Uiso   1.00
C51    C     0.53117   0.82541   0.19362   0.00000  Uiso   1.00
C52    C     0.72608   0.94412   0.62285   0.00000  Uiso   1.00
C53    C     0.77925   0.94008   0.64314   0.00000  Uiso   1.00
C54    C     0.83657   0.99459   0.63186   0.00000  Uiso   1.00
C55    C     0.94050   0.06951   0.62492   0.00000  Uiso   1.00
C56    C     0.62577   0.91168   0.70865   0.00000  Uiso   1.00
C57    C     0.59460   0.88038   0.80110   0.00000  Uiso   1.00
C58    C     0.56748   0.90759   0.86208   0.00000  Uiso   1.00
C59    C     0.51566   0.93215   0.98835   0.00000  Uiso   1.00
C60    C     0.66604   0.99433   0.57424   0.00000  Uiso   1.00
C61    C     0.63338   0.94297   0.49057   0.00000  Uiso   1.00
C62    C     0.60938   0.94904   0.39365   0.00000  Uiso   1.00
C63    C     0.58124   0.89656   0.32819   0.00000  Uiso   1.00
C64    C     0.73004   0.00060   0.59238   0.00000  Uiso   1.00
C65    C     0.78729   0.05513   0.58108   0.00000  Uiso   1.00
C66    C     0.84053   0.05118   0.60134   0.00000  Uiso   1.00
C67    C     0.62972   0.96816   0.67818   0.00000  Uiso   1.00
C68    C     0.60264   0.99543   0.73904   0.00000  Uiso   1.00
C69    C     0.57143   0.96418   0.83156   0.00000  Uiso   1.00
H70    H     0.65569   0.84637   0.65405   0.00000  Uiso   1.00
H71    H     0.59829   0.79029   0.47931   0.00000  Uiso   1.00
H72    H     0.77617   0.89637   0.66673   0.00000  Uiso   1.00
H73    H     0.59155   0.83668   0.82465   0.00000  Uiso   1.00
H74    H     0.53640   0.75303   0.27213   0.00000  Uiso   1.00
H75    H     0.91149   0.97670   0.66734   0.00000  Uiso   1.00
H76    H     0.52218   0.85083   0.00037   0.00000  Uiso   1.00
H77    H     0.66911   0.03830   0.55052   0.00000  Uiso   1.00
H78    H     0.61244   0.99275   0.37009   0.00000  Uiso   1.00
H79    H     0.79033   0.09883   0.55751   0.00000  Uiso   1.00
H80    H     0.60571   0.03914   0.71543   0.00000  Uiso   1.00
H81    H     0.54789   0.91735   0.18348   0.00000  Uiso   1.00
H82    H     0.92298   0.14103   0.57870   0.00000  Uiso   1.00
H83    H     0.53367   0.01516   0.91172   0.00000  Uiso   1.00
O84    O     0.50464   0.80177   0.11097   0.00000  Uiso   1.00
O85    O     0.99674   0.09523   0.62949   0.00000  Uiso   1.00
O86    O     0.48597   0.93008   0.06641   0.00000  Uiso   1.00
N87    N     0.54687   0.79795   0.27603   0.00000  Uiso   1.00
N88    N     0.89756   0.00707   0.64552   0.00000  Uiso   1.00
N89    N     0.53360   0.88940   0.95688   0.00000  Uiso   1.00
N90    N     0.55306   0.88637   0.22833   0.00000  Uiso   1.00
N91    N     0.90374   0.09549   0.59782   0.00000  Uiso   1.00
N92    N     0.53978   0.97782   0.90918   0.00000  Uiso   1.00
C93    C     0.10966   0.76842   0.63033   0.00000  Uiso   1.00
C94    C     0.11352   0.74295   0.52104   0.00000  Uiso   1.00
C95    C     0.16601   0.76734   0.45571   0.00000  Uiso   1.00
C96    C     0.16002   0.73731   0.35871   0.00000  Uiso   1.00
C97    C     0.17459   0.70576   0.19362   0.00000  Uiso   1.00
C98    C     0.05588   0.78196   0.62285   0.00000  Uiso   1.00
C99    C     0.05992   0.83916   0.64314   0.00000  Uiso   1.00
C100   C     0.00541   0.84197   0.63186   0.00000  Uiso   1.00
C101   C     0.93049   0.87099   0.62492   0.00000  Uiso   1.00
C102   C     0.08832   0.71409   0.70865   0.00000  Uiso   1.00
C103   C     0.11962   0.71422   0.80110   0.00000  Uiso   1.00
C104   C     0.09241   0.65988   0.86208   0.00000  Uiso   1.00
C105   C     0.06785   0.58351   0.98835   0.00000  Uiso   1.00
C106   C     0.00567   0.67171   0.57424   0.00000  Uiso   1.00
C107   C     0.05703   0.69042   0.49057   0.00000  Uiso   1.00
C108   C     0.05096   0.66034   0.39365   0.00000  Uiso   1.00
C109   C     0.10344   0.68468   0.32819   0.00000  Uiso   1.00
C110   C     0.99940   0.72944   0.59238   0.00000  Uiso   1.00
C111   C     0.94487   0.73216   0.58108   0.00000  Uiso   1.00
C112   C     0.94882   0.78935   0.60134   0.00000  Uiso   1.00
C113   C     0.03184   0.66156   0.67818   0.00000  Uiso   1.00
C114   C     0.00457   0.60721   0.73904   0.00000  Uiso   1.00
C115   C     0.03582   0.60726   0.83156   0.00000  Uiso   1.00
H116   H     0.15363   0.80932   0.65405   0.00000  Uiso   1.00
H117   H     0.20971   0.80800   0.47931   0.00000  Uiso   1.00
H118   H     0.10363   0.87980   0.66673   0.00000  Uiso   1.00
H119   H     0.16332   0.75488   0.82465   0.00000  Uiso   1.00
H120   H     0.24697   0.78338   0.27213   0.00000  Uiso   1.00
H121   H     0.02330   0.93478   0.66734   0.00000  Uiso   1.00
H122   H     0.14917   0.67135   0.00037   0.00000  Uiso   1.00
H123   H     0.96170   0.63081   0.55052   0.00000  Uiso   1.00
H124   H     0.00725   0.61969   0.37009   0.00000  Uiso   1.00
H125   H     0.90117   0.69150   0.55751   0.00000  Uiso   1.00
H126   H     0.96086   0.56657   0.71543   0.00000  Uiso   1.00
H127   H     0.08265   0.63054   0.18348   0.00000  Uiso   1.00
H128   H     0.85897   0.78195   0.57870   0.00000  Uiso   1.00
H129   H     0.98484   0.51851   0.91172   0.00000  Uiso   1.00
O130   O     0.19823   0.70288   0.11097   0.00000  Uiso   1.00
O131   O     0.90477   0.90151   0.62949   0.00000  Uiso   1.00
O132   O     0.06992   0.55589   0.06641   0.00000  Uiso   1.00
N133   N     0.20205   0.74893   0.27603   0.00000  Uiso   1.00
N134   N     0.99293   0.89048   0.64552   0.00000  Uiso   1.00
N135   N     0.11060   0.64420   0.95688   0.00000  Uiso   1.00
N136   N     0.11363   0.66669   0.22833   0.00000  Uiso   1.00
N137   N     0.90451   0.80824   0.59782   0.00000  Uiso   1.00
N138   N     0.02218   0.56196   0.90918   0.00000  Uiso   1.00
C139   C     0.76842   0.65876   0.36967   0.00000  Uiso   1.00
C140   C     0.74295   0.62943   0.47896   0.00000  Uiso   1.00
C141   C     0.76734   0.60133   0.54429   0.00000  Uiso   1.00
C142   C     0.73731   0.57729   0.64129   0.00000  Uiso   1.00
C143   C     0.70576   0.53117   0.80638   0.00000  Uiso   1.00
C144   C     0.78196   0.72608   0.37715   0.00000  Uiso   1.00
C145   C     0.83916   0.77925   0.35686   0.00000  Uiso   1.00
C146   C     0.84197   0.83657   0.36814   0.00000  Uiso   1.00
C147   C     0.87099   0.94050   0.37508   0.00000  Uiso   1.00
C148   C     0.71409   0.62577   0.29135   0.00000  Uiso   1.00
C149   C     0.71422   0.59460   0.19890   0.00000  Uiso   1.00
C150   C     0.65988   0.56748   0.13792   0.00000  Uiso   1.00
C151   C     0.58351   0.51566   0.01165   0.00000  Uiso   1.00
C152   C     0.67171   0.66604   0.42576   0.00000  Uiso   1.00
C153   C     0.69042   0.63338   0.50943   0.00000  Uiso   1.00
C154   C     0.66034   0.60938   0.60635   0.00000  Uiso   1.00
C155   C     0.68468   0.58124   0.67181   0.00000  Uiso   1.00
C156   C     0.72944   0.73004   0.40762   0.00000  Uiso   1.00
C157   C     0.73216   0.78729   0.41892   0.00000  Uiso   1.00
C158   C     0.78935   0.84053   0.39866   0.00000  Uiso   1.00
C159   C     0.66156   0.62972   0.32182   0.00000  Uiso   1.00
C160   C     0.60721   0.60264   0.26096   0.00000  Uiso   1.00
C161   C     0.60726   0.57143   0.16844   0.00000  Uiso   1.00
H162   H     0.80932   0.65569   0.34595   0.00000  Uiso   1.00
H163   H     0.80800   0.59829   0.52069   0.00000  Uiso   1.00
H164   H     0.87980   0.77617   0.33327   0.00000  Uiso   1.00
H165   H     0.75488   0.59155   0.17535   0.00000  Uiso   1.00
H166   H     0.78338   0.53640   0.72787   0.00000  Uiso   1.00
H167   H     0.93478   0.91149   0.33266   0.00000  Uiso   1.00
H168   H     0.67135   0.52218   0.99963   0.00000  Uiso   1.00
H169   H     0.63081   0.66911   0.44948   0.00000  Uiso   1.00
H170   H     0.61969   0.61244   0.62991   0.00000  Uiso   1.00
H171   H     0.69150   0.79033   0.44249   0.00000  Uiso   1.00
H172   H     0.56657   0.60571   0.28457   0.00000  Uiso   1.00
H173   H     0.63054   0.54789   0.81652   0.00000  Uiso   1.00
H174   H     0.78195   0.92298   0.42130   0.00000  Uiso   1.00
H175   H     0.51851   0.53367   0.08828   0.00000  Uiso   1.00
O176   O     0.70288   0.50464   0.88903   0.00000  Uiso   1.00
O177   O     0.90151   0.99674   0.37051   0.00000  Uiso   1.00
O178   O     0.55589   0.48597   0.93359   0.00000  Uiso   1.00
N179   N     0.74893   0.54687   0.72397   0.00000  Uiso   1.00
N180   N     0.89048   0.89756   0.35448   0.00000  Uiso   1.00
N181   N     0.64420   0.53360   0.04312   0.00000  Uiso   1.00
N182   N     0.66669   0.55306   0.77167   0.00000  Uiso   1.00
N183   N     0.80824   0.90374   0.40218   0.00000  Uiso   1.00
N184   N     0.56196   0.53978   0.09082   0.00000  Uiso   1.00
C185   C     0.34124   0.10966   0.36967   0.00000  Uiso   1.00
C186   C     0.37057   0.11352   0.47896   0.00000  Uiso   1.00
C187   C     0.39867   0.16601   0.54429   0.00000  Uiso   1.00
C188   C     0.42271   0.16002   0.64129   0.00000  Uiso   1.00
C189   C     0.46883   0.17459   0.80638   0.00000  Uiso   1.00
C190   C     0.27392   0.05588   0.37715   0.00000  Uiso   1.00
C191   C     0.22075   0.05992   0.35686   0.00000  Uiso   1.00
C192   C     0.16343   0.00541   0.36814   0.00000  Uiso   1.00
C193   C     0.05950   0.93049   0.37508   0.00000  Uiso   1.00
C194   C     0.37423   0.08832   0.29135   0.00000  Uiso   1.00
C195   C     0.40540   0.11962   0.19890   0.00000  Uiso   1.00
C196   C     0.43252   0.09241   0.13792   0.00000  Uiso   1.00
C197   C     0.48434   0.06785   0.01165   0.00000  Uiso   1.00
C198   C     0.33396   0.00567   0.42576   0.00000  Uiso   1.00
C199   C     0.36662   0.05703   0.50943   0.00000  Uiso   1.00
C200   C     0.39062   0.05096   0.60635   0.00000  Uiso   1.00
C201   C     0.41876   0.10344   0.67181   0.00000  Uiso   1.00
C202   C     0.26996   0.99940   0.40762   0.00000  Uiso   1.00
C203   C     0.21271   0.94487   0.41892   0.00000  Uiso   1.00
C204   C     0.15947   0.94882   0.39866   0.00000  Uiso   1.00
C205   C     0.37028   0.03184   0.32182   0.00000  Uiso   1.00
C206   C     0.39736   0.00457   0.26096   0.00000  Uiso   1.00
C207   C     0.42857   0.03582   0.16844   0.00000  Uiso   1.00
H208   H     0.34431   0.15363   0.34595   0.00000  Uiso   1.00
H209   H     0.40171   0.20971   0.52069   0.00000  Uiso   1.00
H210   H     0.22383   0.10363   0.33327   0.00000  Uiso   1.00
H211   H     0.40845   0.16332   0.17535   0.00000  Uiso   1.00
H212   H     0.46360   0.24697   0.72787   0.00000  Uiso   1.00
H213   H     0.08851   0.02330   0.33266   0.00000  Uiso   1.00
H214   H     0.47782   0.14917   0.99963   0.00000  Uiso   1.00
H215   H     0.33089   0.96170   0.44948   0.00000  Uiso   1.00
H216   H     0.38756   0.00725   0.62991   0.00000  Uiso   1.00
H217   H     0.20967   0.90117   0.44249   0.00000  Uiso   1.00
H218   H     0.39429   0.96086   0.28457   0.00000  Uiso   1.00
H219   H     0.45211   0.08265   0.81652   0.00000  Uiso   1.00
H220   H     0.07702   0.85897   0.42130   0.00000  Uiso   1.00
H221   H     0.46633   0.98484   0.08828   0.00000  Uiso   1.00
O222   O     0.49536   0.19823   0.88903   0.00000  Uiso   1.00
O223   O     0.00326   0.90477   0.37051   0.00000  Uiso   1.00
O224   O     0.51403   0.06992   0.93359   0.00000  Uiso   1.00
N225   N     0.45313   0.20205   0.72397   0.00000  Uiso   1.00
N226   N     0.10244   0.99293   0.35448   0.00000  Uiso   1.00
N227   N     0.46640   0.11060   0.04312   0.00000  Uiso   1.00
N228   N     0.44694   0.11363   0.77167   0.00000  Uiso   1.00
N229   N     0.09626   0.90451   0.40218   0.00000  Uiso   1.00
N230   N     0.46022   0.02218   0.09082   0.00000  Uiso   1.00
C231   C     0.89034   0.23158   0.36967   0.00000  Uiso   1.00
C232   C     0.88648   0.25705   0.47896   0.00000  Uiso   1.00
C233   C     0.83399   0.23266   0.54429   0.00000  Uiso   1.00
C234   C     0.83998   0.26269   0.64129   0.00000  Uiso   1.00
C235   C     0.82541   0.29424   0.80638   0.00000  Uiso   1.00
C236   C     0.94412   0.21804   0.37715   0.00000  Uiso   1.00
C237   C     0.94008   0.16084   0.35686   0.00000  Uiso   1.00
C238   C     0.99459   0.15803   0.36814   0.00000  Uiso   1.00
C239   C     0.06951   0.12901   0.37508   0.00000  Uiso   1.00
C240   C     0.91168   0.28591   0.29135   0.00000  Uiso   1.00
C241   C     0.88038   0.28578   0.19890   0.00000  Uiso   1.00
C242   C     0.90759   0.34012   0.13792   0.00000  Uiso   1.00
C243   C     0.93215   0.41649   0.01165   0.00000  Uiso   1.00
C244   C     0.99433   0.32829   0.42576   0.00000  Uiso   1.00
C245   C     0.94297   0.30958   0.50943   0.00000  Uiso   1.00
C246   C     0.94904   0.33966   0.60635   0.00000  Uiso   1.00
C247   C     0.89656   0.31532   0.67181   0.00000  Uiso   1.00
C248   C     0.00060   0.27056   0.40762   0.00000  Uiso   1.00
C249   C     0.05513   0.26784   0.41892   0.00000  Uiso   1.00
C250   C     0.05118   0.21065   0.39866   0.00000  Uiso   1.00
C251   C     0.96816   0.33844   0.32182   0.00000  Uiso   1.00
C252   C     0.99543   0.39279   0.26096   0.00000  Uiso   1.00
C253   C     0.96418   0.39274   0.16844   0.00000  Uiso   1.00
H254   H     0.84637   0.19068   0.34595   0.00000  Uiso   1.00
H255   H     0.79029   0.19200   0.52069   0.00000  Uiso   1.00
H256   H     0.89637   0.12020   0.33327   0.00000  Uiso   1.00
H257   H     0.83668   0.24512   0.17535   0.00000  Uiso   1.00
H258   H     0.75303   0.21662   0.72787   0.00000  Uiso   1.00
H259   H     0.97670   0.06522   0.33266   0.00000  Uiso   1.00
H260   H     0.85083   0.32865   0.99963   0.00000  Uiso   1.00
H261   H     0.03830   0.36919   0.44948   0.00000  Uiso   1.00
H262   H     0.99275   0.38031   0.62991   0.00000  Uiso   1.00
H263   H     0.09883   0.30850   0.44249   0.00000  Uiso   1.00
H264   H     0.03914   0.43343   0.28457   0.00000  Uiso   1.00
H265   H     0.91735   0.36946   0.81652   0.00000  Uiso   1.00
H266   H     0.14103   0.21805   0.42130   0.00000  Uiso   1.00
H267   H     0.01516   0.48149   0.08828   0.00000  Uiso   1.00
O268   O     0.80177   0.29712   0.88903   0.00000  Uiso   1.00
O269   O     0.09523   0.09849   0.37051   0.00000  Uiso   1.00
O270   O     0.93008   0.44411   0.93359   0.00000  Uiso   1.00
N271   N     0.79795   0.25107   0.72397   0.00000  Uiso   1.00
N272   N     0.00707   0.10952   0.35448   0.00000  Uiso   1.00
N273   N     0.88940   0.35580   0.04312   0.00000  Uiso   1.00
N274   N     0.88637   0.33331   0.77167   0.00000  Uiso   1.00
N275   N     0.09549   0.19176   0.40218   0.00000  Uiso   1.00
N276   N     0.97782   0.43804   0.09082   0.00000  Uiso   1.00
