data_job_06634
_audit_creation_date              2018-12-19
_audit_creation_method            'Materials Studio'
_symmetry_space_group_name_H-M    'P1'
_symmetry_Int_Tables_number       1
_symmetry_cell_setting            triclinic
loop_
_symmetry_equiv_pos_as_xyz
  x,y,z
_cell_length_a                    18.9608
_cell_length_b                    21.4943
_cell_length_c                    21.6076
_cell_angle_alpha                 116.1298
_cell_angle_beta                  111.0065
_cell_angle_gamma                 70.4107
loop_
_atom_site_label
_atom_site_type_symbol
_atom_site_fract_x
_atom_site_fract_y
_atom_site_fract_z
_atom_site_U_iso_or_equiv
_atom_site_adp_type
_atom_site_occupancy
C1     C     0.53522   0.06684   0.49196   0.00000  Uiso   1.00
C2     C     0.59615   0.09810   0.49135   0.00000  Uiso   1.00
C3     C     0.66272   0.11227   0.54492   0.00000  Uiso   1.00
C4     C     0.71113   0.14087   0.53427   0.00000  Uiso   1.00
C5     C     0.80840   0.18733   0.54277   0.00000  Uiso   1.00
C6     C     0.45870   0.11949   0.48157   0.00000  Uiso   1.00
C7     C     0.40971   0.15164   0.52692   0.00000  Uiso   1.00
C8     C     0.34240   0.19824   0.50803   0.00000  Uiso   1.00
C9     C     0.22625   0.27786   0.50132   0.00000  Uiso   1.00
C10    C     0.52859   0.00048   0.42472   0.00000  Uiso   1.00
C11    C     0.53835   0.93256   0.42226   0.00000  Uiso   1.00
C12    C     0.52987   0.87896   0.35551   0.00000  Uiso   1.00
C13    C     0.52224   0.77379   0.26054   0.00000  Uiso   1.00
C14    C     0.50280   0.09243   0.37779   0.00000  Uiso   1.00
C15    C     0.57853   0.11200   0.42933   0.00000  Uiso   1.00
C16    C     0.62686   0.14058   0.41860   0.00000  Uiso   1.00
C17    C     0.69349   0.15479   0.47214   0.00000  Uiso   1.00
C18    C     0.44109   0.13339   0.41956   0.00000  Uiso   1.00
C19    C     0.37384   0.17995   0.40060   0.00000  Uiso   1.00
C20    C     0.32476   0.21216   0.44590   0.00000  Uiso   1.00
C21    C     0.51098   0.01438   0.36271   0.00000  Uiso   1.00
C22    C     0.50248   0.96087   0.29595   0.00000  Uiso   1.00
C23    C     0.51223   0.89288   0.29339   0.00000  Uiso   1.00
H24    H     0.54892   0.05603   0.54024   0.00000  Uiso   1.00
H25    H     0.67633   0.10152   0.59291   0.00000  Uiso   1.00
H26    H     0.42335   0.14087   0.57490   0.00000  Uiso   1.00
H27    H     0.55197   0.92182   0.47026   0.00000  Uiso   1.00
H28    H     0.80980   0.15811   0.62396   0.00000  Uiso   1.00
H29    H     0.27636   0.24106   0.58598   0.00000  Uiso   1.00
H30    H     0.54759   0.77916   0.36534   0.00000  Uiso   1.00
H31    H     0.48908   0.10325   0.32950   0.00000  Uiso   1.00
H32    H     0.61321   0.15133   0.37060   0.00000  Uiso   1.00
H33    H     0.36023   0.19069   0.35260   0.00000  Uiso   1.00
H34    H     0.48885   0.97164   0.24797   0.00000  Uiso   1.00
H35    H     0.75857   0.19854   0.44353   0.00000  Uiso   1.00
H36    H     0.22513   0.28150   0.40555   0.00000  Uiso   1.00
H37    H     0.49636   0.81960   0.18491   0.00000  Uiso   1.00
O38    O     0.86690   0.20912   0.56460   0.00000  Uiso   1.00
O39    O     0.16705   0.31794   0.51476   0.00000  Uiso   1.00
O40    O     0.52290   0.71195   0.22529   0.00000  Uiso   1.00
N41    N     0.78072   0.16101   0.57585   0.00000  Uiso   1.00
N42    N     0.28199   0.23858   0.54035   0.00000  Uiso   1.00
N43    N     0.53555   0.80674   0.33406   0.00000  Uiso   1.00
N44    N     0.75315   0.18277   0.47876   0.00000  Uiso   1.00
N45    N     0.25442   0.26034   0.44326   0.00000  Uiso   1.00
N46    N     0.50798   0.82850   0.23698   0.00000  Uiso   1.00
C47    C     0.48758   0.74897   0.73836   0.00000  Uiso   1.00
C48    C     0.52587   0.67478   0.69584   0.00000  Uiso   1.00
C49    C     0.59028   0.65803   0.67066   0.00000  Uiso   1.00
C50    C     0.61646   0.58702   0.63287   0.00000  Uiso   1.00
C51    C     0.68151   0.47979   0.56866   0.00000  Uiso   1.00
C52    C     0.40327   0.76066   0.69680   0.00000  Uiso   1.00
C53    C     0.36459   0.81613   0.67244   0.00000  Uiso   1.00
C54    C     0.28757   0.81742   0.63547   0.00000  Uiso   1.00
C55    C     0.16226   0.84355   0.57280   0.00000  Uiso   1.00
C56    C     0.48699   0.74544   0.80713   0.00000  Uiso   1.00
C57    C     0.51869   0.78813   0.87553   0.00000  Uiso   1.00
C58    C     0.51214   0.77662   0.93145   0.00000  Uiso   1.00
C59    C     0.51682   0.77913   0.04007   0.00000  Uiso   1.00
C60    C     0.41957   0.65264   0.71603   0.00000  Uiso   1.00
C61    C     0.48892   0.62246   0.68371   0.00000  Uiso   1.00
C62    C     0.51502   0.55145   0.64595   0.00000  Uiso   1.00
C63    C     0.57946   0.53460   0.62072   0.00000  Uiso   1.00
C64    C     0.36632   0.70834   0.68467   0.00000  Uiso   1.00
C65    C     0.28934   0.70955   0.64773   0.00000  Uiso   1.00
C66    C     0.25055   0.76500   0.62332   0.00000  Uiso   1.00
C67    C     0.45005   0.69312   0.79500   0.00000  Uiso   1.00
C68    C     0.44344   0.68155   0.85082   0.00000  Uiso   1.00
C69    C     0.47512   0.72421   0.91929   0.00000  Uiso   1.00
H70    H     0.51634   0.78970   0.74780   0.00000  Uiso   1.00
H71    H     0.61885   0.69854   0.68005   0.00000  Uiso   1.00
H72    H     0.39319   0.85662   0.68184   0.00000  Uiso   1.00
H73    H     0.54727   0.82862   0.88490   0.00000  Uiso   1.00
H74    H     0.71618   0.57440   0.59957   0.00000  Uiso   1.00
H75    H     0.24038   0.90772   0.60336   0.00000  Uiso   1.00
H76    H     0.56528   0.84869   0.03154   0.00000  Uiso   1.00
H77    H     0.39080   0.61190   0.70658   0.00000  Uiso   1.00
H78    H     0.48642   0.51097   0.63657   0.00000  Uiso   1.00
H79    H     0.26077   0.66905   0.63836   0.00000  Uiso   1.00
H80    H     0.41485   0.64106   0.84141   0.00000  Uiso   1.00
H81    H     0.60870   0.42216   0.56427   0.00000  Uiso   1.00
H82    H     0.13289   0.75549   0.56807   0.00000  Uiso   1.00
H83    H     0.45779   0.69645   0.99625   0.00000  Uiso   1.00
O84    O     0.72759   0.43510   0.53659   0.00000  Uiso   1.00
O85    O     0.10335   0.87242   0.54158   0.00000  Uiso   1.00
O86    O     0.52962   0.79496   0.10334   0.00000  Uiso   1.00
N87    N     0.67777   0.55242   0.60088   0.00000  Uiso   1.00
N88    N     0.23292   0.86405   0.60442   0.00000  Uiso   1.00
N89    N     0.53667   0.80887   0.00473   0.00000  Uiso   1.00
N90    N     0.61994   0.47050   0.58189   0.00000  Uiso   1.00
N91    N     0.17509   0.78214   0.58543   0.00000  Uiso   1.00
N92    N     0.47883   0.72695   0.98574   0.00000  Uiso   1.00
C93    C     0.49985   0.33283   0.11315   0.00000  Uiso   1.00
C94    C     0.55287   0.33314   0.18554   0.00000  Uiso   1.00
C95    C     0.61468   0.27905   0.19752   0.00000  Uiso   1.00
C96    C     0.65608   0.28949   0.26763   0.00000  Uiso   1.00
C97    C     0.74139   0.28047   0.37151   0.00000  Uiso   1.00
C98    C     0.41796   0.34494   0.11859   0.00000  Uiso   1.00
C99    C     0.36634   0.30078   0.07428   0.00000  Uiso   1.00
C100   C     0.29417   0.32116   0.08803   0.00000  Uiso   1.00
C101   C     0.17001   0.33048   0.08794   0.00000  Uiso   1.00
C102   C     0.50376   0.39903   0.10604   0.00000  Uiso   1.00
C103   C     0.52427   0.40036   0.05116   0.00000  Uiso   1.00
C104   C     0.52432   0.46628   0.05433   0.00000  Uiso   1.00
C105   C     0.53339   0.55959   0.03475   0.00000  Uiso   1.00
C106   C     0.46345   0.44754   0.21635   0.00000  Uiso   1.00
C107   C     0.53310   0.39544   0.24159   0.00000  Uiso   1.00
C108   C     0.57442   0.40597   0.31170   0.00000  Uiso   1.00
C109   C     0.63628   0.35191   0.32379   0.00000  Uiso   1.00
C110   C     0.39819   0.40724   0.17465   0.00000  Uiso   1.00
C111   C     0.32607   0.42769   0.18846   0.00000  Uiso   1.00
C112   C     0.27436   0.38357   0.14419   0.00000  Uiso   1.00
C113   C     0.48400   0.46133   0.16209   0.00000  Uiso   1.00
C114   C     0.48401   0.52727   0.16535   0.00000  Uiso   1.00
C115   C     0.50452   0.52870   0.11048   0.00000  Uiso   1.00
H116   H     0.51523   0.28433   0.06950   0.00000  Uiso   1.00
H117   H     0.62996   0.23084   0.15412   0.00000  Uiso   1.00
H118   H     0.38165   0.25257   0.03090   0.00000  Uiso   1.00
H119   H     0.53956   0.35213   0.00779   0.00000  Uiso   1.00
H120   H     0.74842   0.19901   0.27267   0.00000  Uiso   1.00
H121   H     0.22484   0.24484   0.01282   0.00000  Uiso   1.00
H122   H     0.55783   0.45479   0.96408   0.00000  Uiso   1.00
H123   H     0.44806   0.49605   0.26000   0.00000  Uiso   1.00
H124   H     0.55910   0.45419   0.35507   0.00000  Uiso   1.00
H125   H     0.31079   0.47591   0.23185   0.00000  Uiso   1.00
H126   H     0.46871   0.57547   0.20873   0.00000  Uiso   1.00
H127   H     0.69091   0.38028   0.43576   0.00000  Uiso   1.00
H128   H     0.16733   0.42611   0.17592   0.00000  Uiso   1.00
H129   H     0.50032   0.63606   0.12718   0.00000  Uiso   1.00
O130   O     0.79390   0.25828   0.41332   0.00000  Uiso   1.00
O131   O     0.10699   0.31841   0.07241   0.00000  Uiso   1.00
O132   O     0.54387   0.59385   0.00847   0.00000  Uiso   1.00
N133   N     0.71965   0.24743   0.29800   0.00000  Uiso   1.00
N134   N     0.23014   0.29026   0.05507   0.00000  Uiso   1.00
N135   N     0.54144   0.48655   0.00949   0.00000  Uiso   1.00
N136   N     0.68871   0.34497   0.38576   0.00000  Uiso   1.00
N137   N     0.19920   0.38781   0.14283   0.00000  Uiso   1.00
N138   N     0.51050   0.58409   0.09725   0.00000  Uiso   1.00
C139   C     0.96522   0.56735   0.54561   0.00000  Uiso   1.00
C140   C     0.01523   0.60087   0.61946   0.00000  Uiso   1.00
C141   C     0.08229   0.62284   0.63386   0.00000  Uiso   1.00
C142   C     0.11969   0.65224   0.70498   0.00000  Uiso   1.00
C143   C     0.20169   0.70323   0.81134   0.00000  Uiso   1.00
C144   C     0.88410   0.61370   0.54430   0.00000  Uiso   1.00
C145   C     0.84090   0.64644   0.49550   0.00000  Uiso   1.00
C146   C     0.76791   0.68663   0.50335   0.00000  Uiso   1.00
C147   C     0.64629   0.75750   0.49298   0.00000  Uiso   1.00
C148   C     0.96014   0.49649   0.54206   0.00000  Uiso   1.00
C149   C     0.98086   0.43068   0.49137   0.00000  Uiso   1.00
C150   C     0.97187   0.37219   0.49732   0.00000  Uiso   1.00
C151   C     0.96833   0.26108   0.48348   0.00000  Uiso   1.00
C152   C     0.91241   0.58049   0.64630   0.00000  Uiso   1.00
C153   C     0.98654   0.60801   0.67416   0.00000  Uiso   1.00
C154   C     0.02386   0.63738   0.74527   0.00000  Uiso   1.00
C155   C     0.09096   0.65939   0.75978   0.00000  Uiso   1.00
C156   C     0.85541   0.62084   0.59899   0.00000  Uiso   1.00
C157   C     0.78247   0.66098   0.60691   0.00000  Uiso   1.00
C158   C     0.73917   0.69379   0.55814   0.00000  Uiso   1.00
C159   C     0.93146   0.50363   0.59676   0.00000  Uiso   1.00
C160   C     0.92243   0.44522   0.60278   0.00000  Uiso   1.00
C161   C     0.94314   0.37934   0.55211   0.00000  Uiso   1.00
H162   H     0.98755   0.56179   0.50302   0.00000  Uiso   1.00
H163   H     0.10447   0.61731   0.59152   0.00000  Uiso   1.00
H164   H     0.86311   0.64090   0.45318   0.00000  Uiso   1.00
H165   H     0.00305   0.42518   0.44905   0.00000  Uiso   1.00
H166   H     0.22142   0.68204   0.71376   0.00000  Uiso   1.00
H167   H     0.71250   0.73176   0.42204   0.00000  Uiso   1.00
H168   H     0.00759   0.27686   0.41333   0.00000  Uiso   1.00
H169   H     0.89008   0.58605   0.68889   0.00000  Uiso   1.00
H170   H     0.00165   0.64290   0.78759   0.00000  Uiso   1.00
H171   H     0.76029   0.66649   0.64924   0.00000  Uiso   1.00
H172   H     0.90023   0.45077   0.64511   0.00000  Uiso   1.00
H173   H     0.13797   0.70280   0.87289   0.00000  Uiso   1.00
H174   H     0.62904   0.75253   0.58116   0.00000  Uiso   1.00
H175   H     0.92414   0.29763   0.57247   0.00000  Uiso   1.00
O176   O     0.25483   0.72940   0.85490   0.00000  Uiso   1.00
O177   O     0.58714   0.79463   0.47216   0.00000  Uiso   1.00
O178   O     0.97431   0.19782   0.46075   0.00000  Uiso   1.00
N179   N     0.18648   0.67911   0.73766   0.00000  Uiso   1.00
N180   N     0.71067   0.72561   0.46493   0.00000  Uiso   1.00
N181   N     0.98654   0.30032   0.45678   0.00000  Uiso   1.00
N182   N     0.14157   0.69028   0.82329   0.00000  Uiso   1.00
N183   N     0.66576   0.73679   0.55056   0.00000  Uiso   1.00
N184   N     0.94164   0.31150   0.54241   0.00000  Uiso   1.00
C185   C     0.96910   0.22332   0.96623   0.00000  Uiso   1.00
C186   C     0.03152   0.15681   0.96782   0.00000  Uiso   1.00
C187   C     0.09891   0.15349   0.02129   0.00000  Uiso   1.00
C188   C     0.14866   0.08763   0.01286   0.00000  Uiso   1.00
C189   C     0.24817   0.99351   0.02444   0.00000  Uiso   1.00
C190   C     0.89390   0.20633   0.95878   0.00000  Uiso   1.00
C191   C     0.84558   0.24465   0.00465   0.00000  Uiso   1.00
C192   C     0.77947   0.22047   0.98861   0.00000  Uiso   1.00
C193   C     0.66529   0.20327   0.98613   0.00000  Uiso   1.00
C194   C     0.96029   0.23073   0.89667   0.00000  Uiso   1.00
C195   C     0.96778   0.28957   0.89031   0.00000  Uiso   1.00
C196   C     0.95755   0.28595   0.82197   0.00000  Uiso   1.00
C197   C     0.94646   0.30663   0.72305   0.00000  Uiso   1.00
C198   C     0.93761   0.11227   0.85617   0.00000  Uiso   1.00
C199   C     0.01441   0.09649   0.90804   0.00000  Uiso   1.00
C200   C     0.06407   0.03062   0.89952   0.00000  Uiso   1.00
C201   C     0.13153   0.02720   0.95297   0.00000  Uiso   1.00
C202   C     0.87679   0.14601   0.89900   0.00000  Uiso   1.00
C203   C     0.81074   0.12178   0.88288   0.00000  Uiso   1.00
C204   C     0.76233   0.16004   0.92872   0.00000  Uiso   1.00
C205   C     0.94319   0.17041   0.83689   0.00000  Uiso   1.00
C206   C     0.93294   0.16670   0.76854   0.00000  Uiso   1.00
C207   C     0.94041   0.22552   0.76208   0.00000  Uiso   1.00
H208   H     0.98241   0.27029   0.01277   0.00000  Uiso   1.00
H209   H     0.11212   0.20018   0.06755   0.00000  Uiso   1.00
H210   H     0.85883   0.29133   0.05091   0.00000  Uiso   1.00
H211   H     0.98101   0.33624   0.93658   0.00000  Uiso   1.00
H212   H     0.24838   0.09585   0.10193   0.00000  Uiso   1.00
H213   H     0.71427   0.28805   0.06682   0.00000  Uiso   1.00
H214   H     0.97192   0.38276   0.82575   0.00000  Uiso   1.00
H215   H     0.92429   0.06530   0.80963   0.00000  Uiso   1.00
H216   H     0.05082   0.98394   0.85326   0.00000  Uiso   1.00
H217   H     0.79752   0.07510   0.83662   0.00000  Uiso   1.00
H218   H     0.91971   0.12001   0.72229   0.00000  Uiso   1.00
H219   H     0.19862   0.92034   0.92801   0.00000  Uiso   1.00
H220   H     0.66451   0.11255   0.89290   0.00000  Uiso   1.00
H221   H     0.92217   0.20726   0.65183   0.00000  Uiso   1.00
O222   O     0.30777   0.95827   0.04735   0.00000  Uiso   1.00
O223   O     0.60704   0.21045   0.00128   0.00000  Uiso   1.00
O224   O     0.94508   0.33470   0.68500   0.00000  Uiso   1.00
N225   N     0.21931   0.06571   0.05500   0.00000  Uiso   1.00
N226   N     0.71996   0.24540   0.02219   0.00000  Uiso   1.00
N227   N     0.96082   0.33396   0.79680   0.00000  Uiso   1.00
N228   N     0.19254   0.97127   0.96141   0.00000  Uiso   1.00
N229   N     0.69319   0.15097   0.92860   0.00000  Uiso   1.00
N230   N     0.93405   0.23952   0.70322   0.00000  Uiso   1.00
C231   C     0.05656   0.82834   0.24616   0.00000  Uiso   1.00
C232   C     0.11080   0.84280   0.21860   0.00000  Uiso   1.00
C233   C     0.18280   0.80107   0.20928   0.00000  Uiso   1.00
C234   C     0.22350   0.82334   0.18346   0.00000  Uiso   1.00
C235   C     0.31231   0.83637   0.14304   0.00000  Uiso   1.00
C236   C     0.98033   0.82571   0.18920   0.00000  Uiso   1.00
C237   C     0.94263   0.76960   0.15517   0.00000  Uiso   1.00
C238   C     0.87351   0.77748   0.10461   0.00000  Uiso   1.00
C239   C     0.75973   0.76399   0.01859   0.00000  Uiso   1.00
C240   C     0.04035   0.89448   0.31062   0.00000  Uiso   1.00
C241   C     0.05309   0.89620   0.37869   0.00000  Uiso   1.00
C242   C     0.03448   0.96199   0.43035   0.00000  Uiso   1.00
C243   C     0.01389   0.05529   0.53286   0.00000  Uiso   1.00
C244   C     0.00081   0.94211   0.21688   0.00000  Uiso   1.00
C245   C     0.08051   0.90460   0.20269   0.00000  Uiso   1.00
C246   C     0.12112   0.92694   0.17688   0.00000  Uiso   1.00
C247   C     0.19317   0.88524   0.16753   0.00000  Uiso   1.00
C248   C     0.95005   0.88750   0.17329   0.00000  Uiso   1.00
C249   C     0.88095   0.89547   0.12278   0.00000  Uiso   1.00
C250   C     0.84317   0.83939   0.08868   0.00000  Uiso   1.00
C251   C     0.01007   0.95628   0.29472   0.00000  Uiso   1.00
C252   C     0.99142   0.02208   0.34629   0.00000  Uiso   1.00
C253   C     0.00414   0.02390   0.41442   0.00000  Uiso   1.00
H254   H     0.08013   0.78023   0.25854   0.00000  Uiso   1.00
H255   H     0.20621   0.75324   0.22159   0.00000  Uiso   1.00
H256   H     0.96608   0.72179   0.16750   0.00000  Uiso   1.00
H257   H     0.07653   0.84837   0.39097   0.00000  Uiso   1.00
H258   H     0.33263   0.75056   0.17358   0.00000  Uiso   1.00
H259   H     0.82628   0.68424   0.05954   0.00000  Uiso   1.00
H260   H     0.05918   0.95117   0.53079   0.00000  Uiso   1.00
H261   H     0.97723   0.99023   0.20450   0.00000  Uiso   1.00
H262   H     0.09767   0.97476   0.16458   0.00000  Uiso   1.00
H263   H     0.85754   0.94330   0.11048   0.00000  Uiso   1.00
H264   H     0.96799   0.06989   0.33396   0.00000  Uiso   1.00
H265   H     0.24453   0.93035   0.12730   0.00000  Uiso   1.00
H266   H     0.73818   0.86403   0.01327   0.00000  Uiso   1.00
H267   H     0.97109   0.13096   0.48451   0.00000  Uiso   1.00
O268   O     0.36965   0.82648   0.12513   0.00000  Uiso   1.00
O269   O     0.70534   0.73947   0.97553   0.00000  Uiso   1.00
O270   O     0.01091   0.08968   0.59379   0.00000  Uiso   1.00
N271   N     0.29537   0.79500   0.16818   0.00000  Uiso   1.00
N272   N     0.82198   0.73299   0.06155   0.00000  Uiso   1.00
N273   N     0.03970   0.98255   0.50212   0.00000  Uiso   1.00
N274   N     0.24797   0.89175   0.14328   0.00000  Uiso   1.00
N275   N     0.77457   0.82973   0.03665   0.00000  Uiso   1.00
N276   N     0.99229   0.07929   0.47722   0.00000  Uiso   1.00
C277   C     0.42447   0.69840   0.35342   0.00000  Uiso   1.00
C278   C     0.36492   0.66152   0.34742   0.00000  Uiso   1.00
C279   C     0.30404   0.64183   0.28870   0.00000  Uiso   1.00
C280   C     0.25593   0.60865   0.29370   0.00000  Uiso   1.00
C281   C     0.16159   0.55332   0.27501   0.00000  Uiso   1.00
C282   C     0.50325   0.65116   0.37125   0.00000  Uiso   1.00
C283   C     0.55868   0.62278   0.33257   0.00000  Uiso   1.00
C284   C     0.62703   0.58088   0.35765   0.00000  Uiso   1.00
C285   C     0.74747   0.50952   0.37599   0.00000  Uiso   1.00
C286   C     0.42090   0.76611   0.41924   0.00000  Uiso   1.00
C287   C     0.40712   0.83439   0.42091   0.00000  Uiso   1.00
C288   C     0.40615   0.88927   0.48639   0.00000  Uiso   1.00
C289   C     0.39874   0.99640   0.57923   0.00000  Uiso   1.00
C290   C     0.44729   0.67447   0.46673   0.00000  Uiso   1.00
C291   C     0.37731   0.64851   0.40897   0.00000  Uiso   1.00
C292   C     0.32928   0.61535   0.41407   0.00000  Uiso   1.00
C293   C     0.26834   0.59562   0.35536   0.00000  Uiso   1.00
C294   C     0.51564   0.63816   0.43280   0.00000  Uiso   1.00
C295   C     0.58393   0.59630   0.45794   0.00000  Uiso   1.00
C296   C     0.63944   0.56786   0.41931   0.00000  Uiso   1.00
C297   C     0.43329   0.75311   0.48079   0.00000  Uiso   1.00
C298   C     0.43236   0.80790   0.54628   0.00000  Uiso   1.00
C299   C     0.41857   0.87625   0.54805   0.00000  Uiso   1.00
H300   H     0.41483   0.70852   0.30550   0.00000  Uiso   1.00
H301   H     0.29447   0.65190   0.24107   0.00000  Uiso   1.00
H302   H     0.54908   0.63286   0.28495   0.00000  Uiso   1.00
H303   H     0.39753   0.84443   0.37327   0.00000  Uiso   1.00
H304   H     0.16651   0.58337   0.19678   0.00000  Uiso   1.00
H305   H     0.70337   0.54323   0.28930   0.00000  Uiso   1.00
H306   H     0.38381   0.98938   0.47555   0.00000  Uiso   1.00
H307   H     0.45694   0.66434   0.51465   0.00000  Uiso   1.00
H308   H     0.33889   0.60530   0.46170   0.00000  Uiso   1.00
H309   H     0.59350   0.58625   0.50558   0.00000  Uiso   1.00
H310   H     0.44195   0.79782   0.59390   0.00000  Uiso   1.00
H311   H     0.20257   0.54554   0.37584   0.00000  Uiso   1.00
H312   H     0.73943   0.50541   0.46837   0.00000  Uiso   1.00
H313   H     0.41986   0.95155   0.65462   0.00000  Uiso   1.00
O314   O     0.10614   0.52639   0.24769   0.00000  Uiso   1.00
O315   O     0.81048   0.47375   0.36909   0.00000  Uiso   1.00
O316   O     0.39121   0.05907   0.61344   0.00000  Uiso   1.00
N317   N     0.19119   0.58258   0.24619   0.00000  Uiso   1.00
N318   N     0.69312   0.54505   0.33269   0.00000  Uiso   1.00
N319   N     0.39437   0.96215   0.50682   0.00000  Uiso   1.00
N320   N     0.21059   0.56223   0.34255   0.00000  Uiso   1.00
N321   N     0.71252   0.52470   0.42905   0.00000  Uiso   1.00
N322   N     0.41377   0.94180   0.60317   0.00000  Uiso   1.00
C323   C     0.48363   0.01586   0.11158   0.00000  Uiso   1.00
C324   C     0.44465   0.08990   0.15371   0.00000  Uiso   1.00
C325   C     0.38142   0.10600   0.18025   0.00000  Uiso   1.00
C326   C     0.35432   0.17699   0.21740   0.00000  Uiso   1.00
C327   C     0.28850   0.28391   0.28129   0.00000  Uiso   1.00
C328   C     0.56845   0.00583   0.15220   0.00000  Uiso   1.00
C329   C     0.60931   0.95123   0.17745   0.00000  Uiso   1.00
C330   C     0.68643   0.95144   0.21331   0.00000  Uiso   1.00
C331   C     0.81283   0.92780   0.27481   0.00000  Uiso   1.00
C332   C     0.48188   0.01862   0.04172   0.00000  Uiso   1.00
C333   C     0.44996   0.97476   0.97407   0.00000  Uiso   1.00
C334   C     0.45421   0.98573   0.91691   0.00000  Uiso   1.00
C335   C     0.44619   0.98195   0.80687   0.00000  Uiso   1.00
C336   C     0.54795   0.11330   0.13037   0.00000  Uiso   1.00
C337   C     0.47959   0.14282   0.16392   0.00000  Uiso   1.00
C338   C     0.45258   0.21381   0.20103   0.00000  Uiso   1.00
C339   C     0.38931   0.23001   0.22761   0.00000  Uiso   1.00
C340   C     0.60339   0.05875   0.16240   0.00000  Uiso   1.00
C341   C     0.68047   0.05904   0.19823   0.00000  Uiso   1.00
C342   C     0.72143   0.00446   0.22353   0.00000  Uiso   1.00
C343   C     0.51681   0.07154   0.05192   0.00000  Uiso   1.00
C344   C     0.52112   0.08257   0.99485   0.00000  Uiso   1.00
C345   C     0.48921   0.03875   0.92713   0.00000  Uiso   1.00
H346   H     0.45644   0.97465   0.10364   0.00000  Uiso   1.00
H347   H     0.35440   0.06503   0.17235   0.00000  Uiso   1.00
H348   H     0.58226   0.91028   0.16954   0.00000  Uiso   1.00
H349   H     0.42293   0.93381   0.96619   0.00000  Uiso   1.00
H350   H     0.25670   0.18857   0.25304   0.00000  Uiso   1.00
H351   H     0.73715   0.86226   0.24710   0.00000  Uiso   1.00
H352   H     0.40118   0.91188   0.81830   0.00000  Uiso   1.00
H353   H     0.57516   0.15450   0.13831   0.00000  Uiso   1.00
H354   H     0.47963   0.25475   0.20892   0.00000  Uiso   1.00
H355   H     0.70749   0.10000   0.20611   0.00000  Uiso   1.00
H356   H     0.54816   0.12353   0.00277   0.00000  Uiso   1.00
H357   H     0.35834   0.34255   0.28273   0.00000  Uiso   1.00
H358   H     0.83880   0.01624   0.27679   0.00000  Uiso   1.00
H359   H     0.50283   0.06586   0.84799   0.00000  Uiso   1.00
O360   O     0.24255   0.32826   0.31373   0.00000  Uiso   1.00
O361   O     0.87289   0.90014   0.30592   0.00000  Uiso   1.00
O362   O     0.43210   0.96525   0.74335   0.00000  Uiso   1.00
N363   N     0.29372   0.21105   0.25032   0.00000  Uiso   1.00
N364   N     0.74291   0.90598   0.24478   0.00000  Uiso   1.00
N365   N     0.42883   0.95235   0.84389   0.00000  Uiso   1.00
N366   N     0.34841   0.29391   0.26630   0.00000  Uiso   1.00
N367   N     0.79761   0.98883   0.26076   0.00000  Uiso   1.00
N368   N     0.48352   0.03521   0.85986   0.00000  Uiso   1.00
C369   C     0.48123   0.43161   0.73919   0.00000  Uiso   1.00
C370   C     0.42588   0.42865   0.66693   0.00000  Uiso   1.00
C371   C     0.35744   0.47725   0.65540   0.00000  Uiso   1.00
C372   C     0.31496   0.46519   0.58534   0.00000  Uiso   1.00
C373   C     0.22521   0.46953   0.48173   0.00000  Uiso   1.00
C374   C     0.55971   0.43111   0.73434   0.00000  Uiso   1.00
C375   C     0.60379   0.48177   0.77948   0.00000  Uiso   1.00
C376   C     0.67397   0.47176   0.76617   0.00000  Uiso   1.00
C377   C     0.79203   0.47988   0.76724   0.00000  Uiso   1.00
C378   C     0.48980   0.36117   0.74509   0.00000  Uiso   1.00
C379   C     0.47512   0.35303   0.79928   0.00000  Uiso   1.00
C380   C     0.48646   0.28414   0.79503   0.00000  Uiso   1.00
C381   C     0.49597   0.18367   0.81279   0.00000  Uiso   1.00
C382   C     0.52749   0.32376   0.63529   0.00000  Uiso   1.00
C383   C     0.45101   0.37007   0.61050   0.00000  Uiso   1.00
C384   C     0.40862   0.35793   0.54044   0.00000  Uiso   1.00
C385   C     0.34013   0.40651   0.52881   0.00000  Uiso   1.00
C386   C     0.58484   0.37253   0.67791   0.00000  Uiso   1.00
C387   C     0.65497   0.36244   0.66453   0.00000  Uiso   1.00
C388   C     0.69915   0.41308   0.70964   0.00000  Uiso   1.00
C389   C     0.51492   0.30259   0.68865   0.00000  Uiso   1.00
C390   C     0.52630   0.23370   0.68432   0.00000  Uiso   1.00
C391   C     0.51164   0.22545   0.73849   0.00000  Uiso   1.00
H392   H     0.46167   0.47722   0.78313   0.00000  Uiso   1.00
H393   H     0.33802   0.52259   0.69909   0.00000  Uiso   1.00
H394   H     0.58434   0.52709   0.82315   0.00000  Uiso   1.00
H395   H     0.45568   0.39837   0.84294   0.00000  Uiso   1.00
H396   H     0.21202   0.54706   0.58102   0.00000  Uiso   1.00
H397   H     0.73141   0.55655   0.84264   0.00000  Uiso   1.00
H398   H     0.46012   0.28512   0.88438   0.00000  Uiso   1.00
H399   H     0.54705   0.27815   0.59135   0.00000  Uiso   1.00
H400   H     0.42808   0.31259   0.49678   0.00000  Uiso   1.00
H401   H     0.67440   0.31710   0.62085   0.00000  Uiso   1.00
H402   H     0.54574   0.18838   0.64064   0.00000  Uiso   1.00
H403   H     0.28512   0.37663   0.41682   0.00000  Uiso   1.00
H404   H     0.80451   0.38612   0.67845   0.00000  Uiso   1.00
H405   H     0.53321   0.11469   0.72018   0.00000  Uiso   1.00
O406   O     0.16878   0.48811   0.44017   0.00000  Uiso   1.00
O407   O     0.85020   0.50055   0.78342   0.00000  Uiso   1.00
O408   O     0.49426   0.14444   0.83817   0.00000  Uiso   1.00
N409   N     0.24554   0.50222   0.55536   0.00000  Uiso   1.00
N410   N     0.73114   0.51110   0.79995   0.00000  Uiso   1.00
N411   N     0.47752   0.25733   0.83898   0.00000  Uiso   1.00
N412   N     0.28488   0.41051   0.46700   0.00000  Uiso   1.00
N413   N     0.77047   0.41939   0.71160   0.00000  Uiso   1.00
N414   N     0.51685   0.16562   0.75062   0.00000  Uiso   1.00
C415   C     0.96565   0.18618   0.25845   0.00000  Uiso   1.00
C416   C     0.92636   0.14024   0.18470   0.00000  Uiso   1.00
C417   C     0.86151   0.11419   0.16831   0.00000  Uiso   1.00
C418   C     0.83441   0.07315   0.09768   0.00000  Uiso   1.00
C419   C     0.76789   0.00398   0.99112   0.00000  Uiso   1.00
C420   C     0.04969   0.14692   0.27349   0.00000  Uiso   1.00
C421   C     0.08852   0.12649   0.33177   0.00000  Uiso   1.00
C422   C     0.16524   0.09108   0.33588   0.00000  Uiso   1.00
C423   C     0.29019   0.03233   0.36722   0.00000  Uiso   1.00
C424   C     0.96695   0.25316   0.25115   0.00000  Uiso   1.00
C425   C     0.93623   0.32208   0.29066   0.00000  Uiso   1.00
C426   C     0.94331   0.37612   0.27597   0.00000  Uiso   1.00
C427   C     0.93979   0.48233   0.27261   0.00000  Uiso   1.00
C428   C     0.03284   0.15962   0.16213   0.00000  Uiso   1.00
C429   C     0.96287   0.12581   0.13238   0.00000  Uiso   1.00
C430   C     0.93586   0.08480   0.06175   0.00000  Uiso   1.00
C431   C     0.87098   0.05870   0.04526   0.00000  Uiso   1.00
C432   C     0.08619   0.13249   0.22118   0.00000  Uiso   1.00
C433   C     0.16287   0.09711   0.22521   0.00000  Uiso   1.00
C434   C     0.20181   0.07663   0.28347   0.00000  Uiso   1.00
C435   C     0.00344   0.23874   0.19884   0.00000  Uiso   1.00
C436   C     0.01058   0.29269   0.18409   0.00000  Uiso   1.00
C437   C     0.97988   0.36167   0.22356   0.00000  Uiso   1.00
H438   H     0.93724   0.19741   0.29918   0.00000  Uiso   1.00
H439   H     0.83329   0.12536   0.20882   0.00000  Uiso   1.00
H440   H     0.06026   0.13767   0.37225   0.00000  Uiso   1.00
H441   H     0.90799   0.33322   0.33114   0.00000  Uiso   1.00
H442   H     0.73415   0.03910   0.08557   0.00000  Uiso   1.00
H443   H     0.21275   0.06508   0.43019   0.00000  Uiso   1.00
H444   H     0.89166   0.47743   0.34350   0.00000  Uiso   1.00
H445   H     0.06126   0.14839   0.12140   0.00000  Uiso   1.00
H446   H     0.96412   0.07365   0.02128   0.00000  Uiso   1.00
H447   H     0.19109   0.08596   0.18471   0.00000  Uiso   1.00
H448   H     0.03882   0.28151   0.14360   0.00000  Uiso   1.00
H449   H     0.84034   0.99712   0.93335   0.00000  Uiso   1.00
H450   H     0.31894   0.02311   0.27798   0.00000  Uiso   1.00
H451   H     0.99785   0.43546   0.19128   0.00000  Uiso   1.00
O452   O     0.72112   0.96981   0.94681   0.00000  Uiso   1.00
O453   O     0.34903   0.00391   0.39895   0.00000  Uiso   1.00
O454   O     0.92776   0.54491   0.28521   0.00000  Uiso   1.00
N455   N     0.77247   0.03949   0.06348   0.00000  Uiso   1.00
N456   N     0.21993   0.06377   0.38568   0.00000  Uiso   1.00
N457   N     0.91975   0.44928   0.30464   0.00000  Uiso   1.00
N458   N     0.82961   0.01690   0.98157   0.00000  Uiso   1.00
N459   N     0.27707   0.04118   0.30377   0.00000  Uiso   1.00
N460   N     0.97689   0.42670   0.22274   0.00000  Uiso   1.00
C461   C     0.99705   0.53148   0.92107   0.00000  Uiso   1.00
C462   C     0.98703   0.60906   0.93311   0.00000  Uiso   1.00
C463   C     0.94680   0.64045   0.88278   0.00000  Uiso   1.00
C464   C     0.94433   0.71211   0.90425   0.00000  Uiso   1.00
C465   C     0.92324   0.82666   0.91239   0.00000  Uiso   1.00
C466   C     0.08398   0.50244   0.94010   0.00000  Uiso   1.00
C467   C     0.12526   0.44416   0.89565   0.00000  Uiso   1.00
C468   C     0.20441   0.42606   0.92301   0.00000  Uiso   1.00
C469   C     0.33383   0.37504   0.94202   0.00000  Uiso   1.00
C470   C     0.96618   0.53190   0.97746   0.00000  Uiso   1.00
C471   C     0.90843   0.49839   0.96442   0.00000  Uiso   1.00
C472   C     0.88841   0.50508   0.02322   0.00000  Uiso   1.00
C473   C     0.83493   0.49982   0.10023   0.00000  Uiso   1.00
C474   C     0.06419   0.60293   0.04870   0.00000  Uiso   1.00
C475   C     0.02350   0.64787   0.00243   0.00000  Uiso   1.00
C476   C     0.02108   0.71950   0.02398   0.00000  Uiso   1.00
C477   C     0.98086   0.75099   0.97370   0.00000  Uiso   1.00
C478   C     0.12045   0.54125   0.00942   0.00000  Uiso   1.00
C479   C     0.19954   0.52322   0.03685   0.00000  Uiso   1.00
C480   C     0.24094   0.46494   0.99245   0.00000  Uiso   1.00
C481   C     0.00264   0.57072   0.04678   0.00000  Uiso   1.00
C482   C     0.98271   0.57745   0.10562   0.00000  Uiso   1.00
C483   C     0.92494   0.54396   0.09267   0.00000  Uiso   1.00
H484   H     0.96867   0.50126   0.86710   0.00000  Uiso   1.00
H485   H     0.91859   0.61039   0.82914   0.00000  Uiso   1.00
H486   H     0.09703   0.41414   0.84201   0.00000  Uiso   1.00
H487   H     0.88023   0.46836   0.91077   0.00000  Uiso   1.00
H488   H     0.87918   0.74849   0.81762   0.00000  Uiso   1.00
H489   H     0.25541   0.33467   0.84476   0.00000  Uiso   1.00
H490   H     0.79825   0.44900   0.98974   0.00000  Uiso   1.00
H491   H     0.09259   0.63315   0.10267   0.00000  Uiso   1.00
H492   H     0.04931   0.74952   0.07763   0.00000  Uiso   1.00
H493   H     0.22774   0.55326   0.09050   0.00000  Uiso   1.00
H494   H     0.01094   0.60749   0.15925   0.00000  Uiso   1.00
H495   H     0.98528   0.86142   0.01930   0.00000  Uiso   1.00
H496   H     0.36151   0.44758   0.04644   0.00000  Uiso   1.00
H497   H     0.90434   0.56192   0.19143   0.00000  Uiso   1.00
O498   O     0.90155   0.87912   0.89773   0.00000  Uiso   1.00
O499   O     0.39514   0.33619   0.93335   0.00000  Uiso   1.00
O500   O     0.79535   0.48620   0.12356   0.00000  Uiso   1.00
N501   N     0.91008   0.75910   0.86852   0.00000  Uiso   1.00
N502   N     0.26183   0.37220   0.89389   0.00000  Uiso   1.00
N503   N     0.83444   0.47908   0.02944   0.00000  Uiso   1.00
N504   N     0.96717   0.81987   0.97705   0.00000  Uiso   1.00
N505   N     0.31892   0.43297   0.00242   0.00000  Uiso   1.00
N506   N     0.89152   0.53985   0.13797   0.00000  Uiso   1.00
C507   C     0.93402   0.93641   0.60512   0.00000  Uiso   1.00
C508   C     0.86955   0.93941   0.63352   0.00000  Uiso   1.00
C509   C     0.80841   0.99653   0.64911   0.00000  Uiso   1.00
C510   C     0.75544   0.98882   0.67459   0.00000  Uiso   1.00
C511   C     0.65414   0.00302   0.71728   0.00000  Uiso   1.00
C512   C     0.00949   0.91912   0.65767   0.00000  Uiso   1.00
C513   C     0.06602   0.95917   0.69354   0.00000  Uiso   1.00
C514   C     0.13087   0.93438   0.73934   0.00000  Uiso   1.00
C515   C     0.24686   0.91704   0.81947   0.00000  Uiso   1.00
C516   C     0.93306   0.87173   0.53619   0.00000  Uiso   1.00
C517   C     0.92534   0.87192   0.46993   0.00000  Uiso   1.00
C518   C     0.92585   0.80722   0.41346   0.00000  Uiso   1.00
C519   C     0.92317   0.71630   0.30498   0.00000  Uiso   1.00
C520   C     0.94867   0.82116   0.62265   0.00000  Uiso   1.00
C521   C     0.87751   0.87681   0.64305   0.00000  Uiso   1.00
C522   C     0.82461   0.86901   0.66851   0.00000  Uiso   1.00
C523   C     0.76340   0.92611   0.68413   0.00000  Uiso   1.00
C524   C     0.01745   0.85652   0.66719   0.00000  Uiso   1.00
C525   C     0.08223   0.83166   0.71294   0.00000  Uiso   1.00
C526   C     0.13884   0.87166   0.74888   0.00000  Uiso   1.00
C527   C     0.94101   0.80912   0.54571   0.00000  Uiso   1.00
C528   C     0.94154   0.74441   0.48933   0.00000  Uiso   1.00
C529   C     0.93382   0.74451   0.42300   0.00000  Uiso   1.00
H530   H     0.92783   0.98515   0.59771   0.00000  Uiso   1.00
H531   H     0.80227   0.04497   0.64174   0.00000  Uiso   1.00
H532   H     0.05985   0.00761   0.68615   0.00000  Uiso   1.00
H533   H     0.91918   0.92038   0.46258   0.00000  Uiso   1.00
H534   H     0.66660   0.08369   0.69478   0.00000  Uiso   1.00
H535   H     0.20973   0.00491   0.78842   0.00000  Uiso   1.00
H536   H     0.91311   0.82096   0.31697   0.00000  Uiso   1.00
H537   H     0.95486   0.77242   0.63007   0.00000  Uiso   1.00
H538   H     0.83079   0.82056   0.67588   0.00000  Uiso   1.00
H539   H     0.08837   0.78321   0.72030   0.00000  Uiso   1.00
H540   H     0.94770   0.69598   0.49672   0.00000  Uiso   1.00
H541   H     0.68974   0.90156   0.72249   0.00000  Uiso   1.00
H542   H     0.23288   0.82278   0.81613   0.00000  Uiso   1.00
H543   H     0.93625   0.63883   0.34468   0.00000  Uiso   1.00
O544   O     0.59608   0.02814   0.73821   0.00000  Uiso   1.00
O545   O     0.30865   0.92478   0.86104   0.00000  Uiso   1.00
O546   O     0.91948   0.68344   0.24251   0.00000  Uiso   1.00
N547   N     0.68906   0.03421   0.69500   0.00000  Uiso   1.00
N548   N     0.19685   0.96056   0.78256   0.00000  Uiso   1.00
N549   N     0.91956   0.78858   0.34179   0.00000  Uiso   1.00
N550   N     0.70152   0.93621   0.70991   0.00000  Uiso   1.00
N551   N     0.20931   0.86256   0.79747   0.00000  Uiso   1.00
N552   N     0.93201   0.69058   0.35670   0.00000  Uiso   1.00
