data_job_03967
_audit_creation_date              2018-12-19
_audit_creation_method            'Materials Studio'
_symmetry_space_group_name_H-M    'P1'
_symmetry_Int_Tables_number       1
_symmetry_cell_setting            triclinic
loop_
_symmetry_equiv_pos_as_xyz
  x,y,z
_cell_length_a                    23.9964
_cell_length_b                    19.0845
_cell_length_c                    15.9079
_cell_angle_alpha                 90.0000
_cell_angle_beta                  90.0000
_cell_angle_gamma                 90.0000
loop_
_atom_site_label
_atom_site_type_symbol
_atom_site_fract_x
_atom_site_fract_y
_atom_site_fract_z
_atom_site_U_iso_or_equiv
_atom_site_adp_type
_atom_site_occupancy
C1     C     0.86722   0.57742   0.58184   0.00000  Uiso   1.00
C2     C     0.91395   0.60975   0.52972   0.00000  Uiso   1.00
C3     C     0.93297   0.58510   0.45283   0.00000  Uiso   1.00
C4     C     0.97612   0.62202   0.41515   0.00000  Uiso   1.00
C5     C     0.04516   0.66315   0.32847   0.00000  Uiso   1.00
C6     C     0.89234   0.56185   0.66789   0.00000  Uiso   1.00
C7     C     0.89320   0.49693   0.70717   0.00000  Uiso   1.00
C8     C     0.91815   0.49353   0.78581   0.00000  Uiso   1.00
C9     C     0.95362   0.46031   0.91366   0.00000  Uiso   1.00
C10    C     0.82469   0.63565   0.59577   0.00000  Uiso   1.00
C11    C     0.76866   0.63277   0.57444   0.00000  Uiso   1.00
C12    C     0.73665   0.69150   0.59239   0.00000  Uiso   1.00
C13    C     0.66707   0.77286   0.60827   0.00000  Uiso   1.00
C14    C     0.91000   0.68683   0.65166   0.00000  Uiso   1.00
C15    C     0.93719   0.66917   0.56764   0.00000  Uiso   1.00
C16    C     0.98031   0.70615   0.53007   0.00000  Uiso   1.00
C17    C     0.99940   0.68155   0.45314   0.00000  Uiso   1.00
C18    C     0.91558   0.62127   0.70581   0.00000  Uiso   1.00
C19    C     0.94054   0.61798   0.78441   0.00000  Uiso   1.00
C20    C     0.94144   0.55307   0.82380   0.00000  Uiso   1.00
C21    C     0.84793   0.69508   0.63369   0.00000  Uiso   1.00
C22    C     0.81600   0.75382   0.65168   0.00000  Uiso   1.00
C23    C     0.75993   0.75103   0.63038   0.00000  Uiso   1.00
H24    H     0.84913   0.53115   0.55232   0.00000  Uiso   1.00
H25    H     0.91498   0.53910   0.42350   0.00000  Uiso   1.00
H26    H     0.87521   0.45095   0.67781   0.00000  Uiso   1.00
H27    H     0.75069   0.58677   0.54510   0.00000  Uiso   1.00
H28    H     0.99825   0.57410   0.29742   0.00000  Uiso   1.00
H29    H     0.91438   0.38823   0.83365   0.00000  Uiso   1.00
H30    H     0.65180   0.67464   0.55381   0.00000  Uiso   1.00
H31    H     0.92810   0.73310   0.68118   0.00000  Uiso   1.00
H32    H     0.99829   0.75213   0.55943   0.00000  Uiso   1.00
H33    H     0.95852   0.66398   0.81374   0.00000  Uiso   1.00
H34    H     0.83400   0.79980   0.68103   0.00000  Uiso   1.00
H35    H     0.06587   0.74700   0.40775   0.00000  Uiso   1.00
H36    H     0.98199   0.56113   0.94398   0.00000  Uiso   1.00
H37    H     0.71942   0.84754   0.66413   0.00000  Uiso   1.00
O38    O     0.07682   0.66941   0.27018   0.00000  Uiso   1.00
O39    O     0.96677   0.42556   0.97370   0.00000  Uiso   1.00
O40    O     0.62228   0.80132   0.60654   0.00000  Uiso   1.00
N41    N     0.00453   0.61219   0.34009   0.00000  Uiso   1.00
N42    N     0.92611   0.43841   0.84143   0.00000  Uiso   1.00
N43    N     0.68063   0.70617   0.57981   0.00000  Uiso   1.00
N44    N     0.04091   0.70523   0.39945   0.00000  Uiso   1.00
N45    N     0.96250   0.53145   0.90079   0.00000  Uiso   1.00
N46    N     0.71701   0.79921   0.63918   0.00000  Uiso   1.00
C47    C     0.63278   0.42258   0.58184   0.00000  Uiso   1.00
C48    C     0.58605   0.39025   0.52972   0.00000  Uiso   1.00
C49    C     0.56703   0.41490   0.45283   0.00000  Uiso   1.00
C50    C     0.52388   0.37798   0.41515   0.00000  Uiso   1.00
C51    C     0.45484   0.33685   0.32847   0.00000  Uiso   1.00
C52    C     0.60766   0.43815   0.66789   0.00000  Uiso   1.00
C53    C     0.60680   0.50307   0.70717   0.00000  Uiso   1.00
C54    C     0.58185   0.50647   0.78581   0.00000  Uiso   1.00
C55    C     0.54638   0.53969   0.91366   0.00000  Uiso   1.00
C56    C     0.67531   0.36435   0.59577   0.00000  Uiso   1.00
C57    C     0.73134   0.36723   0.57444   0.00000  Uiso   1.00
C58    C     0.76335   0.30850   0.59239   0.00000  Uiso   1.00
C59    C     0.83293   0.22714   0.60827   0.00000  Uiso   1.00
C60    C     0.59000   0.31317   0.65166   0.00000  Uiso   1.00
C61    C     0.56281   0.33083   0.56764   0.00000  Uiso   1.00
C62    C     0.51969   0.29385   0.53007   0.00000  Uiso   1.00
C63    C     0.50060   0.31845   0.45314   0.00000  Uiso   1.00
C64    C     0.58442   0.37873   0.70581   0.00000  Uiso   1.00
C65    C     0.55946   0.38202   0.78441   0.00000  Uiso   1.00
C66    C     0.55856   0.44693   0.82380   0.00000  Uiso   1.00
C67    C     0.65207   0.30492   0.63369   0.00000  Uiso   1.00
C68    C     0.68400   0.24618   0.65168   0.00000  Uiso   1.00
C69    C     0.74007   0.24897   0.63038   0.00000  Uiso   1.00
H70    H     0.65087   0.46885   0.55232   0.00000  Uiso   1.00
H71    H     0.58502   0.46090   0.42350   0.00000  Uiso   1.00
H72    H     0.62479   0.54905   0.67781   0.00000  Uiso   1.00
H73    H     0.74931   0.41323   0.54510   0.00000  Uiso   1.00
H74    H     0.50175   0.42590   0.29742   0.00000  Uiso   1.00
H75    H     0.58562   0.61177   0.83365   0.00000  Uiso   1.00
H76    H     0.84820   0.32536   0.55381   0.00000  Uiso   1.00
H77    H     0.57190   0.26690   0.68118   0.00000  Uiso   1.00
H78    H     0.50171   0.24787   0.55943   0.00000  Uiso   1.00
H79    H     0.54148   0.33602   0.81374   0.00000  Uiso   1.00
H80    H     0.66600   0.20020   0.68103   0.00000  Uiso   1.00
H81    H     0.43413   0.25300   0.40775   0.00000  Uiso   1.00
H82    H     0.51801   0.43887   0.94398   0.00000  Uiso   1.00
H83    H     0.78058   0.15246   0.66413   0.00000  Uiso   1.00
O84    O     0.42318   0.33059   0.27018   0.00000  Uiso   1.00
O85    O     0.53323   0.57444   0.97370   0.00000  Uiso   1.00
O86    O     0.87772   0.19868   0.60654   0.00000  Uiso   1.00
N87    N     0.49547   0.38781   0.34009   0.00000  Uiso   1.00
N88    N     0.57389   0.56159   0.84143   0.00000  Uiso   1.00
N89    N     0.81937   0.29383   0.57981   0.00000  Uiso   1.00
N90    N     0.45909   0.29477   0.39945   0.00000  Uiso   1.00
N91    N     0.53750   0.46855   0.90079   0.00000  Uiso   1.00
N92    N     0.78299   0.20079   0.63918   0.00000  Uiso   1.00
C93    C     0.63278   0.07742   0.91816   0.00000  Uiso   1.00
C94    C     0.58605   0.10975   0.97028   0.00000  Uiso   1.00
C95    C     0.56703   0.08510   0.04717   0.00000  Uiso   1.00
C96    C     0.52388   0.12202   0.08485   0.00000  Uiso   1.00
C97    C     0.45484   0.16315   0.17153   0.00000  Uiso   1.00
C98    C     0.60766   0.06185   0.83211   0.00000  Uiso   1.00
C99    C     0.60680   0.99693   0.79283   0.00000  Uiso   1.00
C100   C     0.58185   0.99353   0.71419   0.00000  Uiso   1.00
C101   C     0.54638   0.96031   0.58634   0.00000  Uiso   1.00
C102   C     0.67531   0.13565   0.90423   0.00000  Uiso   1.00
C103   C     0.73134   0.13277   0.92556   0.00000  Uiso   1.00
C104   C     0.76335   0.19150   0.90761   0.00000  Uiso   1.00
C105   C     0.83293   0.27286   0.89173   0.00000  Uiso   1.00
C106   C     0.59000   0.18683   0.84834   0.00000  Uiso   1.00
C107   C     0.56281   0.16917   0.93236   0.00000  Uiso   1.00
C108   C     0.51969   0.20615   0.96993   0.00000  Uiso   1.00
C109   C     0.50060   0.18155   0.04686   0.00000  Uiso   1.00
C110   C     0.58442   0.12127   0.79419   0.00000  Uiso   1.00
C111   C     0.55946   0.11798   0.71559   0.00000  Uiso   1.00
C112   C     0.55856   0.05307   0.67620   0.00000  Uiso   1.00
C113   C     0.65207   0.19508   0.86631   0.00000  Uiso   1.00
C114   C     0.68400   0.25382   0.84832   0.00000  Uiso   1.00
C115   C     0.74007   0.25103   0.86962   0.00000  Uiso   1.00
H116   H     0.65087   0.03115   0.94768   0.00000  Uiso   1.00
H117   H     0.58502   0.03910   0.07650   0.00000  Uiso   1.00
H118   H     0.62479   0.95095   0.82219   0.00000  Uiso   1.00
H119   H     0.74931   0.08677   0.95490   0.00000  Uiso   1.00
H120   H     0.50175   0.07410   0.20258   0.00000  Uiso   1.00
H121   H     0.58562   0.88823   0.66635   0.00000  Uiso   1.00
H122   H     0.84820   0.17464   0.94619   0.00000  Uiso   1.00
H123   H     0.57190   0.23310   0.81882   0.00000  Uiso   1.00
H124   H     0.50171   0.25213   0.94057   0.00000  Uiso   1.00
H125   H     0.54148   0.16398   0.68626   0.00000  Uiso   1.00
H126   H     0.66600   0.29980   0.81897   0.00000  Uiso   1.00
H127   H     0.43413   0.24700   0.09225   0.00000  Uiso   1.00
H128   H     0.51801   0.06113   0.55602   0.00000  Uiso   1.00
H129   H     0.78058   0.34754   0.83587   0.00000  Uiso   1.00
O130   O     0.42318   0.16941   0.22982   0.00000  Uiso   1.00
O131   O     0.53323   0.92556   0.52630   0.00000  Uiso   1.00
O132   O     0.87772   0.30132   0.89346   0.00000  Uiso   1.00
N133   N     0.49547   0.11219   0.15991   0.00000  Uiso   1.00
N134   N     0.57389   0.93841   0.65857   0.00000  Uiso   1.00
N135   N     0.81937   0.20617   0.92019   0.00000  Uiso   1.00
N136   N     0.45909   0.20523   0.10055   0.00000  Uiso   1.00
N137   N     0.53750   0.03145   0.59921   0.00000  Uiso   1.00
N138   N     0.78299   0.29921   0.86082   0.00000  Uiso   1.00
C139   C     0.86722   0.92258   0.91816   0.00000  Uiso   1.00
C140   C     0.91395   0.89025   0.97028   0.00000  Uiso   1.00
C141   C     0.93297   0.91490   0.04717   0.00000  Uiso   1.00
C142   C     0.97612   0.87798   0.08485   0.00000  Uiso   1.00
C143   C     0.04516   0.83685   0.17153   0.00000  Uiso   1.00
C144   C     0.89234   0.93815   0.83211   0.00000  Uiso   1.00
C145   C     0.89320   0.00307   0.79283   0.00000  Uiso   1.00
C146   C     0.91815   0.00647   0.71419   0.00000  Uiso   1.00
C147   C     0.95362   0.03969   0.58634   0.00000  Uiso   1.00
C148   C     0.82469   0.86435   0.90423   0.00000  Uiso   1.00
C149   C     0.76866   0.86723   0.92556   0.00000  Uiso   1.00
C150   C     0.73665   0.80850   0.90761   0.00000  Uiso   1.00
C151   C     0.66707   0.72714   0.89173   0.00000  Uiso   1.00
C152   C     0.91000   0.81317   0.84834   0.00000  Uiso   1.00
C153   C     0.93719   0.83083   0.93236   0.00000  Uiso   1.00
C154   C     0.98031   0.79385   0.96993   0.00000  Uiso   1.00
C155   C     0.99940   0.81845   0.04686   0.00000  Uiso   1.00
C156   C     0.91558   0.87873   0.79419   0.00000  Uiso   1.00
C157   C     0.94054   0.88202   0.71559   0.00000  Uiso   1.00
C158   C     0.94144   0.94693   0.67620   0.00000  Uiso   1.00
C159   C     0.84793   0.80492   0.86631   0.00000  Uiso   1.00
C160   C     0.81600   0.74618   0.84832   0.00000  Uiso   1.00
C161   C     0.75993   0.74897   0.86962   0.00000  Uiso   1.00
H162   H     0.84913   0.96885   0.94768   0.00000  Uiso   1.00
H163   H     0.91498   0.96090   0.07650   0.00000  Uiso   1.00
H164   H     0.87521   0.04905   0.82219   0.00000  Uiso   1.00
H165   H     0.75069   0.91323   0.95490   0.00000  Uiso   1.00
H166   H     0.99825   0.92590   0.20258   0.00000  Uiso   1.00
H167   H     0.91438   0.11177   0.66635   0.00000  Uiso   1.00
H168   H     0.65180   0.82536   0.94619   0.00000  Uiso   1.00
H169   H     0.92810   0.76690   0.81882   0.00000  Uiso   1.00
H170   H     0.99829   0.74787   0.94057   0.00000  Uiso   1.00
H171   H     0.95852   0.83602   0.68626   0.00000  Uiso   1.00
H172   H     0.83400   0.70020   0.81897   0.00000  Uiso   1.00
H173   H     0.06587   0.75300   0.09225   0.00000  Uiso   1.00
H174   H     0.98199   0.93887   0.55602   0.00000  Uiso   1.00
H175   H     0.71942   0.65246   0.83587   0.00000  Uiso   1.00
O176   O     0.07682   0.83059   0.22982   0.00000  Uiso   1.00
O177   O     0.96677   0.07444   0.52630   0.00000  Uiso   1.00
O178   O     0.62228   0.69868   0.89346   0.00000  Uiso   1.00
N179   N     0.00453   0.88781   0.15991   0.00000  Uiso   1.00
N180   N     0.92611   0.06159   0.65857   0.00000  Uiso   1.00
N181   N     0.68063   0.79383   0.92019   0.00000  Uiso   1.00
N182   N     0.04091   0.79477   0.10055   0.00000  Uiso   1.00
N183   N     0.96250   0.96855   0.59921   0.00000  Uiso   1.00
N184   N     0.71701   0.70079   0.86082   0.00000  Uiso   1.00
C185   C     0.13278   0.42258   0.41816   0.00000  Uiso   1.00
C186   C     0.08605   0.39025   0.47028   0.00000  Uiso   1.00
C187   C     0.06703   0.41490   0.54717   0.00000  Uiso   1.00
C188   C     0.02388   0.37798   0.58485   0.00000  Uiso   1.00
C189   C     0.95484   0.33685   0.67153   0.00000  Uiso   1.00
C190   C     0.10766   0.43815   0.33211   0.00000  Uiso   1.00
C191   C     0.10680   0.50307   0.29283   0.00000  Uiso   1.00
C192   C     0.08185   0.50647   0.21419   0.00000  Uiso   1.00
C193   C     0.04638   0.53969   0.08634   0.00000  Uiso   1.00
C194   C     0.17531   0.36435   0.40423   0.00000  Uiso   1.00
C195   C     0.23134   0.36723   0.42556   0.00000  Uiso   1.00
C196   C     0.26335   0.30850   0.40761   0.00000  Uiso   1.00
C197   C     0.33293   0.22714   0.39173   0.00000  Uiso   1.00
C198   C     0.09000   0.31317   0.34834   0.00000  Uiso   1.00
C199   C     0.06281   0.33083   0.43236   0.00000  Uiso   1.00
C200   C     0.01969   0.29385   0.46993   0.00000  Uiso   1.00
C201   C     0.00060   0.31845   0.54686   0.00000  Uiso   1.00
C202   C     0.08442   0.37873   0.29419   0.00000  Uiso   1.00
C203   C     0.05946   0.38202   0.21559   0.00000  Uiso   1.00
C204   C     0.05856   0.44693   0.17620   0.00000  Uiso   1.00
C205   C     0.15207   0.30492   0.36631   0.00000  Uiso   1.00
C206   C     0.18400   0.24618   0.34832   0.00000  Uiso   1.00
C207   C     0.24007   0.24897   0.36962   0.00000  Uiso   1.00
H208   H     0.15087   0.46885   0.44768   0.00000  Uiso   1.00
H209   H     0.08502   0.46090   0.57650   0.00000  Uiso   1.00
H210   H     0.12479   0.54905   0.32219   0.00000  Uiso   1.00
H211   H     0.24931   0.41323   0.45490   0.00000  Uiso   1.00
H212   H     0.00175   0.42590   0.70258   0.00000  Uiso   1.00
H213   H     0.08562   0.61177   0.16635   0.00000  Uiso   1.00
H214   H     0.34820   0.32536   0.44619   0.00000  Uiso   1.00
H215   H     0.07190   0.26690   0.31882   0.00000  Uiso   1.00
H216   H     0.00171   0.24787   0.44057   0.00000  Uiso   1.00
H217   H     0.04148   0.33602   0.18626   0.00000  Uiso   1.00
H218   H     0.16600   0.20020   0.31897   0.00000  Uiso   1.00
H219   H     0.93413   0.25300   0.59225   0.00000  Uiso   1.00
H220   H     0.01801   0.43887   0.05602   0.00000  Uiso   1.00
H221   H     0.28058   0.15246   0.33587   0.00000  Uiso   1.00
O222   O     0.92318   0.33059   0.72982   0.00000  Uiso   1.00
O223   O     0.03323   0.57444   0.02630   0.00000  Uiso   1.00
O224   O     0.37772   0.19868   0.39346   0.00000  Uiso   1.00
N225   N     0.99547   0.38781   0.65991   0.00000  Uiso   1.00
N226   N     0.07389   0.56159   0.15857   0.00000  Uiso   1.00
N227   N     0.31937   0.29383   0.42019   0.00000  Uiso   1.00
N228   N     0.95909   0.29477   0.60055   0.00000  Uiso   1.00
N229   N     0.03750   0.46855   0.09921   0.00000  Uiso   1.00
N230   N     0.28299   0.20079   0.36082   0.00000  Uiso   1.00
C231   C     0.36722   0.57742   0.41816   0.00000  Uiso   1.00
C232   C     0.41395   0.60975   0.47028   0.00000  Uiso   1.00
C233   C     0.43297   0.58510   0.54717   0.00000  Uiso   1.00
C234   C     0.47612   0.62202   0.58485   0.00000  Uiso   1.00
C235   C     0.54516   0.66315   0.67153   0.00000  Uiso   1.00
C236   C     0.39234   0.56185   0.33211   0.00000  Uiso   1.00
C237   C     0.39320   0.49693   0.29283   0.00000  Uiso   1.00
C238   C     0.41815   0.49353   0.21419   0.00000  Uiso   1.00
C239   C     0.45362   0.46031   0.08634   0.00000  Uiso   1.00
C240   C     0.32469   0.63565   0.40423   0.00000  Uiso   1.00
C241   C     0.26866   0.63277   0.42556   0.00000  Uiso   1.00
C242   C     0.23665   0.69150   0.40761   0.00000  Uiso   1.00
C243   C     0.16707   0.77286   0.39173   0.00000  Uiso   1.00
C244   C     0.41000   0.68683   0.34834   0.00000  Uiso   1.00
C245   C     0.43719   0.66917   0.43236   0.00000  Uiso   1.00
C246   C     0.48031   0.70615   0.46993   0.00000  Uiso   1.00
C247   C     0.49940   0.68155   0.54686   0.00000  Uiso   1.00
C248   C     0.41558   0.62127   0.29419   0.00000  Uiso   1.00
C249   C     0.44054   0.61798   0.21559   0.00000  Uiso   1.00
C250   C     0.44144   0.55307   0.17620   0.00000  Uiso   1.00
C251   C     0.34793   0.69508   0.36631   0.00000  Uiso   1.00
C252   C     0.31600   0.75382   0.34832   0.00000  Uiso   1.00
C253   C     0.25993   0.75103   0.36962   0.00000  Uiso   1.00
H254   H     0.34913   0.53115   0.44768   0.00000  Uiso   1.00
H255   H     0.41498   0.53910   0.57650   0.00000  Uiso   1.00
H256   H     0.37521   0.45095   0.32219   0.00000  Uiso   1.00
H257   H     0.25069   0.58677   0.45490   0.00000  Uiso   1.00
H258   H     0.49825   0.57410   0.70258   0.00000  Uiso   1.00
H259   H     0.41438   0.38823   0.16635   0.00000  Uiso   1.00
H260   H     0.15180   0.67464   0.44619   0.00000  Uiso   1.00
H261   H     0.42810   0.73310   0.31882   0.00000  Uiso   1.00
H262   H     0.49829   0.75213   0.44057   0.00000  Uiso   1.00
H263   H     0.45852   0.66398   0.18626   0.00000  Uiso   1.00
H264   H     0.33400   0.79980   0.31897   0.00000  Uiso   1.00
H265   H     0.56587   0.74700   0.59225   0.00000  Uiso   1.00
H266   H     0.48199   0.56113   0.05602   0.00000  Uiso   1.00
H267   H     0.21942   0.84754   0.33587   0.00000  Uiso   1.00
O268   O     0.57682   0.66941   0.72982   0.00000  Uiso   1.00
O269   O     0.46677   0.42556   0.02630   0.00000  Uiso   1.00
O270   O     0.12228   0.80132   0.39346   0.00000  Uiso   1.00
N271   N     0.50453   0.61219   0.65991   0.00000  Uiso   1.00
N272   N     0.42611   0.43841   0.15857   0.00000  Uiso   1.00
N273   N     0.18063   0.70617   0.42019   0.00000  Uiso   1.00
N274   N     0.54091   0.70523   0.60055   0.00000  Uiso   1.00
N275   N     0.46250   0.53145   0.09921   0.00000  Uiso   1.00
N276   N     0.21701   0.79921   0.36082   0.00000  Uiso   1.00
C277   C     0.36722   0.92258   0.08184   0.00000  Uiso   1.00
C278   C     0.41395   0.89025   0.02972   0.00000  Uiso   1.00
C279   C     0.43297   0.91490   0.95283   0.00000  Uiso   1.00
C280   C     0.47612   0.87798   0.91515   0.00000  Uiso   1.00
C281   C     0.54516   0.83685   0.82847   0.00000  Uiso   1.00
C282   C     0.39234   0.93815   0.16789   0.00000  Uiso   1.00
C283   C     0.39320   0.00307   0.20717   0.00000  Uiso   1.00
C284   C     0.41815   0.00647   0.28581   0.00000  Uiso   1.00
C285   C     0.45362   0.03969   0.41366   0.00000  Uiso   1.00
C286   C     0.32469   0.86435   0.09577   0.00000  Uiso   1.00
C287   C     0.26866   0.86723   0.07444   0.00000  Uiso   1.00
C288   C     0.23665   0.80850   0.09239   0.00000  Uiso   1.00
C289   C     0.16707   0.72714   0.10827   0.00000  Uiso   1.00
C290   C     0.41000   0.81317   0.15166   0.00000  Uiso   1.00
C291   C     0.43719   0.83083   0.06764   0.00000  Uiso   1.00
C292   C     0.48031   0.79385   0.03007   0.00000  Uiso   1.00
C293   C     0.49940   0.81845   0.95314   0.00000  Uiso   1.00
C294   C     0.41558   0.87873   0.20581   0.00000  Uiso   1.00
C295   C     0.44054   0.88202   0.28441   0.00000  Uiso   1.00
C296   C     0.44144   0.94693   0.32380   0.00000  Uiso   1.00
C297   C     0.34793   0.80492   0.13369   0.00000  Uiso   1.00
C298   C     0.31600   0.74618   0.15168   0.00000  Uiso   1.00
C299   C     0.25993   0.74897   0.13038   0.00000  Uiso   1.00
H300   H     0.34913   0.96885   0.05232   0.00000  Uiso   1.00
H301   H     0.41498   0.96090   0.92350   0.00000  Uiso   1.00
H302   H     0.37521   0.04905   0.17781   0.00000  Uiso   1.00
H303   H     0.25069   0.91323   0.04510   0.00000  Uiso   1.00
H304   H     0.49825   0.92590   0.79742   0.00000  Uiso   1.00
H305   H     0.41438   0.11177   0.33365   0.00000  Uiso   1.00
H306   H     0.15180   0.82536   0.05381   0.00000  Uiso   1.00
H307   H     0.42810   0.76690   0.18118   0.00000  Uiso   1.00
H308   H     0.49829   0.74787   0.05943   0.00000  Uiso   1.00
H309   H     0.45852   0.83602   0.31374   0.00000  Uiso   1.00
H310   H     0.33400   0.70020   0.18103   0.00000  Uiso   1.00
H311   H     0.56587   0.75300   0.90775   0.00000  Uiso   1.00
H312   H     0.48199   0.93887   0.44398   0.00000  Uiso   1.00
H313   H     0.21942   0.65246   0.16413   0.00000  Uiso   1.00
O314   O     0.57682   0.83059   0.77018   0.00000  Uiso   1.00
O315   O     0.46677   0.07444   0.47370   0.00000  Uiso   1.00
O316   O     0.12228   0.69868   0.10654   0.00000  Uiso   1.00
N317   N     0.50453   0.88781   0.84009   0.00000  Uiso   1.00
N318   N     0.42611   0.06159   0.34143   0.00000  Uiso   1.00
N319   N     0.18063   0.79383   0.07981   0.00000  Uiso   1.00
N320   N     0.54091   0.79477   0.89945   0.00000  Uiso   1.00
N321   N     0.46250   0.96855   0.40079   0.00000  Uiso   1.00
N322   N     0.21701   0.70079   0.13918   0.00000  Uiso   1.00
C323   C     0.13278   0.07742   0.08184   0.00000  Uiso   1.00
C324   C     0.08605   0.10975   0.02972   0.00000  Uiso   1.00
C325   C     0.06703   0.08510   0.95283   0.00000  Uiso   1.00
C326   C     0.02388   0.12202   0.91515   0.00000  Uiso   1.00
C327   C     0.95484   0.16315   0.82847   0.00000  Uiso   1.00
C328   C     0.10766   0.06185   0.16789   0.00000  Uiso   1.00
C329   C     0.10680   0.99693   0.20717   0.00000  Uiso   1.00
C330   C     0.08185   0.99353   0.28581   0.00000  Uiso   1.00
C331   C     0.04638   0.96031   0.41366   0.00000  Uiso   1.00
C332   C     0.17531   0.13565   0.09577   0.00000  Uiso   1.00
C333   C     0.23134   0.13277   0.07444   0.00000  Uiso   1.00
C334   C     0.26335   0.19150   0.09239   0.00000  Uiso   1.00
C335   C     0.33293   0.27286   0.10827   0.00000  Uiso   1.00
C336   C     0.09000   0.18683   0.15166   0.00000  Uiso   1.00
C337   C     0.06281   0.16917   0.06764   0.00000  Uiso   1.00
C338   C     0.01969   0.20615   0.03007   0.00000  Uiso   1.00
C339   C     0.00060   0.18155   0.95314   0.00000  Uiso   1.00
C340   C     0.08442   0.12127   0.20581   0.00000  Uiso   1.00
C341   C     0.05946   0.11798   0.28441   0.00000  Uiso   1.00
C342   C     0.05856   0.05307   0.32380   0.00000  Uiso   1.00
C343   C     0.15207   0.19508   0.13369   0.00000  Uiso   1.00
C344   C     0.18400   0.25382   0.15168   0.00000  Uiso   1.00
C345   C     0.24007   0.25103   0.13038   0.00000  Uiso   1.00
H346   H     0.15087   0.03115   0.05232   0.00000  Uiso   1.00
H347   H     0.08502   0.03910   0.92350   0.00000  Uiso   1.00
H348   H     0.12479   0.95095   0.17781   0.00000  Uiso   1.00
H349   H     0.24931   0.08677   0.04510   0.00000  Uiso   1.00
H350   H     0.00175   0.07410   0.79742   0.00000  Uiso   1.00
H351   H     0.08562   0.88823   0.33365   0.00000  Uiso   1.00
H352   H     0.34820   0.17464   0.05381   0.00000  Uiso   1.00
H353   H     0.07190   0.23310   0.18118   0.00000  Uiso   1.00
H354   H     0.00171   0.25213   0.05943   0.00000  Uiso   1.00
H355   H     0.04148   0.16398   0.31374   0.00000  Uiso   1.00
H356   H     0.16600   0.29980   0.18103   0.00000  Uiso   1.00
H357   H     0.93413   0.24700   0.90775   0.00000  Uiso   1.00
H358   H     0.01801   0.06113   0.44398   0.00000  Uiso   1.00
H359   H     0.28058   0.34754   0.16413   0.00000  Uiso   1.00
O360   O     0.92318   0.16941   0.77018   0.00000  Uiso   1.00
O361   O     0.03323   0.92556   0.47370   0.00000  Uiso   1.00
O362   O     0.37772   0.30132   0.10654   0.00000  Uiso   1.00
N363   N     0.99547   0.11219   0.84009   0.00000  Uiso   1.00
N364   N     0.07389   0.93841   0.34143   0.00000  Uiso   1.00
N365   N     0.31937   0.20617   0.07981   0.00000  Uiso   1.00
N366   N     0.95909   0.20523   0.89945   0.00000  Uiso   1.00
N367   N     0.03750   0.03145   0.40079   0.00000  Uiso   1.00
N368   N     0.28299   0.29921   0.13918   0.00000  Uiso   1.00
