data_job_03294
_audit_creation_date              2018-12-19
_audit_creation_method            'Materials Studio'
_symmetry_space_group_name_H-M    'P1'
_symmetry_Int_Tables_number       1
_symmetry_cell_setting            triclinic
loop_
_symmetry_equiv_pos_as_xyz
  x,y,z
_cell_length_a                    19.9115
_cell_length_b                    15.4483
_cell_length_c                    7.6053
_cell_angle_alpha                 90.0000
_cell_angle_beta                  90.0000
_cell_angle_gamma                 90.0000
loop_
_atom_site_label
_atom_site_type_symbol
_atom_site_fract_x
_atom_site_fract_y
_atom_site_fract_z
_atom_site_U_iso_or_equiv
_atom_site_adp_type
_atom_site_occupancy
C1     C     0.03390   0.69754   0.77869   0.00000  Uiso   1.00
C2     C     0.05605   0.79203   0.77598   0.00000  Uiso   1.00
C3     C     0.08774   0.83545   0.91248   0.00000  Uiso   1.00
C4     C     0.10392   0.92175   0.88420   0.00000  Uiso   1.00
C5     C     0.14056   0.06219   0.90424   0.00000  Uiso   1.00
C6     C     0.95891   0.69797   0.73800   0.00000  Uiso   1.00
C7     C     0.90894   0.66230   0.84255   0.00000  Uiso   1.00
C8     C     0.84335   0.66942   0.78228   0.00000  Uiso   1.00
C9     C     0.72919   0.66378   0.74327   0.00000  Uiso   1.00
C10    C     0.06781   0.65475   0.62133   0.00000  Uiso   1.00
C11    C     0.10939   0.58272   0.62777   0.00000  Uiso   1.00
C12    C     0.13548   0.55343   0.46926   0.00000  Uiso   1.00
C13    C     0.19040   0.48068   0.24911   0.00000  Uiso   1.00
C14    C     0.00628   0.77360   0.48571   0.00000  Uiso   1.00
C15    C     0.04104   0.83334   0.61685   0.00000  Uiso   1.00
C16    C     0.05718   0.91960   0.58834   0.00000  Uiso   1.00
C17    C     0.08889   0.96314   0.72478   0.00000  Uiso   1.00
C18    C     0.94391   0.73928   0.57887   0.00000  Uiso   1.00
C19    C     0.87838   0.74645   0.51841   0.00000  Uiso   1.00
C20    C     0.82832   0.71081   0.62286   0.00000  Uiso   1.00
C21    C     0.05281   0.69606   0.46219   0.00000  Uiso   1.00
C22    C     0.07883   0.66687   0.30363   0.00000  Uiso   1.00
C23    C     0.12045   0.59482   0.30984   0.00000  Uiso   1.00
H24    H     0.04558   0.66538   0.90258   0.00000  Uiso   1.00
H25    H     0.09934   0.80345   0.03562   0.00000  Uiso   1.00
H26    H     0.92056   0.63033   0.96568   0.00000  Uiso   1.00
H27    H     0.12099   0.55076   0.75094   0.00000  Uiso   1.00
H28    H     0.15230   0.97477   0.11297   0.00000  Uiso   1.00
H29    H     0.77535   0.60969   0.96548   0.00000  Uiso   1.00
H30    H     0.19798   0.44191   0.51265   0.00000  Uiso   1.00
H31    H     0.99460   0.80576   0.36182   0.00000  Uiso   1.00
H32    H     0.04556   0.95155   0.46519   0.00000  Uiso   1.00
H33    H     0.86679   0.77842   0.39526   0.00000  Uiso   1.00
H34    H     0.06721   0.69886   0.18051   0.00000  Uiso   1.00
H35    H     0.10865   0.09497   0.64999   0.00000  Uiso   1.00
H36    H     0.73170   0.72989   0.50250   0.00000  Uiso   1.00
H37    H     0.15434   0.56212   0.04967   0.00000  Uiso   1.00
O38    O     0.16490   0.12825   0.95926   0.00000  Uiso   1.00
O39    O     0.67036   0.64927   0.76574   0.00000  Uiso   1.00
O40    O     0.22485   0.42915   0.17164   0.00000  Uiso   1.00
N41    N     0.13504   0.98305   0.98981   0.00000  Uiso   1.00
N42    N     0.78262   0.64173   0.85193   0.00000  Uiso   1.00
N43    N     0.17773   0.48486   0.42856   0.00000  Uiso   1.00
N44    N     0.11156   0.04772   0.74068   0.00000  Uiso   1.00
N45    N     0.75913   0.70641   0.60280   0.00000  Uiso   1.00
N46    N     0.15425   0.54954   0.17944   0.00000  Uiso   1.00
C47    C     0.96610   0.30246   0.77869   0.00000  Uiso   1.00
C48    C     0.94395   0.20797   0.77598   0.00000  Uiso   1.00
C49    C     0.91226   0.16455   0.91248   0.00000  Uiso   1.00
C50    C     0.89608   0.07825   0.88420   0.00000  Uiso   1.00
C51    C     0.85944   0.93781   0.90424   0.00000  Uiso   1.00
C52    C     0.04109   0.30203   0.73800   0.00000  Uiso   1.00
C53    C     0.09106   0.33770   0.84255   0.00000  Uiso   1.00
C54    C     0.15665   0.33058   0.78228   0.00000  Uiso   1.00
C55    C     0.27081   0.33622   0.74327   0.00000  Uiso   1.00
C56    C     0.93219   0.34525   0.62133   0.00000  Uiso   1.00
C57    C     0.89061   0.41728   0.62777   0.00000  Uiso   1.00
C58    C     0.86452   0.44657   0.46926   0.00000  Uiso   1.00
C59    C     0.80960   0.51932   0.24911   0.00000  Uiso   1.00
C60    C     0.99372   0.22640   0.48571   0.00000  Uiso   1.00
C61    C     0.95896   0.16666   0.61685   0.00000  Uiso   1.00
C62    C     0.94282   0.08040   0.58834   0.00000  Uiso   1.00
C63    C     0.91111   0.03686   0.72478   0.00000  Uiso   1.00
C64    C     0.05609   0.26072   0.57887   0.00000  Uiso   1.00
C65    C     0.12162   0.25355   0.51841   0.00000  Uiso   1.00
C66    C     0.17168   0.28919   0.62286   0.00000  Uiso   1.00
C67    C     0.94719   0.30394   0.46219   0.00000  Uiso   1.00
C68    C     0.92117   0.33313   0.30363   0.00000  Uiso   1.00
C69    C     0.87955   0.40518   0.30984   0.00000  Uiso   1.00
H70    H     0.95442   0.33462   0.90258   0.00000  Uiso   1.00
H71    H     0.90066   0.19655   0.03562   0.00000  Uiso   1.00
H72    H     0.07944   0.36967   0.96568   0.00000  Uiso   1.00
H73    H     0.87901   0.44924   0.75094   0.00000  Uiso   1.00
H74    H     0.84770   0.02523   0.11297   0.00000  Uiso   1.00
H75    H     0.22465   0.39031   0.96548   0.00000  Uiso   1.00
H76    H     0.80202   0.55809   0.51265   0.00000  Uiso   1.00
H77    H     0.00540   0.19424   0.36182   0.00000  Uiso   1.00
H78    H     0.95444   0.04845   0.46519   0.00000  Uiso   1.00
H79    H     0.13321   0.22158   0.39526   0.00000  Uiso   1.00
H80    H     0.93279   0.30114   0.18051   0.00000  Uiso   1.00
H81    H     0.89135   0.90503   0.64999   0.00000  Uiso   1.00
H82    H     0.26830   0.27011   0.50250   0.00000  Uiso   1.00
H83    H     0.84566   0.43788   0.04967   0.00000  Uiso   1.00
O84    O     0.83510   0.87175   0.95926   0.00000  Uiso   1.00
O85    O     0.32964   0.35073   0.76574   0.00000  Uiso   1.00
O86    O     0.77515   0.57085   0.17164   0.00000  Uiso   1.00
N87    N     0.86496   0.01695   0.98981   0.00000  Uiso   1.00
N88    N     0.21738   0.35827   0.85193   0.00000  Uiso   1.00
N89    N     0.82227   0.51514   0.42856   0.00000  Uiso   1.00
N90    N     0.88844   0.95228   0.74068   0.00000  Uiso   1.00
N91    N     0.24087   0.29359   0.60280   0.00000  Uiso   1.00
N92    N     0.84575   0.45046   0.17944   0.00000  Uiso   1.00
C93    C     0.53390   0.80246   0.27869   0.00000  Uiso   1.00
C94    C     0.55605   0.70797   0.27598   0.00000  Uiso   1.00
C95    C     0.58774   0.66455   0.41248   0.00000  Uiso   1.00
C96    C     0.60392   0.57825   0.38420   0.00000  Uiso   1.00
C97    C     0.64056   0.43781   0.40424   0.00000  Uiso   1.00
C98    C     0.45891   0.80203   0.23800   0.00000  Uiso   1.00
C99    C     0.40894   0.83770   0.34255   0.00000  Uiso   1.00
C100   C     0.34335   0.83058   0.28228   0.00000  Uiso   1.00
C101   C     0.22919   0.83622   0.24327   0.00000  Uiso   1.00
C102   C     0.56781   0.84525   0.12133   0.00000  Uiso   1.00
C103   C     0.60939   0.91728   0.12777   0.00000  Uiso   1.00
C104   C     0.63548   0.94657   0.96926   0.00000  Uiso   1.00
C105   C     0.69040   0.01932   0.74911   0.00000  Uiso   1.00
C106   C     0.50628   0.72640   0.98571   0.00000  Uiso   1.00
C107   C     0.54104   0.66666   0.11685   0.00000  Uiso   1.00
C108   C     0.55718   0.58040   0.08834   0.00000  Uiso   1.00
C109   C     0.58889   0.53686   0.22478   0.00000  Uiso   1.00
C110   C     0.44391   0.76072   0.07887   0.00000  Uiso   1.00
C111   C     0.37838   0.75355   0.01841   0.00000  Uiso   1.00
C112   C     0.32832   0.78919   0.12286   0.00000  Uiso   1.00
C113   C     0.55281   0.80394   0.96219   0.00000  Uiso   1.00
C114   C     0.57883   0.83313   0.80363   0.00000  Uiso   1.00
C115   C     0.62045   0.90518   0.80984   0.00000  Uiso   1.00
H116   H     0.54558   0.83462   0.40258   0.00000  Uiso   1.00
H117   H     0.59934   0.69655   0.53562   0.00000  Uiso   1.00
H118   H     0.42056   0.86967   0.46568   0.00000  Uiso   1.00
H119   H     0.62099   0.94924   0.25094   0.00000  Uiso   1.00
H120   H     0.65230   0.52523   0.61297   0.00000  Uiso   1.00
H121   H     0.27535   0.89031   0.46548   0.00000  Uiso   1.00
H122   H     0.69798   0.05809   0.01265   0.00000  Uiso   1.00
H123   H     0.49460   0.69424   0.86182   0.00000  Uiso   1.00
H124   H     0.54556   0.54845   0.96519   0.00000  Uiso   1.00
H125   H     0.36679   0.72158   0.89526   0.00000  Uiso   1.00
H126   H     0.56721   0.80114   0.68051   0.00000  Uiso   1.00
H127   H     0.60865   0.40503   0.14999   0.00000  Uiso   1.00
H128   H     0.23170   0.77011   0.00250   0.00000  Uiso   1.00
H129   H     0.65434   0.93788   0.54967   0.00000  Uiso   1.00
O130   O     0.66490   0.37175   0.45926   0.00000  Uiso   1.00
O131   O     0.17036   0.85073   0.26574   0.00000  Uiso   1.00
O132   O     0.72485   0.07085   0.67164   0.00000  Uiso   1.00
N133   N     0.63504   0.51695   0.48981   0.00000  Uiso   1.00
N134   N     0.28262   0.85827   0.35193   0.00000  Uiso   1.00
N135   N     0.67773   0.01514   0.92856   0.00000  Uiso   1.00
N136   N     0.61156   0.45228   0.24068   0.00000  Uiso   1.00
N137   N     0.25913   0.79359   0.10280   0.00000  Uiso   1.00
N138   N     0.65425   0.95046   0.67944   0.00000  Uiso   1.00
C139   C     0.46610   0.19754   0.27869   0.00000  Uiso   1.00
C140   C     0.44395   0.29203   0.27598   0.00000  Uiso   1.00
C141   C     0.41226   0.33545   0.41248   0.00000  Uiso   1.00
C142   C     0.39608   0.42175   0.38420   0.00000  Uiso   1.00
C143   C     0.35944   0.56219   0.40424   0.00000  Uiso   1.00
C144   C     0.54109   0.19797   0.23800   0.00000  Uiso   1.00
C145   C     0.59106   0.16230   0.34255   0.00000  Uiso   1.00
C146   C     0.65665   0.16942   0.28228   0.00000  Uiso   1.00
C147   C     0.77081   0.16378   0.24327   0.00000  Uiso   1.00
C148   C     0.43219   0.15475   0.12133   0.00000  Uiso   1.00
C149   C     0.39061   0.08272   0.12777   0.00000  Uiso   1.00
C150   C     0.36452   0.05343   0.96926   0.00000  Uiso   1.00
C151   C     0.30960   0.98068   0.74911   0.00000  Uiso   1.00
C152   C     0.49372   0.27360   0.98571   0.00000  Uiso   1.00
C153   C     0.45896   0.33334   0.11685   0.00000  Uiso   1.00
C154   C     0.44282   0.41960   0.08834   0.00000  Uiso   1.00
C155   C     0.41111   0.46314   0.22478   0.00000  Uiso   1.00
C156   C     0.55609   0.23928   0.07887   0.00000  Uiso   1.00
C157   C     0.62162   0.24645   0.01841   0.00000  Uiso   1.00
C158   C     0.67168   0.21081   0.12286   0.00000  Uiso   1.00
C159   C     0.44719   0.19606   0.96219   0.00000  Uiso   1.00
C160   C     0.42117   0.16687   0.80363   0.00000  Uiso   1.00
C161   C     0.37955   0.09482   0.80984   0.00000  Uiso   1.00
H162   H     0.45442   0.16538   0.40258   0.00000  Uiso   1.00
H163   H     0.40066   0.30345   0.53562   0.00000  Uiso   1.00
H164   H     0.57944   0.13033   0.46568   0.00000  Uiso   1.00
H165   H     0.37901   0.05076   0.25094   0.00000  Uiso   1.00
H166   H     0.34770   0.47477   0.61297   0.00000  Uiso   1.00
H167   H     0.72465   0.10969   0.46548   0.00000  Uiso   1.00
H168   H     0.30202   0.94191   0.01265   0.00000  Uiso   1.00
H169   H     0.50540   0.30576   0.86182   0.00000  Uiso   1.00
H170   H     0.45444   0.45155   0.96519   0.00000  Uiso   1.00
H171   H     0.63321   0.27842   0.89526   0.00000  Uiso   1.00
H172   H     0.43279   0.19886   0.68051   0.00000  Uiso   1.00
H173   H     0.39135   0.59497   0.14999   0.00000  Uiso   1.00
H174   H     0.76830   0.22989   0.00250   0.00000  Uiso   1.00
H175   H     0.34566   0.06212   0.54967   0.00000  Uiso   1.00
O176   O     0.33510   0.62825   0.45926   0.00000  Uiso   1.00
O177   O     0.82964   0.14927   0.26574   0.00000  Uiso   1.00
O178   O     0.27515   0.92915   0.67164   0.00000  Uiso   1.00
N179   N     0.36496   0.48305   0.48981   0.00000  Uiso   1.00
N180   N     0.71738   0.14173   0.35193   0.00000  Uiso   1.00
N181   N     0.32227   0.98486   0.92856   0.00000  Uiso   1.00
N182   N     0.38844   0.54772   0.24068   0.00000  Uiso   1.00
N183   N     0.74087   0.20641   0.10280   0.00000  Uiso   1.00
N184   N     0.34575   0.04954   0.67944   0.00000  Uiso   1.00
