data_job_05068
_audit_creation_date              2018-12-19
_audit_creation_method            'Materials Studio'
_symmetry_space_group_name_H-M    'P1'
_symmetry_Int_Tables_number       1
_symmetry_cell_setting            triclinic
loop_
_symmetry_equiv_pos_as_xyz
  x,y,z
_cell_length_a                    18.3704
_cell_length_b                    17.8516
_cell_length_c                    7.5835
_cell_angle_alpha                 90.0000
_cell_angle_beta                  90.0000
_cell_angle_gamma                 90.0000
loop_
_atom_site_label
_atom_site_type_symbol
_atom_site_fract_x
_atom_site_fract_y
_atom_site_fract_z
_atom_site_U_iso_or_equiv
_atom_site_adp_type
_atom_site_occupancy
C1     C     0.28151   0.15434   0.58017   0.00000  Uiso   1.00
C2     C     0.22917   0.09685   0.65790   0.00000  Uiso   1.00
C3     C     0.18513   0.04850   0.56222   0.00000  Uiso   1.00
C4     C     0.14106   0.00011   0.65786   0.00000  Uiso   1.00
C5     C     0.05976   0.91086   0.75047   0.00000  Uiso   1.00
C6     C     0.25931   0.22975   0.65780   0.00000  Uiso   1.00
C7     C     0.24062   0.29315   0.56203   0.00000  Uiso   1.00
C8     C     0.22192   0.35664   0.65759   0.00000  Uiso   1.00
C9     C     0.18746   0.47374   0.75005   0.00000  Uiso   1.00
C10    C     0.35609   0.13645   0.65778   0.00000  Uiso   1.00
C11    C     0.41878   0.12142   0.56200   0.00000  Uiso   1.00
C12    C     0.48158   0.10637   0.65754   0.00000  Uiso   1.00
C13    C     0.59738   0.07861   0.74996   0.00000  Uiso   1.00
C14    C     0.28156   0.15438   0.92016   0.00000  Uiso   1.00
C15    C     0.22919   0.09687   0.84257   0.00000  Uiso   1.00
C16    C     0.18518   0.04854   0.93838   0.00000  Uiso   1.00
C17    C     0.14109   0.00013   0.84286   0.00000  Uiso   1.00
C18    C     0.25933   0.22977   0.84247   0.00000  Uiso   1.00
C19    C     0.24067   0.29319   0.93819   0.00000  Uiso   1.00
C20    C     0.22195   0.35666   0.84259   0.00000  Uiso   1.00
C21    C     0.35611   0.13647   0.84245   0.00000  Uiso   1.00
C22    C     0.41883   0.12146   0.93816   0.00000  Uiso   1.00
C23    C     0.48160   0.10640   0.84254   0.00000  Uiso   1.00
H24    H     0.28149   0.15433   0.43640   0.00000  Uiso   1.00
H25    H     0.18512   0.04850   0.41931   0.00000  Uiso   1.00
H26    H     0.24061   0.29311   0.41913   0.00000  Uiso   1.00
H27    H     0.41874   0.12141   0.41909   0.00000  Uiso   1.00
H28    H     0.07827   0.93121   0.48181   0.00000  Uiso   1.00
H29    H     0.19529   0.44699   0.48142   0.00000  Uiso   1.00
H30    H     0.57092   0.08491   0.48135   0.00000  Uiso   1.00
H31    H     0.28158   0.15440   0.06393   0.00000  Uiso   1.00
H32    H     0.18521   0.04857   0.08129   0.00000  Uiso   1.00
H33    H     0.24069   0.29319   0.08110   0.00000  Uiso   1.00
H34    H     0.41883   0.12148   0.08106   0.00000  Uiso   1.00
H35    H     0.07834   0.93127   0.01909   0.00000  Uiso   1.00
H36    H     0.19536   0.44705   0.01870   0.00000  Uiso   1.00
H37    H     0.57098   0.08497   0.01863   0.00000  Uiso   1.00
O38    O     0.01490   0.86164   0.75054   0.00000  Uiso   1.00
O39    O     0.16843   0.53833   0.75002   0.00000  Uiso   1.00
O40    O     0.66124   0.06329   0.74993   0.00000  Uiso   1.00
N41    N     0.09152   0.94573   0.60588   0.00000  Uiso   1.00
N42    N     0.20091   0.42796   0.60551   0.00000  Uiso   1.00
N43    N     0.55210   0.08946   0.60544   0.00000  Uiso   1.00
N44    N     0.09156   0.94576   0.89499   0.00000  Uiso   1.00
N45    N     0.20095   0.42799   0.89462   0.00000  Uiso   1.00
N46    N     0.55214   0.08949   0.89455   0.00000  Uiso   1.00
C47    C     0.71849   0.84566   0.58017   0.00000  Uiso   1.00
C48    C     0.77083   0.90315   0.65790   0.00000  Uiso   1.00
C49    C     0.81487   0.95150   0.56222   0.00000  Uiso   1.00
C50    C     0.85894   0.99989   0.65786   0.00000  Uiso   1.00
C51    C     0.94024   0.08914   0.75047   0.00000  Uiso   1.00
C52    C     0.74069   0.77025   0.65780   0.00000  Uiso   1.00
C53    C     0.75938   0.70685   0.56203   0.00000  Uiso   1.00
C54    C     0.77808   0.64336   0.65759   0.00000  Uiso   1.00
C55    C     0.81254   0.52626   0.75005   0.00000  Uiso   1.00
C56    C     0.64391   0.86355   0.65778   0.00000  Uiso   1.00
C57    C     0.58122   0.87858   0.56200   0.00000  Uiso   1.00
C58    C     0.51842   0.89363   0.65754   0.00000  Uiso   1.00
C59    C     0.40262   0.92139   0.74996   0.00000  Uiso   1.00
C60    C     0.71844   0.84562   0.92016   0.00000  Uiso   1.00
C61    C     0.77081   0.90313   0.84257   0.00000  Uiso   1.00
C62    C     0.81482   0.95146   0.93838   0.00000  Uiso   1.00
C63    C     0.85891   0.99987   0.84286   0.00000  Uiso   1.00
C64    C     0.74067   0.77023   0.84247   0.00000  Uiso   1.00
C65    C     0.75933   0.70681   0.93819   0.00000  Uiso   1.00
C66    C     0.77805   0.64334   0.84259   0.00000  Uiso   1.00
C67    C     0.64389   0.86353   0.84245   0.00000  Uiso   1.00
C68    C     0.58117   0.87854   0.93816   0.00000  Uiso   1.00
C69    C     0.51840   0.89360   0.84254   0.00000  Uiso   1.00
H70    H     0.71851   0.84567   0.43640   0.00000  Uiso   1.00
H71    H     0.81488   0.95150   0.41931   0.00000  Uiso   1.00
H72    H     0.75939   0.70689   0.41913   0.00000  Uiso   1.00
H73    H     0.58126   0.87859   0.41909   0.00000  Uiso   1.00
H74    H     0.92173   0.06879   0.48181   0.00000  Uiso   1.00
H75    H     0.80471   0.55301   0.48142   0.00000  Uiso   1.00
H76    H     0.42908   0.91509   0.48135   0.00000  Uiso   1.00
H77    H     0.71842   0.84560   0.06393   0.00000  Uiso   1.00
H78    H     0.81479   0.95143   0.08129   0.00000  Uiso   1.00
H79    H     0.75931   0.70681   0.08110   0.00000  Uiso   1.00
H80    H     0.58117   0.87852   0.08106   0.00000  Uiso   1.00
H81    H     0.92166   0.06873   0.01909   0.00000  Uiso   1.00
H82    H     0.80464   0.55295   0.01870   0.00000  Uiso   1.00
H83    H     0.42902   0.91503   0.01863   0.00000  Uiso   1.00
O84    O     0.98510   0.13836   0.75054   0.00000  Uiso   1.00
O85    O     0.83157   0.46167   0.75002   0.00000  Uiso   1.00
O86    O     0.33876   0.93671   0.74993   0.00000  Uiso   1.00
N87    N     0.90848   0.05427   0.60588   0.00000  Uiso   1.00
N88    N     0.79909   0.57204   0.60551   0.00000  Uiso   1.00
N89    N     0.44790   0.91054   0.60544   0.00000  Uiso   1.00
N90    N     0.90844   0.05424   0.89499   0.00000  Uiso   1.00
N91    N     0.79905   0.57201   0.89462   0.00000  Uiso   1.00
N92    N     0.44786   0.91051   0.89455   0.00000  Uiso   1.00
C93    C     0.21849   0.65434   0.41983   0.00000  Uiso   1.00
C94    C     0.27083   0.59685   0.34210   0.00000  Uiso   1.00
C95    C     0.31487   0.54850   0.43778   0.00000  Uiso   1.00
C96    C     0.35894   0.50011   0.34214   0.00000  Uiso   1.00
C97    C     0.44024   0.41086   0.24953   0.00000  Uiso   1.00
C98    C     0.24069   0.72975   0.34220   0.00000  Uiso   1.00
C99    C     0.25938   0.79315   0.43797   0.00000  Uiso   1.00
C100   C     0.27808   0.85664   0.34241   0.00000  Uiso   1.00
C101   C     0.31254   0.97374   0.24995   0.00000  Uiso   1.00
C102   C     0.14391   0.63645   0.34222   0.00000  Uiso   1.00
C103   C     0.08122   0.62142   0.43800   0.00000  Uiso   1.00
C104   C     0.01842   0.60637   0.34246   0.00000  Uiso   1.00
C105   C     0.90262   0.57861   0.25004   0.00000  Uiso   1.00
C106   C     0.21844   0.65438   0.07984   0.00000  Uiso   1.00
C107   C     0.27081   0.59687   0.15743   0.00000  Uiso   1.00
C108   C     0.31482   0.54854   0.06162   0.00000  Uiso   1.00
C109   C     0.35891   0.50013   0.15714   0.00000  Uiso   1.00
C110   C     0.24067   0.72977   0.15753   0.00000  Uiso   1.00
C111   C     0.25933   0.79319   0.06181   0.00000  Uiso   1.00
C112   C     0.27805   0.85666   0.15741   0.00000  Uiso   1.00
C113   C     0.14389   0.63647   0.15755   0.00000  Uiso   1.00
C114   C     0.08117   0.62146   0.06184   0.00000  Uiso   1.00
C115   C     0.01840   0.60640   0.15746   0.00000  Uiso   1.00
H116   H     0.21851   0.65433   0.56360   0.00000  Uiso   1.00
H117   H     0.31488   0.54850   0.58069   0.00000  Uiso   1.00
H118   H     0.25939   0.79311   0.58087   0.00000  Uiso   1.00
H119   H     0.08126   0.62141   0.58091   0.00000  Uiso   1.00
H120   H     0.42173   0.43121   0.51819   0.00000  Uiso   1.00
H121   H     0.30471   0.94699   0.51858   0.00000  Uiso   1.00
H122   H     0.92908   0.58491   0.51865   0.00000  Uiso   1.00
H123   H     0.21842   0.65440   0.93607   0.00000  Uiso   1.00
H124   H     0.31479   0.54857   0.91871   0.00000  Uiso   1.00
H125   H     0.25931   0.79319   0.91890   0.00000  Uiso   1.00
H126   H     0.08117   0.62148   0.91894   0.00000  Uiso   1.00
H127   H     0.42166   0.43127   0.98091   0.00000  Uiso   1.00
H128   H     0.30464   0.94705   0.98130   0.00000  Uiso   1.00
H129   H     0.92902   0.58497   0.98137   0.00000  Uiso   1.00
O130   O     0.48510   0.36164   0.24946   0.00000  Uiso   1.00
O131   O     0.33157   0.03833   0.24998   0.00000  Uiso   1.00
O132   O     0.83876   0.56329   0.25007   0.00000  Uiso   1.00
N133   N     0.40848   0.44573   0.39412   0.00000  Uiso   1.00
N134   N     0.29909   0.92796   0.39449   0.00000  Uiso   1.00
N135   N     0.94790   0.58946   0.39456   0.00000  Uiso   1.00
N136   N     0.40844   0.44576   0.10501   0.00000  Uiso   1.00
N137   N     0.29905   0.92799   0.10538   0.00000  Uiso   1.00
N138   N     0.94786   0.58949   0.10545   0.00000  Uiso   1.00
C139   C     0.78151   0.34566   0.41983   0.00000  Uiso   1.00
C140   C     0.72917   0.40315   0.34210   0.00000  Uiso   1.00
C141   C     0.68513   0.45150   0.43778   0.00000  Uiso   1.00
C142   C     0.64106   0.49989   0.34214   0.00000  Uiso   1.00
C143   C     0.55976   0.58914   0.24953   0.00000  Uiso   1.00
C144   C     0.75931   0.27025   0.34220   0.00000  Uiso   1.00
C145   C     0.74062   0.20685   0.43797   0.00000  Uiso   1.00
C146   C     0.72192   0.14336   0.34241   0.00000  Uiso   1.00
C147   C     0.68746   0.02626   0.24995   0.00000  Uiso   1.00
C148   C     0.85609   0.36355   0.34222   0.00000  Uiso   1.00
C149   C     0.91878   0.37858   0.43800   0.00000  Uiso   1.00
C150   C     0.98158   0.39363   0.34246   0.00000  Uiso   1.00
C151   C     0.09738   0.42139   0.25004   0.00000  Uiso   1.00
C152   C     0.78156   0.34562   0.07984   0.00000  Uiso   1.00
C153   C     0.72919   0.40313   0.15743   0.00000  Uiso   1.00
C154   C     0.68518   0.45146   0.06162   0.00000  Uiso   1.00
C155   C     0.64109   0.49987   0.15714   0.00000  Uiso   1.00
C156   C     0.75933   0.27023   0.15753   0.00000  Uiso   1.00
C157   C     0.74067   0.20681   0.06181   0.00000  Uiso   1.00
C158   C     0.72195   0.14334   0.15741   0.00000  Uiso   1.00
C159   C     0.85611   0.36353   0.15755   0.00000  Uiso   1.00
C160   C     0.91883   0.37854   0.06184   0.00000  Uiso   1.00
C161   C     0.98160   0.39360   0.15746   0.00000  Uiso   1.00
H162   H     0.78149   0.34567   0.56360   0.00000  Uiso   1.00
H163   H     0.68512   0.45150   0.58069   0.00000  Uiso   1.00
H164   H     0.74061   0.20689   0.58087   0.00000  Uiso   1.00
H165   H     0.91874   0.37859   0.58091   0.00000  Uiso   1.00
H166   H     0.57827   0.56879   0.51819   0.00000  Uiso   1.00
H167   H     0.69529   0.05301   0.51858   0.00000  Uiso   1.00
H168   H     0.07092   0.41509   0.51865   0.00000  Uiso   1.00
H169   H     0.78158   0.34560   0.93607   0.00000  Uiso   1.00
H170   H     0.68521   0.45143   0.91871   0.00000  Uiso   1.00
H171   H     0.74069   0.20681   0.91890   0.00000  Uiso   1.00
H172   H     0.91883   0.37852   0.91894   0.00000  Uiso   1.00
H173   H     0.57834   0.56873   0.98091   0.00000  Uiso   1.00
H174   H     0.69536   0.05295   0.98130   0.00000  Uiso   1.00
H175   H     0.07098   0.41503   0.98137   0.00000  Uiso   1.00
O176   O     0.51490   0.63836   0.24946   0.00000  Uiso   1.00
O177   O     0.66843   0.96167   0.24998   0.00000  Uiso   1.00
O178   O     0.16124   0.43671   0.25007   0.00000  Uiso   1.00
N179   N     0.59152   0.55427   0.39412   0.00000  Uiso   1.00
N180   N     0.70091   0.07204   0.39449   0.00000  Uiso   1.00
N181   N     0.05210   0.41054   0.39456   0.00000  Uiso   1.00
N182   N     0.59156   0.55424   0.10501   0.00000  Uiso   1.00
N183   N     0.70095   0.07201   0.10538   0.00000  Uiso   1.00
N184   N     0.05214   0.41051   0.10545   0.00000  Uiso   1.00
