data_job_01624
_audit_creation_date              2018-12-19
_audit_creation_method            'Materials Studio'
_symmetry_space_group_name_H-M    'P1'
_symmetry_Int_Tables_number       1
_symmetry_cell_setting            triclinic
loop_
_symmetry_equiv_pos_as_xyz
  x,y,z
_cell_length_a                    10.5697
_cell_length_b                    27.1799
_cell_length_c                    9.8616
_cell_angle_alpha                 90.0000
_cell_angle_beta                  73.7708
_cell_angle_gamma                 90.0000
loop_
_atom_site_label
_atom_site_type_symbol
_atom_site_fract_x
_atom_site_fract_y
_atom_site_fract_z
_atom_site_U_iso_or_equiv
_atom_site_adp_type
_atom_site_occupancy
C1     C     0.01879   0.59831   0.67823   0.00000  Uiso   1.00
C2     C     0.01863   0.59780   0.83290   0.00000  Uiso   1.00
C3     C     0.08299   0.56378   0.89501   0.00000  Uiso   1.00
C4     C     0.07076   0.56963   0.03797   0.00000  Uiso   1.00
C5     C     0.08171   0.56296   0.26630   0.00000  Uiso   1.00
C6     C     0.87448   0.59684   0.67855   0.00000  Uiso   1.00
C7     C     0.81765   0.56202   0.61088   0.00000  Uiso   1.00
C8     C     0.68406   0.56707   0.62389   0.00000  Uiso   1.00
C9     C     0.47124   0.55893   0.61251   0.00000  Uiso   1.00
C10    C     0.06991   0.64889   0.62152   0.00000  Uiso   1.00
C11    C     0.17737   0.65783   0.50586   0.00000  Uiso   1.00
C12    C     0.20831   0.70671   0.47084   0.00000  Uiso   1.00
C13    C     0.29892   0.77938   0.37091   0.00000  Uiso   1.00
C14    C     0.88260   0.66921   0.82165   0.00000  Uiso   1.00
C15    C     0.94466   0.63630   0.91080   0.00000  Uiso   1.00
C16    C     0.93232   0.64221   0.05370   0.00000  Uiso   1.00
C17    C     0.99666   0.60821   0.11601   0.00000  Uiso   1.00
C18    C     0.80051   0.63534   0.75645   0.00000  Uiso   1.00
C19    C     0.66697   0.64045   0.76956   0.00000  Uiso   1.00
C20    C     0.60995   0.60565   0.70194   0.00000  Uiso   1.00
C21    C     0.99594   0.68740   0.69943   0.00000  Uiso   1.00
C22    C     0.02670   0.73627   0.66456   0.00000  Uiso   1.00
C23    C     0.13420   0.74528   0.54889   0.00000  Uiso   1.00
H24    H     0.07637   0.56833   0.61757   0.00000  Uiso   1.00
H25    H     0.14022   0.53398   0.83469   0.00000  Uiso   1.00
H26    H     0.87492   0.53222   0.55059   0.00000  Uiso   1.00
H27    H     0.23459   0.62802   0.44560   0.00000  Uiso   1.00
H28    H     0.17835   0.51286   0.10977   0.00000  Uiso   1.00
H29    H     0.61896   0.50917   0.51069   0.00000  Uiso   1.00
H30    H     0.37740   0.71118   0.28930   0.00000  Uiso   1.00
H31    H     0.82501   0.69919   0.88231   0.00000  Uiso   1.00
H32    H     0.87507   0.67202   0.11396   0.00000  Uiso   1.00
H33    H     0.60976   0.67026   0.82986   0.00000  Uiso   1.00
H34    H     0.96944   0.76606   0.72487   0.00000  Uiso   1.00
H35    H     0.96314   0.62490   0.33644   0.00000  Uiso   1.00
H36    H     0.40374   0.62120   0.73735   0.00000  Uiso   1.00
H37    H     0.16219   0.82321   0.51597   0.00000  Uiso   1.00
O38    O     0.10818   0.54863   0.37072   0.00000  Uiso   1.00
O39    O     0.37428   0.54379   0.58472   0.00000  Uiso   1.00
O40    O     0.36935   0.80882   0.29428   0.00000  Uiso   1.00
N41    N     0.12085   0.54296   0.13132   0.00000  Uiso   1.00
N42    N     0.59785   0.53951   0.57123   0.00000  Uiso   1.00
N43    N     0.30691   0.72837   0.36423   0.00000  Uiso   1.00
N44    N     0.00505   0.60325   0.25329   0.00000  Uiso   1.00
N45    N     0.48204   0.59979   0.69320   0.00000  Uiso   1.00
N46    N     0.19111   0.78865   0.48620   0.00000  Uiso   1.00
C47    C     0.98121   0.09831   0.82177   0.00000  Uiso   1.00
C48    C     0.98137   0.09780   0.66710   0.00000  Uiso   1.00
C49    C     0.91701   0.06378   0.60499   0.00000  Uiso   1.00
C50    C     0.92924   0.06963   0.46203   0.00000  Uiso   1.00
C51    C     0.91829   0.06296   0.23370   0.00000  Uiso   1.00
C52    C     0.12552   0.09684   0.82145   0.00000  Uiso   1.00
C53    C     0.18235   0.06202   0.88912   0.00000  Uiso   1.00
C54    C     0.31594   0.06707   0.87611   0.00000  Uiso   1.00
C55    C     0.52876   0.05893   0.88749   0.00000  Uiso   1.00
C56    C     0.93009   0.14889   0.87848   0.00000  Uiso   1.00
C57    C     0.82263   0.15783   0.99414   0.00000  Uiso   1.00
C58    C     0.79169   0.20671   0.02916   0.00000  Uiso   1.00
C59    C     0.70108   0.27938   0.12909   0.00000  Uiso   1.00
C60    C     0.11740   0.16921   0.67835   0.00000  Uiso   1.00
C61    C     0.05534   0.13630   0.58920   0.00000  Uiso   1.00
C62    C     0.06768   0.14221   0.44630   0.00000  Uiso   1.00
C63    C     0.00334   0.10821   0.38399   0.00000  Uiso   1.00
C64    C     0.19949   0.13534   0.74355   0.00000  Uiso   1.00
C65    C     0.33303   0.14045   0.73044   0.00000  Uiso   1.00
C66    C     0.39005   0.10565   0.79806   0.00000  Uiso   1.00
C67    C     0.00406   0.18740   0.80057   0.00000  Uiso   1.00
C68    C     0.97330   0.23627   0.83544   0.00000  Uiso   1.00
C69    C     0.86580   0.24528   0.95111   0.00000  Uiso   1.00
H70    H     0.92363   0.06833   0.88243   0.00000  Uiso   1.00
H71    H     0.85978   0.03398   0.66531   0.00000  Uiso   1.00
H72    H     0.12508   0.03222   0.94941   0.00000  Uiso   1.00
H73    H     0.76541   0.12802   0.05440   0.00000  Uiso   1.00
H74    H     0.82165   0.01286   0.39023   0.00000  Uiso   1.00
H75    H     0.38104   0.00917   0.98931   0.00000  Uiso   1.00
H76    H     0.62260   0.21118   0.21070   0.00000  Uiso   1.00
H77    H     0.17499   0.19919   0.61769   0.00000  Uiso   1.00
H78    H     0.12493   0.17202   0.38604   0.00000  Uiso   1.00
H79    H     0.39024   0.17026   0.67014   0.00000  Uiso   1.00
H80    H     0.03056   0.26606   0.77513   0.00000  Uiso   1.00
H81    H     0.03686   0.12490   0.16356   0.00000  Uiso   1.00
H82    H     0.59626   0.12120   0.76265   0.00000  Uiso   1.00
H83    H     0.83781   0.32321   0.98403   0.00000  Uiso   1.00
O84    O     0.89182   0.04863   0.12928   0.00000  Uiso   1.00
O85    O     0.62572   0.04379   0.91528   0.00000  Uiso   1.00
O86    O     0.63065   0.30882   0.20572   0.00000  Uiso   1.00
N87    N     0.87915   0.04296   0.36868   0.00000  Uiso   1.00
N88    N     0.40215   0.03951   0.92877   0.00000  Uiso   1.00
N89    N     0.69309   0.22837   0.13577   0.00000  Uiso   1.00
N90    N     0.99495   0.10325   0.24671   0.00000  Uiso   1.00
N91    N     0.51796   0.09979   0.80680   0.00000  Uiso   1.00
N92    N     0.80889   0.28865   0.01380   0.00000  Uiso   1.00
C93    C     0.98121   0.40169   0.32177   0.00000  Uiso   1.00
C94    C     0.98137   0.40220   0.16710   0.00000  Uiso   1.00
C95    C     0.91701   0.43622   0.10499   0.00000  Uiso   1.00
C96    C     0.92924   0.43037   0.96203   0.00000  Uiso   1.00
C97    C     0.91829   0.43704   0.73370   0.00000  Uiso   1.00
C98    C     0.12552   0.40316   0.32145   0.00000  Uiso   1.00
C99    C     0.18235   0.43798   0.38912   0.00000  Uiso   1.00
C100   C     0.31594   0.43293   0.37611   0.00000  Uiso   1.00
C101   C     0.52876   0.44107   0.38749   0.00000  Uiso   1.00
C102   C     0.93009   0.35111   0.37848   0.00000  Uiso   1.00
C103   C     0.82263   0.34217   0.49414   0.00000  Uiso   1.00
C104   C     0.79169   0.29329   0.52916   0.00000  Uiso   1.00
C105   C     0.70108   0.22062   0.62909   0.00000  Uiso   1.00
C106   C     0.11740   0.33079   0.17835   0.00000  Uiso   1.00
C107   C     0.05534   0.36370   0.08920   0.00000  Uiso   1.00
C108   C     0.06768   0.35779   0.94630   0.00000  Uiso   1.00
C109   C     0.00334   0.39179   0.88399   0.00000  Uiso   1.00
C110   C     0.19949   0.36466   0.24355   0.00000  Uiso   1.00
C111   C     0.33303   0.35955   0.23044   0.00000  Uiso   1.00
C112   C     0.39005   0.39435   0.29806   0.00000  Uiso   1.00
C113   C     0.00406   0.31260   0.30057   0.00000  Uiso   1.00
C114   C     0.97330   0.26373   0.33544   0.00000  Uiso   1.00
C115   C     0.86580   0.25472   0.45111   0.00000  Uiso   1.00
H116   H     0.92363   0.43167   0.38243   0.00000  Uiso   1.00
H117   H     0.85978   0.46602   0.16531   0.00000  Uiso   1.00
H118   H     0.12508   0.46778   0.44941   0.00000  Uiso   1.00
H119   H     0.76541   0.37198   0.55440   0.00000  Uiso   1.00
H120   H     0.82165   0.48714   0.89023   0.00000  Uiso   1.00
H121   H     0.38104   0.49083   0.48931   0.00000  Uiso   1.00
H122   H     0.62260   0.28882   0.71070   0.00000  Uiso   1.00
H123   H     0.17499   0.30081   0.11769   0.00000  Uiso   1.00
H124   H     0.12493   0.32798   0.88604   0.00000  Uiso   1.00
H125   H     0.39024   0.32974   0.17014   0.00000  Uiso   1.00
H126   H     0.03056   0.23394   0.27513   0.00000  Uiso   1.00
H127   H     0.03686   0.37510   0.66356   0.00000  Uiso   1.00
H128   H     0.59626   0.37880   0.26265   0.00000  Uiso   1.00
H129   H     0.83781   0.17679   0.48403   0.00000  Uiso   1.00
O130   O     0.89182   0.45137   0.62928   0.00000  Uiso   1.00
O131   O     0.62572   0.45621   0.41528   0.00000  Uiso   1.00
O132   O     0.63065   0.19118   0.70572   0.00000  Uiso   1.00
N133   N     0.87915   0.45704   0.86868   0.00000  Uiso   1.00
N134   N     0.40215   0.46049   0.42877   0.00000  Uiso   1.00
N135   N     0.69309   0.27163   0.63577   0.00000  Uiso   1.00
N136   N     0.99495   0.39675   0.74671   0.00000  Uiso   1.00
N137   N     0.51796   0.40021   0.30680   0.00000  Uiso   1.00
N138   N     0.80889   0.21135   0.51380   0.00000  Uiso   1.00
C139   C     0.01879   0.90169   0.17823   0.00000  Uiso   1.00
C140   C     0.01863   0.90220   0.33290   0.00000  Uiso   1.00
C141   C     0.08299   0.93622   0.39501   0.00000  Uiso   1.00
C142   C     0.07076   0.93037   0.53797   0.00000  Uiso   1.00
C143   C     0.08171   0.93704   0.76630   0.00000  Uiso   1.00
C144   C     0.87448   0.90316   0.17855   0.00000  Uiso   1.00
C145   C     0.81765   0.93798   0.11088   0.00000  Uiso   1.00
C146   C     0.68406   0.93293   0.12389   0.00000  Uiso   1.00
C147   C     0.47124   0.94107   0.11251   0.00000  Uiso   1.00
C148   C     0.06991   0.85111   0.12152   0.00000  Uiso   1.00
C149   C     0.17737   0.84217   0.00586   0.00000  Uiso   1.00
C150   C     0.20831   0.79329   0.97084   0.00000  Uiso   1.00
C151   C     0.29892   0.72062   0.87091   0.00000  Uiso   1.00
C152   C     0.88260   0.83079   0.32165   0.00000  Uiso   1.00
C153   C     0.94466   0.86370   0.41080   0.00000  Uiso   1.00
C154   C     0.93232   0.85779   0.55370   0.00000  Uiso   1.00
C155   C     0.99666   0.89179   0.61601   0.00000  Uiso   1.00
C156   C     0.80051   0.86466   0.25645   0.00000  Uiso   1.00
C157   C     0.66697   0.85955   0.26956   0.00000  Uiso   1.00
C158   C     0.60995   0.89435   0.20194   0.00000  Uiso   1.00
C159   C     0.99594   0.81260   0.19943   0.00000  Uiso   1.00
C160   C     0.02670   0.76373   0.16456   0.00000  Uiso   1.00
C161   C     0.13420   0.75472   0.04889   0.00000  Uiso   1.00
H162   H     0.07637   0.93167   0.11757   0.00000  Uiso   1.00
H163   H     0.14022   0.96602   0.33469   0.00000  Uiso   1.00
H164   H     0.87492   0.96778   0.05059   0.00000  Uiso   1.00
H165   H     0.23459   0.87198   0.94560   0.00000  Uiso   1.00
H166   H     0.17835   0.98714   0.60977   0.00000  Uiso   1.00
H167   H     0.61896   0.99083   0.01069   0.00000  Uiso   1.00
H168   H     0.37740   0.78882   0.78930   0.00000  Uiso   1.00
H169   H     0.82501   0.80081   0.38231   0.00000  Uiso   1.00
H170   H     0.87507   0.82798   0.61396   0.00000  Uiso   1.00
H171   H     0.60976   0.82974   0.32986   0.00000  Uiso   1.00
H172   H     0.96944   0.73394   0.22487   0.00000  Uiso   1.00
H173   H     0.96314   0.87510   0.83644   0.00000  Uiso   1.00
H174   H     0.40374   0.87880   0.23735   0.00000  Uiso   1.00
H175   H     0.16219   0.67679   0.01597   0.00000  Uiso   1.00
O176   O     0.10818   0.95137   0.87072   0.00000  Uiso   1.00
O177   O     0.37428   0.95621   0.08472   0.00000  Uiso   1.00
O178   O     0.36935   0.69118   0.79428   0.00000  Uiso   1.00
N179   N     0.12085   0.95704   0.63132   0.00000  Uiso   1.00
N180   N     0.59785   0.96049   0.07123   0.00000  Uiso   1.00
N181   N     0.30691   0.77163   0.86423   0.00000  Uiso   1.00
N182   N     0.00505   0.89675   0.75329   0.00000  Uiso   1.00
N183   N     0.48204   0.90021   0.19320   0.00000  Uiso   1.00
N184   N     0.19111   0.71135   0.98620   0.00000  Uiso   1.00
