data_job_06426
_audit_creation_date              2018-12-19
_audit_creation_method            'Materials Studio'
_symmetry_space_group_name_H-M    'P1'
_symmetry_Int_Tables_number       1
_symmetry_cell_setting            triclinic
loop_
_symmetry_equiv_pos_as_xyz
  x,y,z
_cell_length_a                    16.1800
_cell_length_b                    16.0262
_cell_length_c                    15.9193
_cell_angle_alpha                 88.3598
_cell_angle_beta                  88.3431
_cell_angle_gamma                 88.4290
loop_
_atom_site_label
_atom_site_type_symbol
_atom_site_fract_x
_atom_site_fract_y
_atom_site_fract_z
_atom_site_U_iso_or_equiv
_atom_site_adp_type
_atom_site_occupancy
C1     C     0.03899   0.94286   0.40474   0.00000  Uiso   1.00
C2     C     0.95247   0.97175   0.37923   0.00000  Uiso   1.00
C3     C     0.93423   0.03279   0.31848   0.00000  Uiso   1.00
C4     C     0.85117   0.05023   0.30438   0.00000  Uiso   1.00
C5     C     0.72634   0.10153   0.25795   0.00000  Uiso   1.00
C6     C     0.04208   0.95489   0.49926   0.00000  Uiso   1.00
C7     C     0.09918   0.00175   0.53943   0.00000  Uiso   1.00
C8     C     0.09156   0.00499   0.62638   0.00000  Uiso   1.00
C9     C     0.10588   0.03006   0.76630   0.00000  Uiso   1.00
C10    C     0.04357   0.84880   0.39261   0.00000  Uiso   1.00
C11    C     0.10194   0.80644   0.34312   0.00000  Uiso   1.00
C12    C     0.09559   0.72034   0.34029   0.00000  Uiso   1.00
C13    C     0.11222   0.58068   0.31461   0.00000  Uiso   1.00
C14    C     0.92393   0.86529   0.48774   0.00000  Uiso   1.00
C15    C     0.88997   0.92962   0.42431   0.00000  Uiso   1.00
C16    C     0.80692   0.94697   0.41030   0.00000  Uiso   1.00
C17    C     0.78856   0.00802   0.34954   0.00000  Uiso   1.00
C18    C     0.97958   0.91276   0.54434   0.00000  Uiso   1.00
C19    C     0.97188   0.91593   0.63126   0.00000  Uiso   1.00
C20    C     0.02895   0.96278   0.67154   0.00000  Uiso   1.00
C21    C     0.98107   0.80666   0.43769   0.00000  Uiso   1.00
C22    C     0.97463   0.72062   0.43494   0.00000  Uiso   1.00
C23    C     0.03298   0.67814   0.38545   0.00000  Uiso   1.00
H24    H     0.08765   0.97567   0.36965   0.00000  Uiso   1.00
H25    H     0.98261   0.06539   0.28361   0.00000  Uiso   1.00
H26    H     0.14754   0.03434   0.50453   0.00000  Uiso   1.00
H27    H     0.15029   0.83906   0.30824   0.00000  Uiso   1.00
H28    H     0.83860   0.14630   0.20812   0.00000  Uiso   1.00
H29    H     0.18638   0.08081   0.67394   0.00000  Uiso   1.00
H30    H     0.19219   0.66903   0.26004   0.00000  Uiso   1.00
H31    H     0.87527   0.83249   0.52284   0.00000  Uiso   1.00
H32    H     0.75857   0.91436   0.44520   0.00000  Uiso   1.00
H33    H     0.92351   0.88331   0.66612   0.00000  Uiso   1.00
H34    H     0.92626   0.68803   0.46983   0.00000  Uiso   1.00
H35    H     0.65676   0.02372   0.33928   0.00000  Uiso   1.00
H36    H     0.00455   0.95823   0.80510   0.00000  Uiso   1.00
H37    H     0.01036   0.54645   0.39119   0.00000  Uiso   1.00
O38    O     0.67475   0.14147   0.21989   0.00000  Uiso   1.00
O39    O     0.13104   0.05553   0.83102   0.00000  Uiso   1.00
O40    O     0.13866   0.51529   0.28798   0.00000  Uiso   1.00
N41    N     0.81182   0.10621   0.24963   0.00000  Uiso   1.00
N42    N     0.13697   0.04499   0.68515   0.00000  Uiso   1.00
N43    N     0.14241   0.66000   0.29820   0.00000  Uiso   1.00
N44    N     0.71397   0.04025   0.32021   0.00000  Uiso   1.00
N45    N     0.03912   0.97903   0.75572   0.00000  Uiso   1.00
N46    N     0.04457   0.59404   0.36877   0.00000  Uiso   1.00
C47    C     0.40544   0.03977   0.94289   0.00000  Uiso   1.00
C48    C     0.38024   0.95240   0.97204   0.00000  Uiso   1.00
C49    C     0.32046   0.93393   0.03353   0.00000  Uiso   1.00
C50    C     0.30648   0.85006   0.05115   0.00000  Uiso   1.00
C51    C     0.26064   0.72399   0.10289   0.00000  Uiso   1.00
C52    C     0.49845   0.04289   0.95493   0.00000  Uiso   1.00
C53    C     0.53807   0.10051   0.00205   0.00000  Uiso   1.00
C54    C     0.62361   0.09283   0.00525   0.00000  Uiso   1.00
C55    C     0.76131   0.10729   0.03039   0.00000  Uiso   1.00
C56    C     0.39348   0.04446   0.84819   0.00000  Uiso   1.00
C57    C     0.34485   0.10341   0.80555   0.00000  Uiso   1.00
C58    C     0.34202   0.09706   0.71888   0.00000  Uiso   1.00
C59    C     0.31673   0.11395   0.57829   0.00000  Uiso   1.00
C60    C     0.48692   0.92367   0.86481   0.00000  Uiso   1.00
C61    C     0.42449   0.88934   0.92962   0.00000  Uiso   1.00
C62    C     0.41060   0.80548   0.94715   0.00000  Uiso   1.00
C63    C     0.35081   0.78689   0.00866   0.00000  Uiso   1.00
C64    C     0.54271   0.97984   0.91253   0.00000  Uiso   1.00
C65    C     0.62821   0.97207   0.91566   0.00000  Uiso   1.00
C66    C     0.66795   0.02966   0.96277   0.00000  Uiso   1.00
C67    C     0.43773   0.98140   0.80578   0.00000  Uiso   1.00
C68    C     0.43499   0.97496   0.71916   0.00000  Uiso   1.00
C69    C     0.38636   0.03389   0.67640   0.00000  Uiso   1.00
H70    H     0.37100   0.08886   0.97591   0.00000  Uiso   1.00
H71    H     0.28623   0.98275   0.06635   0.00000  Uiso   1.00
H72    H     0.50381   0.14931   0.03485   0.00000  Uiso   1.00
H73    H     0.31061   0.15220   0.83839   0.00000  Uiso   1.00
H74    H     0.21179   0.83728   0.14794   0.00000  Uiso   1.00
H75    H     0.67057   0.18851   0.08151   0.00000  Uiso   1.00
H76    H     0.26318   0.19461   0.66722   0.00000  Uiso   1.00
H77    H     0.52137   0.87458   0.83179   0.00000  Uiso   1.00
H78    H     0.44486   0.75670   0.91432   0.00000  Uiso   1.00
H79    H     0.66244   0.92327   0.88283   0.00000  Uiso   1.00
H80    H     0.46924   0.92616   0.68636   0.00000  Uiso   1.00
H81    H     0.34054   0.65382   0.02455   0.00000  Uiso   1.00
H82    H     0.79932   0.00505   0.95811   0.00000  Uiso   1.00
H83    H     0.39193   0.01115   0.54383   0.00000  Uiso   1.00
O84    O     0.22314   0.67187   0.14315   0.00000  Uiso   1.00
O85    O     0.82504   0.13268   0.05599   0.00000  Uiso   1.00
O86    O     0.29054   0.14068   0.51246   0.00000  Uiso   1.00
N87    N     0.25258   0.81028   0.10756   0.00000  Uiso   1.00
N88    N     0.68151   0.13865   0.04546   0.00000  Uiso   1.00
N89    N     0.30065   0.14437   0.65814   0.00000  Uiso   1.00
N90    N     0.32186   0.71156   0.04116   0.00000  Uiso   1.00
N91    N     0.75079   0.03993   0.97907   0.00000  Uiso   1.00
N92    N     0.36993   0.04565   0.59174   0.00000  Uiso   1.00
C93    C     0.94273   0.40503   0.04034   0.00000  Uiso   1.00
C94    C     0.97134   0.37964   0.95237   0.00000  Uiso   1.00
C95    C     0.03176   0.31932   0.93377   0.00000  Uiso   1.00
C96    C     0.04904   0.30527   0.84934   0.00000  Uiso   1.00
C97    C     0.09984   0.25909   0.72241   0.00000  Uiso   1.00
C98    C     0.95471   0.49893   0.04342   0.00000  Uiso   1.00
C99    C     0.00114   0.53889   0.10138   0.00000  Uiso   1.00
C100   C     0.00441   0.62525   0.09360   0.00000  Uiso   1.00
C101   C     0.02934   0.76426   0.10806   0.00000  Uiso   1.00
C102   C     0.84954   0.39293   0.04513   0.00000  Uiso   1.00
C103   C     0.80754   0.34378   0.10453   0.00000  Uiso   1.00
C104   C     0.72226   0.34092   0.09820   0.00000  Uiso   1.00
C105   C     0.58391   0.31535   0.11531   0.00000  Uiso   1.00
C106   C     0.86597   0.48735   0.92347   0.00000  Uiso   1.00
C107   C     0.92965   0.42436   0.88890   0.00000  Uiso   1.00
C108   C     0.94684   0.41040   0.80447   0.00000  Uiso   1.00
C109   C     0.00727   0.35007   0.78575   0.00000  Uiso   1.00
C110   C     0.91302   0.54364   0.97995   0.00000  Uiso   1.00
C111   C     0.91622   0.62997   0.97208   0.00000  Uiso   1.00
C112   C     0.96265   0.67005   0.03001   0.00000  Uiso   1.00
C113   C     0.80785   0.43764   0.98165   0.00000  Uiso   1.00
C114   C     0.72262   0.43486   0.97523   0.00000  Uiso   1.00
C115   C     0.68050   0.38572   0.03461   0.00000  Uiso   1.00
H116   H     0.97519   0.37022   0.08976   0.00000  Uiso   1.00
H117   H     0.06402   0.28473   0.98292   0.00000  Uiso   1.00
H118   H     0.03339   0.50427   0.15050   0.00000  Uiso   1.00
H119   H     0.83982   0.30919   0.15365   0.00000  Uiso   1.00
H120   H     0.14413   0.20970   0.83646   0.00000  Uiso   1.00
H121   H     0.07954   0.67260   0.18985   0.00000  Uiso   1.00
H122   H     0.67136   0.26125   0.19648   0.00000  Uiso   1.00
H123   H     0.83351   0.52217   0.87405   0.00000  Uiso   1.00
H124   H     0.91457   0.44501   0.75536   0.00000  Uiso   1.00
H125   H     0.88394   0.66455   0.92295   0.00000  Uiso   1.00
H126   H     0.69038   0.46947   0.92610   0.00000  Uiso   1.00
H127   H     0.02284   0.33979   0.65177   0.00000  Uiso   1.00
H128   H     0.95824   0.80270   0.00516   0.00000  Uiso   1.00
H129   H     0.55007   0.39134   0.01179   0.00000  Uiso   1.00
O130   O     0.13938   0.22127   0.66993   0.00000  Uiso   1.00
O131   O     0.05462   0.82858   0.13358   0.00000  Uiso   1.00
O132   O     0.51911   0.28889   0.14227   0.00000  Uiso   1.00
N133   N     0.10445   0.25089   0.80928   0.00000  Uiso   1.00
N134   N     0.04407   0.68368   0.13967   0.00000  Uiso   1.00
N135   N     0.66246   0.29911   0.14589   0.00000  Uiso   1.00
N136   N     0.03918   0.32090   0.70990   0.00000  Uiso   1.00
N137   N     0.97880   0.75368   0.04029   0.00000  Uiso   1.00
N138   N     0.59719   0.36911   0.04651   0.00000  Uiso   1.00
C139   C     0.53896   0.90507   0.44285   0.00000  Uiso   1.00
C140   C     0.45241   0.87966   0.47202   0.00000  Uiso   1.00
C141   C     0.43409   0.81931   0.53351   0.00000  Uiso   1.00
C142   C     0.35102   0.80524   0.55115   0.00000  Uiso   1.00
C143   C     0.22613   0.75901   0.60292   0.00000  Uiso   1.00
C144   C     0.54210   0.99896   0.45493   0.00000  Uiso   1.00
C145   C     0.59920   0.03893   0.50204   0.00000  Uiso   1.00
C146   C     0.59163   0.12529   0.50528   0.00000  Uiso   1.00
C147   C     0.60602   0.26430   0.53047   0.00000  Uiso   1.00
C148   C     0.54359   0.89299   0.34815   0.00000  Uiso   1.00
C149   C     0.60196   0.84387   0.30547   0.00000  Uiso   1.00
C150   C     0.59566   0.84103   0.21880   0.00000  Uiso   1.00
C151   C     0.61237   0.81550   0.07819   0.00000  Uiso   1.00
C152   C     0.42400   0.98738   0.36484   0.00000  Uiso   1.00
C153   C     0.38997   0.92437   0.42965   0.00000  Uiso   1.00
C154   C     0.30690   0.91038   0.44720   0.00000  Uiso   1.00
C155   C     0.28846   0.85003   0.50870   0.00000  Uiso   1.00
C156   C     0.47966   0.04368   0.41256   0.00000  Uiso   1.00
C157   C     0.47201   0.13000   0.41573   0.00000  Uiso   1.00
C158   C     0.52908   0.17009   0.46283   0.00000  Uiso   1.00
C159   C     0.48115   0.93770   0.30578   0.00000  Uiso   1.00
C160   C     0.47476   0.93494   0.21916   0.00000  Uiso   1.00
C161   C     0.53311   0.88583   0.17635   0.00000  Uiso   1.00
H162   H     0.58758   0.87026   0.47584   0.00000  Uiso   1.00
H163   H     0.48244   0.78473   0.56629   0.00000  Uiso   1.00
H164   H     0.64752   0.00431   0.53481   0.00000  Uiso   1.00
H165   H     0.65028   0.80928   0.33828   0.00000  Uiso   1.00
H166   H     0.33833   0.70964   0.64790   0.00000  Uiso   1.00
H167   H     0.68644   0.17265   0.58152   0.00000  Uiso   1.00
H168   H     0.69225   0.76139   0.16707   0.00000  Uiso   1.00
H169   H     0.37539   0.02219   0.33186   0.00000  Uiso   1.00
H170   H     0.25859   0.94499   0.41440   0.00000  Uiso   1.00
H171   H     0.42368   0.16458   0.38293   0.00000  Uiso   1.00
H172   H     0.42644   0.96955   0.18639   0.00000  Uiso   1.00
H173   H     0.15665   0.83972   0.52463   0.00000  Uiso   1.00
H174   H     0.50476   0.30273   0.45824   0.00000  Uiso   1.00
H175   H     0.51057   0.89147   0.04380   0.00000  Uiso   1.00
O176   O     0.17449   0.72117   0.64319   0.00000  Uiso   1.00
O177   O     0.63121   0.32862   0.55607   0.00000  Uiso   1.00
O178   O     0.63882   0.78906   0.01234   0.00000  Uiso   1.00
N179   N     0.31160   0.75084   0.60755   0.00000  Uiso   1.00
N180   N     0.63705   0.18372   0.54549   0.00000  Uiso   1.00
N181   N     0.64250   0.79925   0.15802   0.00000  Uiso   1.00
N182   N     0.21384   0.82083   0.54122   0.00000  Uiso   1.00
N183   N     0.53929   0.25371   0.47916   0.00000  Uiso   1.00
N184   N     0.54474   0.86924   0.09169   0.00000  Uiso   1.00
C185   C     0.90539   0.44282   0.54036   0.00000  Uiso   1.00
C186   C     0.88025   0.47172   0.45241   0.00000  Uiso   1.00
C187   C     0.82053   0.53275   0.43386   0.00000  Uiso   1.00
C188   C     0.80661   0.55021   0.34944   0.00000  Uiso   1.00
C189   C     0.76088   0.60153   0.22254   0.00000  Uiso   1.00
C190   C     0.99840   0.45487   0.54341   0.00000  Uiso   1.00
C191   C     0.03802   0.50172   0.60138   0.00000  Uiso   1.00
C192   C     0.12356   0.50498   0.59356   0.00000  Uiso   1.00
C193   C     0.26127   0.53008   0.60798   0.00000  Uiso   1.00
C194   C     0.89336   0.34875   0.54512   0.00000  Uiso   1.00
C195   C     0.84467   0.30636   0.60453   0.00000  Uiso   1.00
C196   C     0.84179   0.22027   0.59816   0.00000  Uiso   1.00
C197   C     0.81640   0.08060   0.61523   0.00000  Uiso   1.00
C198   C     0.98689   0.36530   0.42343   0.00000  Uiso   1.00
C199   C     0.92452   0.42962   0.38891   0.00000  Uiso   1.00
C200   C     0.91069   0.44699   0.30449   0.00000  Uiso   1.00
C201   C     0.85095   0.50803   0.28581   0.00000  Uiso   1.00
C202   C     0.04267   0.41277   0.47991   0.00000  Uiso   1.00
C203   C     0.12818   0.41595   0.47201   0.00000  Uiso   1.00
C204   C     0.16791   0.46280   0.52994   0.00000  Uiso   1.00
C205   C     0.93762   0.30664   0.48161   0.00000  Uiso   1.00
C206   C     0.93483   0.22060   0.47515   0.00000  Uiso   1.00
C207   C     0.88614   0.17809   0.53454   0.00000  Uiso   1.00
H208   H     0.87093   0.47560   0.58981   0.00000  Uiso   1.00
H209   H     0.78629   0.56533   0.48303   0.00000  Uiso   1.00
H210   H     0.00374   0.53429   0.65052   0.00000  Uiso   1.00
H211   H     0.81042   0.33896   0.65366   0.00000  Uiso   1.00
H212   H     0.71199   0.64626   0.33663   0.00000  Uiso   1.00
H213   H     0.17051   0.58079   0.68982   0.00000  Uiso   1.00
H214   H     0.76286   0.16891   0.69646   0.00000  Uiso   1.00
H215   H     0.02135   0.33252   0.37398   0.00000  Uiso   1.00
H216   H     0.94496   0.41439   0.25536   0.00000  Uiso   1.00
H217   H     0.16242   0.38336   0.42285   0.00000  Uiso   1.00
H218   H     0.96910   0.18803   0.42600   0.00000  Uiso   1.00
H219   H     0.84078   0.52376   0.15185   0.00000  Uiso   1.00
H220   H     0.29930   0.45829   0.50504   0.00000  Uiso   1.00
H221   H     0.89164   0.04641   0.51167   0.00000  Uiso   1.00
O222   O     0.72344   0.64147   0.17010   0.00000  Uiso   1.00
O223   O     0.32499   0.55557   0.63348   0.00000  Uiso   1.00
O224   O     0.79016   0.01519   0.64218   0.00000  Uiso   1.00
N225   N     0.75277   0.60618   0.30942   0.00000  Uiso   1.00
N226   N     0.18146   0.54499   0.63963   0.00000  Uiso   1.00
N227   N     0.80035   0.15990   0.64584   0.00000  Uiso   1.00
N228   N     0.82207   0.54026   0.20999   0.00000  Uiso   1.00
N229   N     0.25075   0.47907   0.54020   0.00000  Uiso   1.00
N230   N     0.86965   0.09399   0.54641   0.00000  Uiso   1.00
C231   C     0.44281   0.53977   0.90475   0.00000  Uiso   1.00
C232   C     0.47138   0.45242   0.87920   0.00000  Uiso   1.00
C233   C     0.53183   0.43398   0.81842   0.00000  Uiso   1.00
C234   C     0.54907   0.35012   0.80429   0.00000  Uiso   1.00
C235   C     0.59981   0.22407   0.75778   0.00000  Uiso   1.00
C236   C     0.45474   0.54287   0.99927   0.00000  Uiso   1.00
C237   C     0.50118   0.60050   0.03945   0.00000  Uiso   1.00
C238   C     0.50439   0.59280   0.12639   0.00000  Uiso   1.00
C239   C     0.52924   0.60723   0.26631   0.00000  Uiso   1.00
C240   C     0.34964   0.54444   0.89266   0.00000  Uiso   1.00
C241   C     0.30770   0.60340   0.84321   0.00000  Uiso   1.00
C242   C     0.22242   0.59703   0.84041   0.00000  Uiso   1.00
C243   C     0.08409   0.61389   0.81479   0.00000  Uiso   1.00
C244   C     0.36593   0.42364   0.98774   0.00000  Uiso   1.00
C245   C     0.42962   0.38934   0.92428   0.00000  Uiso   1.00
C246   C     0.44677   0.30549   0.91023   0.00000  Uiso   1.00
C247   C     0.50723   0.28693   0.84944   0.00000  Uiso   1.00
C248   C     0.41298   0.47980   0.04435   0.00000  Uiso   1.00
C249   C     0.41612   0.47201   0.13126   0.00000  Uiso   1.00
C250   C     0.46256   0.52961   0.17155   0.00000  Uiso   1.00
C251   C     0.30787   0.48136   0.93773   0.00000  Uiso   1.00
C252   C     0.22264   0.47490   0.93501   0.00000  Uiso   1.00
C253   C     0.18059   0.53383   0.88556   0.00000  Uiso   1.00
H254   H     0.47532   0.58888   0.86967   0.00000  Uiso   1.00
H255   H     0.56414   0.48281   0.78356   0.00000  Uiso   1.00
H256   H     0.53348   0.64931   0.00455   0.00000  Uiso   1.00
H257   H     0.34003   0.65220   0.80834   0.00000  Uiso   1.00
H258   H     0.64421   0.33739   0.70799   0.00000  Uiso   1.00
H259   H     0.57954   0.68849   0.17396   0.00000  Uiso   1.00
H260   H     0.17163   0.69459   0.76021   0.00000  Uiso   1.00
H261   H     0.33342   0.37453   0.02283   0.00000  Uiso   1.00
H262   H     0.41445   0.25669   0.94512   0.00000  Uiso   1.00
H263   H     0.38379   0.42319   0.16611   0.00000  Uiso   1.00
H264   H     0.19035   0.42608   0.96990   0.00000  Uiso   1.00
H265   H     0.52272   0.15386   0.83912   0.00000  Uiso   1.00
H266   H     0.45805   0.50496   0.30510   0.00000  Uiso   1.00
H267   H     0.05014   0.51106   0.89134   0.00000  Uiso   1.00
O268   O     0.63935   0.17197   0.71969   0.00000  Uiso   1.00
O269   O     0.55449   0.63261   0.33103   0.00000  Uiso   1.00
O270   O     0.01932   0.64061   0.78820   0.00000  Uiso   1.00
N271   N     0.60449   0.31037   0.74950   0.00000  Uiso   1.00
N272   N     0.54404   0.63862   0.18516   0.00000  Uiso   1.00
N273   N     0.16267   0.64433   0.79835   0.00000  Uiso   1.00
N274   N     0.53911   0.21161   0.82006   0.00000  Uiso   1.00
N275   N     0.47866   0.53986   0.25572   0.00000  Uiso   1.00
N276   N     0.09729   0.54557   0.86892   0.00000  Uiso   1.00
