data_job_03800
_audit_creation_date              2018-12-19
_audit_creation_method            'Materials Studio'
_symmetry_space_group_name_H-M    'P1'
_symmetry_Int_Tables_number       1
_symmetry_cell_setting            triclinic
loop_
_symmetry_equiv_pos_as_xyz
  x,y,z
_cell_length_a                    25.5477
_cell_length_b                    15.7493
_cell_length_c                    15.0315
_cell_angle_alpha                 90.0000
_cell_angle_beta                  90.0000
_cell_angle_gamma                 90.0000
loop_
_atom_site_label
_atom_site_type_symbol
_atom_site_fract_x
_atom_site_fract_y
_atom_site_fract_z
_atom_site_U_iso_or_equiv
_atom_site_adp_type
_atom_site_occupancy
C1     C     0.82003   0.57046   0.56806   0.00000  Uiso   1.00
C2     C     0.85630   0.49396   0.57630   0.00000  Uiso   1.00
C3     C     0.84669   0.41350   0.54239   0.00000  Uiso   1.00
C4     C     0.88474   0.35212   0.55700   0.00000  Uiso   1.00
C5     C     0.93405   0.23052   0.56271   0.00000  Uiso   1.00
C6     C     0.80950   0.60048   0.66284   0.00000  Uiso   1.00
C7     C     0.76054   0.60958   0.70169   0.00000  Uiso   1.00
C8     C     0.75920   0.63787   0.78914   0.00000  Uiso   1.00
C9     C     0.73585   0.68169   0.92918   0.00000  Uiso   1.00
C10    C     0.85231   0.64029   0.52415   0.00000  Uiso   1.00
C11    C     0.83934   0.68289   0.44640   0.00000  Uiso   1.00
C12    C     0.87403   0.74473   0.41710   0.00000  Uiso   1.00
C13    C     0.91715   0.85036   0.34180   0.00000  Uiso   1.00
C14    C     0.90470   0.60454   0.65430   0.00000  Uiso   1.00
C15    C     0.90229   0.51247   0.62315   0.00000  Uiso   1.00
C16    C     0.94037   0.45120   0.63781   0.00000  Uiso   1.00
C17    C     0.93081   0.37066   0.60392   0.00000  Uiso   1.00
C18    C     0.85549   0.61898   0.70968   0.00000  Uiso   1.00
C19    C     0.85422   0.64728   0.79710   0.00000  Uiso   1.00
C20    C     0.80527   0.65642   0.83607   0.00000  Uiso   1.00
C21    C     0.89830   0.65880   0.57099   0.00000  Uiso   1.00
C22    C     0.93302   0.72058   0.54181   0.00000  Uiso   1.00
C23    C     0.92010   0.76327   0.46402   0.00000  Uiso   1.00
H24    H     0.78422   0.55606   0.53160   0.00000  Uiso   1.00
H25    H     0.81109   0.39920   0.50616   0.00000  Uiso   1.00
H26    H     0.72496   0.59526   0.66542   0.00000  Uiso   1.00
H27    H     0.80374   0.66855   0.41017   0.00000  Uiso   1.00
H28    H     0.86114   0.23346   0.49863   0.00000  Uiso   1.00
H29    H     0.67953   0.64688   0.83443   0.00000  Uiso   1.00
H30    H     0.84566   0.80144   0.29619   0.00000  Uiso   1.00
H31    H     0.94051   0.61895   0.69077   0.00000  Uiso   1.00
H32    H     0.97595   0.46554   0.67406   0.00000  Uiso   1.00
H33    H     0.88982   0.66160   0.83332   0.00000  Uiso   1.00
H34    H     0.96860   0.73489   0.57807   0.00000  Uiso   1.00
H35    H     0.99495   0.28730   0.63491   0.00000  Uiso   1.00
H36    H     0.81334   0.70073   0.97071   0.00000  Uiso   1.00
H37    H     0.97947   0.85528   0.43247   0.00000  Uiso   1.00
O38    O     0.94854   0.15833   0.55293   0.00000  Uiso   1.00
O39    O     0.71027   0.70073   0.99348   0.00000  Uiso   1.00
O40    O     0.92823   0.90350   0.28732   0.00000  Uiso   1.00
N41    N     0.88778   0.26719   0.53298   0.00000  Uiso   1.00
N42    N     0.71798   0.65370   0.84694   0.00000  Uiso   1.00
N43    N     0.87329   0.79821   0.34374   0.00000  Uiso   1.00
N44    N     0.95978   0.29616   0.60631   0.00000  Uiso   1.00
N45    N     0.78998   0.68267   0.92027   0.00000  Uiso   1.00
N46    N     0.94529   0.82719   0.41707   0.00000  Uiso   1.00
C47    C     0.67997   0.42954   0.56806   0.00000  Uiso   1.00
C48    C     0.64370   0.50604   0.57630   0.00000  Uiso   1.00
C49    C     0.65331   0.58650   0.54239   0.00000  Uiso   1.00
C50    C     0.61526   0.64788   0.55700   0.00000  Uiso   1.00
C51    C     0.56595   0.76948   0.56271   0.00000  Uiso   1.00
C52    C     0.69050   0.39952   0.66284   0.00000  Uiso   1.00
C53    C     0.73946   0.39042   0.70169   0.00000  Uiso   1.00
C54    C     0.74080   0.36213   0.78914   0.00000  Uiso   1.00
C55    C     0.76415   0.31831   0.92918   0.00000  Uiso   1.00
C56    C     0.64769   0.35971   0.52415   0.00000  Uiso   1.00
C57    C     0.66066   0.31711   0.44640   0.00000  Uiso   1.00
C58    C     0.62597   0.25527   0.41710   0.00000  Uiso   1.00
C59    C     0.58285   0.14964   0.34180   0.00000  Uiso   1.00
C60    C     0.59530   0.39546   0.65430   0.00000  Uiso   1.00
C61    C     0.59771   0.48753   0.62315   0.00000  Uiso   1.00
C62    C     0.55963   0.54880   0.63781   0.00000  Uiso   1.00
C63    C     0.56919   0.62934   0.60392   0.00000  Uiso   1.00
C64    C     0.64451   0.38102   0.70968   0.00000  Uiso   1.00
C65    C     0.64578   0.35272   0.79710   0.00000  Uiso   1.00
C66    C     0.69473   0.34358   0.83607   0.00000  Uiso   1.00
C67    C     0.60170   0.34120   0.57099   0.00000  Uiso   1.00
C68    C     0.56698   0.27942   0.54181   0.00000  Uiso   1.00
C69    C     0.57990   0.23673   0.46402   0.00000  Uiso   1.00
H70    H     0.71578   0.44394   0.53160   0.00000  Uiso   1.00
H71    H     0.68891   0.60080   0.50616   0.00000  Uiso   1.00
H72    H     0.77504   0.40474   0.66542   0.00000  Uiso   1.00
H73    H     0.69626   0.33145   0.41017   0.00000  Uiso   1.00
H74    H     0.63886   0.76654   0.49863   0.00000  Uiso   1.00
H75    H     0.82047   0.35312   0.83443   0.00000  Uiso   1.00
H76    H     0.65434   0.19856   0.29619   0.00000  Uiso   1.00
H77    H     0.55949   0.38105   0.69077   0.00000  Uiso   1.00
H78    H     0.52405   0.53446   0.67406   0.00000  Uiso   1.00
H79    H     0.61018   0.33840   0.83332   0.00000  Uiso   1.00
H80    H     0.53140   0.26511   0.57807   0.00000  Uiso   1.00
H81    H     0.50505   0.71270   0.63491   0.00000  Uiso   1.00
H82    H     0.68666   0.29927   0.97071   0.00000  Uiso   1.00
H83    H     0.52053   0.14472   0.43247   0.00000  Uiso   1.00
O84    O     0.55146   0.84167   0.55293   0.00000  Uiso   1.00
O85    O     0.78973   0.29927   0.99348   0.00000  Uiso   1.00
O86    O     0.57177   0.09650   0.28732   0.00000  Uiso   1.00
N87    N     0.61222   0.73281   0.53298   0.00000  Uiso   1.00
N88    N     0.78202   0.34630   0.84694   0.00000  Uiso   1.00
N89    N     0.62671   0.20179   0.34374   0.00000  Uiso   1.00
N90    N     0.54022   0.70384   0.60631   0.00000  Uiso   1.00
N91    N     0.71002   0.31733   0.92027   0.00000  Uiso   1.00
N92    N     0.55471   0.17281   0.41707   0.00000  Uiso   1.00
C93    C     0.67997   0.07046   0.93194   0.00000  Uiso   1.00
C94    C     0.64370   0.99396   0.92370   0.00000  Uiso   1.00
C95    C     0.65331   0.91350   0.95761   0.00000  Uiso   1.00
C96    C     0.61526   0.85212   0.94300   0.00000  Uiso   1.00
C97    C     0.56595   0.73052   0.93729   0.00000  Uiso   1.00
C98    C     0.69050   0.10048   0.83716   0.00000  Uiso   1.00
C99    C     0.73946   0.10958   0.79831   0.00000  Uiso   1.00
C100   C     0.74080   0.13787   0.71086   0.00000  Uiso   1.00
C101   C     0.76415   0.18169   0.57082   0.00000  Uiso   1.00
C102   C     0.64769   0.14029   0.97585   0.00000  Uiso   1.00
C103   C     0.66066   0.18289   0.05360   0.00000  Uiso   1.00
C104   C     0.62597   0.24473   0.08290   0.00000  Uiso   1.00
C105   C     0.58285   0.35036   0.15820   0.00000  Uiso   1.00
C106   C     0.59530   0.10454   0.84570   0.00000  Uiso   1.00
C107   C     0.59771   0.01247   0.87685   0.00000  Uiso   1.00
C108   C     0.55963   0.95120   0.86219   0.00000  Uiso   1.00
C109   C     0.56919   0.87066   0.89608   0.00000  Uiso   1.00
C110   C     0.64451   0.11898   0.79032   0.00000  Uiso   1.00
C111   C     0.64578   0.14728   0.70290   0.00000  Uiso   1.00
C112   C     0.69473   0.15642   0.66393   0.00000  Uiso   1.00
C113   C     0.60170   0.15880   0.92901   0.00000  Uiso   1.00
C114   C     0.56698   0.22058   0.95819   0.00000  Uiso   1.00
C115   C     0.57990   0.26327   0.03598   0.00000  Uiso   1.00
H116   H     0.71578   0.05606   0.96840   0.00000  Uiso   1.00
H117   H     0.68891   0.89920   0.99384   0.00000  Uiso   1.00
H118   H     0.77504   0.09526   0.83458   0.00000  Uiso   1.00
H119   H     0.69626   0.16855   0.08983   0.00000  Uiso   1.00
H120   H     0.63886   0.73346   0.00137   0.00000  Uiso   1.00
H121   H     0.82047   0.14688   0.66557   0.00000  Uiso   1.00
H122   H     0.65434   0.30144   0.20381   0.00000  Uiso   1.00
H123   H     0.55949   0.11895   0.80923   0.00000  Uiso   1.00
H124   H     0.52405   0.96554   0.82594   0.00000  Uiso   1.00
H125   H     0.61018   0.16160   0.66668   0.00000  Uiso   1.00
H126   H     0.53140   0.23489   0.92193   0.00000  Uiso   1.00
H127   H     0.50505   0.78730   0.86509   0.00000  Uiso   1.00
H128   H     0.68666   0.20073   0.52929   0.00000  Uiso   1.00
H129   H     0.52053   0.35528   0.06753   0.00000  Uiso   1.00
O130   O     0.55146   0.65833   0.94707   0.00000  Uiso   1.00
O131   O     0.78973   0.20073   0.50652   0.00000  Uiso   1.00
O132   O     0.57177   0.40350   0.21268   0.00000  Uiso   1.00
N133   N     0.61222   0.76719   0.96702   0.00000  Uiso   1.00
N134   N     0.78202   0.15370   0.65306   0.00000  Uiso   1.00
N135   N     0.62671   0.29821   0.15626   0.00000  Uiso   1.00
N136   N     0.54022   0.79616   0.89369   0.00000  Uiso   1.00
N137   N     0.71002   0.18267   0.57973   0.00000  Uiso   1.00
N138   N     0.55471   0.32719   0.08293   0.00000  Uiso   1.00
C139   C     0.82003   0.92954   0.93194   0.00000  Uiso   1.00
C140   C     0.85630   0.00604   0.92370   0.00000  Uiso   1.00
C141   C     0.84669   0.08650   0.95761   0.00000  Uiso   1.00
C142   C     0.88474   0.14788   0.94300   0.00000  Uiso   1.00
C143   C     0.93405   0.26948   0.93729   0.00000  Uiso   1.00
C144   C     0.80950   0.89952   0.83716   0.00000  Uiso   1.00
C145   C     0.76054   0.89042   0.79831   0.00000  Uiso   1.00
C146   C     0.75920   0.86213   0.71086   0.00000  Uiso   1.00
C147   C     0.73585   0.81831   0.57082   0.00000  Uiso   1.00
C148   C     0.85231   0.85971   0.97585   0.00000  Uiso   1.00
C149   C     0.83934   0.81711   0.05360   0.00000  Uiso   1.00
C150   C     0.87403   0.75527   0.08290   0.00000  Uiso   1.00
C151   C     0.91715   0.64964   0.15820   0.00000  Uiso   1.00
C152   C     0.90470   0.89546   0.84570   0.00000  Uiso   1.00
C153   C     0.90229   0.98753   0.87685   0.00000  Uiso   1.00
C154   C     0.94037   0.04880   0.86219   0.00000  Uiso   1.00
C155   C     0.93081   0.12934   0.89608   0.00000  Uiso   1.00
C156   C     0.85549   0.88102   0.79032   0.00000  Uiso   1.00
C157   C     0.85422   0.85272   0.70290   0.00000  Uiso   1.00
C158   C     0.80527   0.84358   0.66393   0.00000  Uiso   1.00
C159   C     0.89830   0.84120   0.92901   0.00000  Uiso   1.00
C160   C     0.93302   0.77942   0.95819   0.00000  Uiso   1.00
C161   C     0.92010   0.73673   0.03598   0.00000  Uiso   1.00
H162   H     0.78422   0.94394   0.96840   0.00000  Uiso   1.00
H163   H     0.81109   0.10080   0.99384   0.00000  Uiso   1.00
H164   H     0.72496   0.90474   0.83458   0.00000  Uiso   1.00
H165   H     0.80374   0.83145   0.08983   0.00000  Uiso   1.00
H166   H     0.86114   0.26654   0.00137   0.00000  Uiso   1.00
H167   H     0.67953   0.85312   0.66557   0.00000  Uiso   1.00
H168   H     0.84566   0.69856   0.20381   0.00000  Uiso   1.00
H169   H     0.94051   0.88105   0.80923   0.00000  Uiso   1.00
H170   H     0.97595   0.03446   0.82594   0.00000  Uiso   1.00
H171   H     0.88982   0.83840   0.66668   0.00000  Uiso   1.00
H172   H     0.96860   0.76511   0.92193   0.00000  Uiso   1.00
H173   H     0.99495   0.21270   0.86509   0.00000  Uiso   1.00
H174   H     0.81334   0.79927   0.52929   0.00000  Uiso   1.00
H175   H     0.97947   0.64472   0.06753   0.00000  Uiso   1.00
O176   O     0.94854   0.34167   0.94707   0.00000  Uiso   1.00
O177   O     0.71027   0.79927   0.50652   0.00000  Uiso   1.00
O178   O     0.92823   0.59650   0.21268   0.00000  Uiso   1.00
N179   N     0.88778   0.23281   0.96702   0.00000  Uiso   1.00
N180   N     0.71798   0.84630   0.65306   0.00000  Uiso   1.00
N181   N     0.87329   0.70179   0.15626   0.00000  Uiso   1.00
N182   N     0.95978   0.20384   0.89369   0.00000  Uiso   1.00
N183   N     0.78998   0.81733   0.57973   0.00000  Uiso   1.00
N184   N     0.94529   0.67281   0.08293   0.00000  Uiso   1.00
C185   C     0.17997   0.42954   0.43194   0.00000  Uiso   1.00
C186   C     0.14370   0.50604   0.42370   0.00000  Uiso   1.00
C187   C     0.15331   0.58650   0.45761   0.00000  Uiso   1.00
C188   C     0.11526   0.64788   0.44300   0.00000  Uiso   1.00
C189   C     0.06595   0.76948   0.43729   0.00000  Uiso   1.00
C190   C     0.19050   0.39952   0.33716   0.00000  Uiso   1.00
C191   C     0.23946   0.39042   0.29831   0.00000  Uiso   1.00
C192   C     0.24080   0.36213   0.21086   0.00000  Uiso   1.00
C193   C     0.26415   0.31831   0.07082   0.00000  Uiso   1.00
C194   C     0.14769   0.35971   0.47585   0.00000  Uiso   1.00
C195   C     0.16066   0.31711   0.55360   0.00000  Uiso   1.00
C196   C     0.12597   0.25527   0.58290   0.00000  Uiso   1.00
C197   C     0.08285   0.14964   0.65820   0.00000  Uiso   1.00
C198   C     0.09530   0.39546   0.34570   0.00000  Uiso   1.00
C199   C     0.09771   0.48753   0.37685   0.00000  Uiso   1.00
C200   C     0.05963   0.54880   0.36219   0.00000  Uiso   1.00
C201   C     0.06919   0.62934   0.39608   0.00000  Uiso   1.00
C202   C     0.14451   0.38102   0.29032   0.00000  Uiso   1.00
C203   C     0.14578   0.35272   0.20290   0.00000  Uiso   1.00
C204   C     0.19473   0.34358   0.16393   0.00000  Uiso   1.00
C205   C     0.10170   0.34120   0.42901   0.00000  Uiso   1.00
C206   C     0.06698   0.27942   0.45819   0.00000  Uiso   1.00
C207   C     0.07990   0.23673   0.53598   0.00000  Uiso   1.00
H208   H     0.21578   0.44394   0.46840   0.00000  Uiso   1.00
H209   H     0.18891   0.60080   0.49384   0.00000  Uiso   1.00
H210   H     0.27504   0.40474   0.33458   0.00000  Uiso   1.00
H211   H     0.19626   0.33145   0.58983   0.00000  Uiso   1.00
H212   H     0.13886   0.76654   0.50137   0.00000  Uiso   1.00
H213   H     0.32047   0.35312   0.16557   0.00000  Uiso   1.00
H214   H     0.15434   0.19856   0.70381   0.00000  Uiso   1.00
H215   H     0.05949   0.38105   0.30923   0.00000  Uiso   1.00
H216   H     0.02405   0.53446   0.32594   0.00000  Uiso   1.00
H217   H     0.11018   0.33840   0.16668   0.00000  Uiso   1.00
H218   H     0.03140   0.26511   0.42193   0.00000  Uiso   1.00
H219   H     0.00505   0.71270   0.36509   0.00000  Uiso   1.00
H220   H     0.18666   0.29927   0.02929   0.00000  Uiso   1.00
H221   H     0.02053   0.14472   0.56753   0.00000  Uiso   1.00
O222   O     0.05146   0.84167   0.44707   0.00000  Uiso   1.00
O223   O     0.28973   0.29927   0.00652   0.00000  Uiso   1.00
O224   O     0.07177   0.09650   0.71268   0.00000  Uiso   1.00
N225   N     0.11222   0.73281   0.46702   0.00000  Uiso   1.00
N226   N     0.28202   0.34630   0.15306   0.00000  Uiso   1.00
N227   N     0.12671   0.20179   0.65626   0.00000  Uiso   1.00
N228   N     0.04022   0.70384   0.39369   0.00000  Uiso   1.00
N229   N     0.21002   0.31733   0.07973   0.00000  Uiso   1.00
N230   N     0.05471   0.17281   0.58293   0.00000  Uiso   1.00
C231   C     0.32003   0.57046   0.43194   0.00000  Uiso   1.00
C232   C     0.35630   0.49396   0.42370   0.00000  Uiso   1.00
C233   C     0.34669   0.41350   0.45761   0.00000  Uiso   1.00
C234   C     0.38474   0.35212   0.44300   0.00000  Uiso   1.00
C235   C     0.43405   0.23052   0.43729   0.00000  Uiso   1.00
C236   C     0.30950   0.60048   0.33716   0.00000  Uiso   1.00
C237   C     0.26054   0.60958   0.29831   0.00000  Uiso   1.00
C238   C     0.25920   0.63787   0.21086   0.00000  Uiso   1.00
C239   C     0.23585   0.68169   0.07082   0.00000  Uiso   1.00
C240   C     0.35231   0.64029   0.47585   0.00000  Uiso   1.00
C241   C     0.33934   0.68289   0.55360   0.00000  Uiso   1.00
C242   C     0.37403   0.74473   0.58290   0.00000  Uiso   1.00
C243   C     0.41715   0.85036   0.65820   0.00000  Uiso   1.00
C244   C     0.40470   0.60454   0.34570   0.00000  Uiso   1.00
C245   C     0.40229   0.51247   0.37685   0.00000  Uiso   1.00
C246   C     0.44037   0.45120   0.36219   0.00000  Uiso   1.00
C247   C     0.43081   0.37066   0.39608   0.00000  Uiso   1.00
C248   C     0.35549   0.61898   0.29032   0.00000  Uiso   1.00
C249   C     0.35422   0.64728   0.20290   0.00000  Uiso   1.00
C250   C     0.30527   0.65642   0.16393   0.00000  Uiso   1.00
C251   C     0.39830   0.65880   0.42901   0.00000  Uiso   1.00
C252   C     0.43302   0.72058   0.45819   0.00000  Uiso   1.00
C253   C     0.42010   0.76327   0.53598   0.00000  Uiso   1.00
H254   H     0.28422   0.55606   0.46840   0.00000  Uiso   1.00
H255   H     0.31109   0.39920   0.49384   0.00000  Uiso   1.00
H256   H     0.22496   0.59526   0.33458   0.00000  Uiso   1.00
H257   H     0.30374   0.66855   0.58983   0.00000  Uiso   1.00
H258   H     0.36114   0.23346   0.50137   0.00000  Uiso   1.00
H259   H     0.17953   0.64688   0.16557   0.00000  Uiso   1.00
H260   H     0.34566   0.80144   0.70381   0.00000  Uiso   1.00
H261   H     0.44051   0.61895   0.30923   0.00000  Uiso   1.00
H262   H     0.47595   0.46554   0.32594   0.00000  Uiso   1.00
H263   H     0.38982   0.66160   0.16668   0.00000  Uiso   1.00
H264   H     0.46860   0.73489   0.42193   0.00000  Uiso   1.00
H265   H     0.49495   0.28730   0.36509   0.00000  Uiso   1.00
H266   H     0.31334   0.70073   0.02929   0.00000  Uiso   1.00
H267   H     0.47947   0.85528   0.56753   0.00000  Uiso   1.00
O268   O     0.44854   0.15833   0.44707   0.00000  Uiso   1.00
O269   O     0.21027   0.70073   0.00652   0.00000  Uiso   1.00
O270   O     0.42823   0.90350   0.71268   0.00000  Uiso   1.00
N271   N     0.38778   0.26719   0.46702   0.00000  Uiso   1.00
N272   N     0.21798   0.65370   0.15306   0.00000  Uiso   1.00
N273   N     0.37329   0.79821   0.65626   0.00000  Uiso   1.00
N274   N     0.45978   0.29616   0.39369   0.00000  Uiso   1.00
N275   N     0.28998   0.68267   0.07973   0.00000  Uiso   1.00
N276   N     0.44529   0.82719   0.58293   0.00000  Uiso   1.00
C277   C     0.32003   0.92954   0.06806   0.00000  Uiso   1.00
C278   C     0.35630   0.00604   0.07630   0.00000  Uiso   1.00
C279   C     0.34669   0.08650   0.04239   0.00000  Uiso   1.00
C280   C     0.38474   0.14788   0.05700   0.00000  Uiso   1.00
C281   C     0.43405   0.26948   0.06271   0.00000  Uiso   1.00
C282   C     0.30950   0.89952   0.16284   0.00000  Uiso   1.00
C283   C     0.26054   0.89042   0.20169   0.00000  Uiso   1.00
C284   C     0.25920   0.86213   0.28914   0.00000  Uiso   1.00
C285   C     0.23585   0.81831   0.42918   0.00000  Uiso   1.00
C286   C     0.35231   0.85971   0.02415   0.00000  Uiso   1.00
C287   C     0.33934   0.81711   0.94640   0.00000  Uiso   1.00
C288   C     0.37403   0.75527   0.91710   0.00000  Uiso   1.00
C289   C     0.41715   0.64964   0.84180   0.00000  Uiso   1.00
C290   C     0.40470   0.89546   0.15430   0.00000  Uiso   1.00
C291   C     0.40229   0.98753   0.12315   0.00000  Uiso   1.00
C292   C     0.44037   0.04880   0.13781   0.00000  Uiso   1.00
C293   C     0.43081   0.12934   0.10392   0.00000  Uiso   1.00
C294   C     0.35549   0.88102   0.20968   0.00000  Uiso   1.00
C295   C     0.35422   0.85272   0.29710   0.00000  Uiso   1.00
C296   C     0.30527   0.84358   0.33607   0.00000  Uiso   1.00
C297   C     0.39830   0.84120   0.07099   0.00000  Uiso   1.00
C298   C     0.43302   0.77942   0.04181   0.00000  Uiso   1.00
C299   C     0.42010   0.73673   0.96402   0.00000  Uiso   1.00
H300   H     0.28422   0.94394   0.03160   0.00000  Uiso   1.00
H301   H     0.31109   0.10080   0.00616   0.00000  Uiso   1.00
H302   H     0.22496   0.90474   0.16542   0.00000  Uiso   1.00
H303   H     0.30374   0.83145   0.91017   0.00000  Uiso   1.00
H304   H     0.36114   0.26654   0.99863   0.00000  Uiso   1.00
H305   H     0.17953   0.85312   0.33443   0.00000  Uiso   1.00
H306   H     0.34566   0.69856   0.79619   0.00000  Uiso   1.00
H307   H     0.44051   0.88105   0.19077   0.00000  Uiso   1.00
H308   H     0.47595   0.03446   0.17406   0.00000  Uiso   1.00
H309   H     0.38982   0.83840   0.33332   0.00000  Uiso   1.00
H310   H     0.46860   0.76511   0.07807   0.00000  Uiso   1.00
H311   H     0.49495   0.21270   0.13491   0.00000  Uiso   1.00
H312   H     0.31334   0.79927   0.47071   0.00000  Uiso   1.00
H313   H     0.47947   0.64472   0.93247   0.00000  Uiso   1.00
O314   O     0.44854   0.34167   0.05293   0.00000  Uiso   1.00
O315   O     0.21027   0.79927   0.49348   0.00000  Uiso   1.00
O316   O     0.42823   0.59650   0.78732   0.00000  Uiso   1.00
N317   N     0.38778   0.23281   0.03298   0.00000  Uiso   1.00
N318   N     0.21798   0.84630   0.34694   0.00000  Uiso   1.00
N319   N     0.37329   0.70179   0.84374   0.00000  Uiso   1.00
N320   N     0.45978   0.20384   0.10631   0.00000  Uiso   1.00
N321   N     0.28998   0.81733   0.42027   0.00000  Uiso   1.00
N322   N     0.44529   0.67281   0.91707   0.00000  Uiso   1.00
C323   C     0.17997   0.07046   0.06806   0.00000  Uiso   1.00
C324   C     0.14370   0.99396   0.07630   0.00000  Uiso   1.00
C325   C     0.15331   0.91350   0.04239   0.00000  Uiso   1.00
C326   C     0.11526   0.85212   0.05700   0.00000  Uiso   1.00
C327   C     0.06595   0.73052   0.06271   0.00000  Uiso   1.00
C328   C     0.19050   0.10048   0.16284   0.00000  Uiso   1.00
C329   C     0.23946   0.10958   0.20169   0.00000  Uiso   1.00
C330   C     0.24080   0.13787   0.28914   0.00000  Uiso   1.00
C331   C     0.26415   0.18169   0.42918   0.00000  Uiso   1.00
C332   C     0.14769   0.14029   0.02415   0.00000  Uiso   1.00
C333   C     0.16066   0.18289   0.94640   0.00000  Uiso   1.00
C334   C     0.12597   0.24473   0.91710   0.00000  Uiso   1.00
C335   C     0.08285   0.35036   0.84180   0.00000  Uiso   1.00
C336   C     0.09530   0.10454   0.15430   0.00000  Uiso   1.00
C337   C     0.09771   0.01247   0.12315   0.00000  Uiso   1.00
C338   C     0.05963   0.95120   0.13781   0.00000  Uiso   1.00
C339   C     0.06919   0.87066   0.10392   0.00000  Uiso   1.00
C340   C     0.14451   0.11898   0.20968   0.00000  Uiso   1.00
C341   C     0.14578   0.14728   0.29710   0.00000  Uiso   1.00
C342   C     0.19473   0.15642   0.33607   0.00000  Uiso   1.00
C343   C     0.10170   0.15880   0.07099   0.00000  Uiso   1.00
C344   C     0.06698   0.22058   0.04181   0.00000  Uiso   1.00
C345   C     0.07990   0.26327   0.96402   0.00000  Uiso   1.00
H346   H     0.21578   0.05606   0.03160   0.00000  Uiso   1.00
H347   H     0.18891   0.89920   0.00616   0.00000  Uiso   1.00
H348   H     0.27504   0.09526   0.16542   0.00000  Uiso   1.00
H349   H     0.19626   0.16855   0.91017   0.00000  Uiso   1.00
H350   H     0.13886   0.73346   0.99863   0.00000  Uiso   1.00
H351   H     0.32047   0.14688   0.33443   0.00000  Uiso   1.00
H352   H     0.15434   0.30144   0.79619   0.00000  Uiso   1.00
H353   H     0.05949   0.11895   0.19077   0.00000  Uiso   1.00
H354   H     0.02405   0.96554   0.17406   0.00000  Uiso   1.00
H355   H     0.11018   0.16160   0.33332   0.00000  Uiso   1.00
H356   H     0.03140   0.23489   0.07807   0.00000  Uiso   1.00
H357   H     0.00505   0.78730   0.13491   0.00000  Uiso   1.00
H358   H     0.18666   0.20073   0.47071   0.00000  Uiso   1.00
H359   H     0.02053   0.35528   0.93247   0.00000  Uiso   1.00
O360   O     0.05146   0.65833   0.05293   0.00000  Uiso   1.00
O361   O     0.28973   0.20073   0.49348   0.00000  Uiso   1.00
O362   O     0.07177   0.40350   0.78732   0.00000  Uiso   1.00
N363   N     0.11222   0.76719   0.03298   0.00000  Uiso   1.00
N364   N     0.28202   0.15370   0.34694   0.00000  Uiso   1.00
N365   N     0.12671   0.29821   0.84374   0.00000  Uiso   1.00
N366   N     0.04022   0.79616   0.10631   0.00000  Uiso   1.00
N367   N     0.21002   0.18267   0.42027   0.00000  Uiso   1.00
N368   N     0.05471   0.32719   0.91707   0.00000  Uiso   1.00
