data_job_03869
_audit_creation_date              2018-12-19
_audit_creation_method            'Materials Studio'
_symmetry_space_group_name_H-M    'P1'
_symmetry_Int_Tables_number       1
_symmetry_cell_setting            triclinic
loop_
_symmetry_equiv_pos_as_xyz
  x,y,z
_cell_length_a                    19.5935
_cell_length_b                    17.3209
_cell_length_c                    20.3616
_cell_angle_alpha                 90.0000
_cell_angle_beta                  36.4604
_cell_angle_gamma                 90.0000
loop_
_atom_site_label
_atom_site_type_symbol
_atom_site_fract_x
_atom_site_fract_y
_atom_site_fract_z
_atom_site_U_iso_or_equiv
_atom_site_adp_type
_atom_site_occupancy
C1     C     0.90227   0.96457   0.99986   0.00000  Uiso   1.00
C2     C     0.89778   0.87833   0.01817   0.00000  Uiso   1.00
C3     C     0.95162   0.84170   0.02871   0.00000  Uiso   1.00
C4     C     0.93706   0.76236   0.04501   0.00000  Uiso   1.00
C5     C     0.94017   0.63470   0.07253   0.00000  Uiso   1.00
C6     C     0.94791   0.97171   0.89460   0.00000  Uiso   1.00
C7     C     0.04390   0.01360   0.80126   0.00000  Uiso   1.00
C8     C     0.07153   0.01288   0.71355   0.00000  Uiso   1.00
C9     C     0.15243   0.03023   0.54928   0.00000  Uiso   1.00
C10    C     0.77779   0.99177   0.09380   0.00000  Uiso   1.00
C11    C     0.73074   0.05054   0.16792   0.00000  Uiso   1.00
C12    C     0.61513   0.06672   0.24790   0.00000  Uiso   1.00
C13    C     0.43189   0.11522   0.39290   0.00000  Uiso   1.00
C14    C     0.78065   0.88882   0.01007   0.00000  Uiso   1.00
C15    C     0.83172   0.83718   0.02371   0.00000  Uiso   1.00
C16    C     0.81706   0.75788   0.04000   0.00000  Uiso   1.00
C17    C     0.87087   0.72114   0.05057   0.00000  Uiso   1.00
C18    C     0.88186   0.93056   0.90015   0.00000  Uiso   1.00
C19    C     0.90934   0.92978   0.81256   0.00000  Uiso   1.00
C20    C     0.00534   0.97165   0.71911   0.00000  Uiso   1.00
C21    C     0.71172   0.95062   0.09934   0.00000  Uiso   1.00
C22    C     0.59617   0.96672   0.17922   0.00000  Uiso   1.00
C23    C     0.54895   0.02550   0.25346   0.00000  Uiso   1.00
H24    H     0.95371   0.99661   0.99554   0.00000  Uiso   1.00
H25    H     0.00275   0.87356   0.02440   0.00000  Uiso   1.00
H26    H     0.09500   0.04544   0.79700   0.00000  Uiso   1.00
H27    H     0.78189   0.08237   0.16361   0.00000  Uiso   1.00
H28    H     0.02802   0.71899   0.05881   0.00000  Uiso   1.00
H29    H     0.22252   0.08143   0.57933   0.00000  Uiso   1.00
H30    H     0.56225   0.15930   0.35239   0.00000  Uiso   1.00
H31    H     0.72921   0.85678   0.01438   0.00000  Uiso   1.00
H32    H     0.76593   0.72605   0.04429   0.00000  Uiso   1.00
H33    H     0.85819   0.89793   0.81688   0.00000  Uiso   1.00
H34    H     0.54507   0.93486   0.18348   0.00000  Uiso   1.00
H35    H     0.83581   0.59926   0.07494   0.00000  Uiso   1.00
H36    H     0.03031   0.96171   0.59547   0.00000  Uiso   1.00
H37    H     0.37004   0.03958   0.36852   0.00000  Uiso   1.00
O38    O     0.96016   0.57565   0.08616   0.00000  Uiso   1.00
O39    O     0.21532   0.05117   0.45713   0.00000  Uiso   1.00
O40    O     0.34906   0.15333   0.47136   0.00000  Uiso   1.00
N41    N     0.97773   0.70875   0.05852   0.00000  Uiso   1.00
N42    N     0.15959   0.04760   0.61024   0.00000  Uiso   1.00
N43    N     0.54230   0.12042   0.33296   0.00000  Uiso   1.00
N44    N     0.87430   0.64433   0.06720   0.00000  Uiso   1.00
N45    N     0.05616   0.98318   0.61892   0.00000  Uiso   1.00
N46    N     0.43887   0.05600   0.34164   0.00000  Uiso   1.00
C47    C     0.09773   0.46457   0.50014   0.00000  Uiso   1.00
C48    C     0.10222   0.37833   0.48183   0.00000  Uiso   1.00
C49    C     0.04838   0.34170   0.47129   0.00000  Uiso   1.00
C50    C     0.06294   0.26236   0.45499   0.00000  Uiso   1.00
C51    C     0.05983   0.13470   0.42747   0.00000  Uiso   1.00
C52    C     0.05209   0.47171   0.60540   0.00000  Uiso   1.00
C53    C     0.95610   0.51360   0.69874   0.00000  Uiso   1.00
C54    C     0.92847   0.51288   0.78645   0.00000  Uiso   1.00
C55    C     0.84757   0.53023   0.95072   0.00000  Uiso   1.00
C56    C     0.22221   0.49177   0.40620   0.00000  Uiso   1.00
C57    C     0.26926   0.55054   0.33208   0.00000  Uiso   1.00
C58    C     0.38487   0.56672   0.25210   0.00000  Uiso   1.00
C59    C     0.56811   0.61522   0.10710   0.00000  Uiso   1.00
C60    C     0.21935   0.38882   0.48993   0.00000  Uiso   1.00
C61    C     0.16828   0.33718   0.47629   0.00000  Uiso   1.00
C62    C     0.18294   0.25788   0.46000   0.00000  Uiso   1.00
C63    C     0.12913   0.22114   0.44943   0.00000  Uiso   1.00
C64    C     0.11814   0.43056   0.59985   0.00000  Uiso   1.00
C65    C     0.09066   0.42978   0.68744   0.00000  Uiso   1.00
C66    C     0.99466   0.47165   0.78089   0.00000  Uiso   1.00
C67    C     0.28828   0.45062   0.40066   0.00000  Uiso   1.00
C68    C     0.40383   0.46672   0.32078   0.00000  Uiso   1.00
C69    C     0.45105   0.52550   0.24654   0.00000  Uiso   1.00
H70    H     0.04629   0.49661   0.50446   0.00000  Uiso   1.00
H71    H     0.99725   0.37356   0.47560   0.00000  Uiso   1.00
H72    H     0.90500   0.54544   0.70300   0.00000  Uiso   1.00
H73    H     0.21811   0.58237   0.33639   0.00000  Uiso   1.00
H74    H     0.97198   0.21899   0.44119   0.00000  Uiso   1.00
H75    H     0.77748   0.58143   0.92067   0.00000  Uiso   1.00
H76    H     0.43775   0.65930   0.14761   0.00000  Uiso   1.00
H77    H     0.27079   0.35678   0.48562   0.00000  Uiso   1.00
H78    H     0.23407   0.22605   0.45571   0.00000  Uiso   1.00
H79    H     0.14181   0.39793   0.68312   0.00000  Uiso   1.00
H80    H     0.45493   0.43486   0.31652   0.00000  Uiso   1.00
H81    H     0.16419   0.09926   0.42506   0.00000  Uiso   1.00
H82    H     0.96969   0.46171   0.90453   0.00000  Uiso   1.00
H83    H     0.62996   0.53958   0.13148   0.00000  Uiso   1.00
O84    O     0.03984   0.07565   0.41384   0.00000  Uiso   1.00
O85    O     0.78468   0.55117   0.04287   0.00000  Uiso   1.00
O86    O     0.65094   0.65333   0.02864   0.00000  Uiso   1.00
N87    N     0.02227   0.20875   0.44148   0.00000  Uiso   1.00
N88    N     0.84041   0.54760   0.88976   0.00000  Uiso   1.00
N89    N     0.45770   0.62042   0.16704   0.00000  Uiso   1.00
N90    N     0.12570   0.14433   0.43280   0.00000  Uiso   1.00
N91    N     0.94384   0.48318   0.88108   0.00000  Uiso   1.00
N92    N     0.56113   0.55600   0.15836   0.00000  Uiso   1.00
C93    C     0.09773   0.03543   0.00014   0.00000  Uiso   1.00
C94    C     0.10222   0.12167   0.98183   0.00000  Uiso   1.00
C95    C     0.04838   0.15830   0.97129   0.00000  Uiso   1.00
C96    C     0.06294   0.23764   0.95499   0.00000  Uiso   1.00
C97    C     0.05983   0.36530   0.92747   0.00000  Uiso   1.00
C98    C     0.05209   0.02829   0.10540   0.00000  Uiso   1.00
C99    C     0.95610   0.98640   0.19874   0.00000  Uiso   1.00
C100   C     0.92847   0.98712   0.28645   0.00000  Uiso   1.00
C101   C     0.84757   0.96977   0.45072   0.00000  Uiso   1.00
C102   C     0.22221   0.00823   0.90620   0.00000  Uiso   1.00
C103   C     0.26926   0.94946   0.83208   0.00000  Uiso   1.00
C104   C     0.38487   0.93328   0.75210   0.00000  Uiso   1.00
C105   C     0.56811   0.88478   0.60710   0.00000  Uiso   1.00
C106   C     0.21935   0.11118   0.98993   0.00000  Uiso   1.00
C107   C     0.16828   0.16282   0.97629   0.00000  Uiso   1.00
C108   C     0.18294   0.24212   0.96000   0.00000  Uiso   1.00
C109   C     0.12913   0.27886   0.94943   0.00000  Uiso   1.00
C110   C     0.11814   0.06944   0.09985   0.00000  Uiso   1.00
C111   C     0.09066   0.07022   0.18744   0.00000  Uiso   1.00
C112   C     0.99466   0.02835   0.28089   0.00000  Uiso   1.00
C113   C     0.28828   0.04938   0.90066   0.00000  Uiso   1.00
C114   C     0.40383   0.03328   0.82078   0.00000  Uiso   1.00
C115   C     0.45105   0.97450   0.74654   0.00000  Uiso   1.00
H116   H     0.04629   0.00339   0.00446   0.00000  Uiso   1.00
H117   H     0.99725   0.12644   0.97560   0.00000  Uiso   1.00
H118   H     0.90500   0.95456   0.20300   0.00000  Uiso   1.00
H119   H     0.21811   0.91763   0.83639   0.00000  Uiso   1.00
H120   H     0.97198   0.28101   0.94119   0.00000  Uiso   1.00
H121   H     0.77748   0.91857   0.42067   0.00000  Uiso   1.00
H122   H     0.43775   0.84070   0.64761   0.00000  Uiso   1.00
H123   H     0.27079   0.14322   0.98562   0.00000  Uiso   1.00
H124   H     0.23407   0.27395   0.95571   0.00000  Uiso   1.00
H125   H     0.14181   0.10207   0.18312   0.00000  Uiso   1.00
H126   H     0.45493   0.06514   0.81652   0.00000  Uiso   1.00
H127   H     0.16419   0.40074   0.92506   0.00000  Uiso   1.00
H128   H     0.96969   0.03829   0.40453   0.00000  Uiso   1.00
H129   H     0.62996   0.96042   0.63148   0.00000  Uiso   1.00
O130   O     0.03984   0.42435   0.91384   0.00000  Uiso   1.00
O131   O     0.78468   0.94883   0.54287   0.00000  Uiso   1.00
O132   O     0.65094   0.84667   0.52864   0.00000  Uiso   1.00
N133   N     0.02227   0.29125   0.94148   0.00000  Uiso   1.00
N134   N     0.84041   0.95240   0.38976   0.00000  Uiso   1.00
N135   N     0.45770   0.87958   0.66704   0.00000  Uiso   1.00
N136   N     0.12570   0.35567   0.93280   0.00000  Uiso   1.00
N137   N     0.94384   0.01682   0.38108   0.00000  Uiso   1.00
N138   N     0.56113   0.94400   0.65836   0.00000  Uiso   1.00
C139   C     0.90227   0.53543   0.49986   0.00000  Uiso   1.00
C140   C     0.89778   0.62167   0.51817   0.00000  Uiso   1.00
C141   C     0.95162   0.65830   0.52871   0.00000  Uiso   1.00
C142   C     0.93706   0.73764   0.54501   0.00000  Uiso   1.00
C143   C     0.94017   0.86530   0.57253   0.00000  Uiso   1.00
C144   C     0.94791   0.52829   0.39460   0.00000  Uiso   1.00
C145   C     0.04390   0.48640   0.30126   0.00000  Uiso   1.00
C146   C     0.07153   0.48712   0.21355   0.00000  Uiso   1.00
C147   C     0.15243   0.46977   0.04928   0.00000  Uiso   1.00
C148   C     0.77779   0.50823   0.59380   0.00000  Uiso   1.00
C149   C     0.73074   0.44946   0.66792   0.00000  Uiso   1.00
C150   C     0.61513   0.43328   0.74790   0.00000  Uiso   1.00
C151   C     0.43189   0.38478   0.89290   0.00000  Uiso   1.00
C152   C     0.78065   0.61118   0.51007   0.00000  Uiso   1.00
C153   C     0.83172   0.66282   0.52371   0.00000  Uiso   1.00
C154   C     0.81706   0.74212   0.54000   0.00000  Uiso   1.00
C155   C     0.87087   0.77886   0.55057   0.00000  Uiso   1.00
C156   C     0.88186   0.56944   0.40015   0.00000  Uiso   1.00
C157   C     0.90934   0.57022   0.31256   0.00000  Uiso   1.00
C158   C     0.00534   0.52835   0.21911   0.00000  Uiso   1.00
C159   C     0.71172   0.54938   0.59934   0.00000  Uiso   1.00
C160   C     0.59617   0.53328   0.67922   0.00000  Uiso   1.00
C161   C     0.54895   0.47450   0.75346   0.00000  Uiso   1.00
H162   H     0.95371   0.50339   0.49554   0.00000  Uiso   1.00
H163   H     0.00275   0.62644   0.52440   0.00000  Uiso   1.00
H164   H     0.09500   0.45456   0.29700   0.00000  Uiso   1.00
H165   H     0.78189   0.41763   0.66361   0.00000  Uiso   1.00
H166   H     0.02802   0.78101   0.55881   0.00000  Uiso   1.00
H167   H     0.22252   0.41857   0.07933   0.00000  Uiso   1.00
H168   H     0.56225   0.34070   0.85239   0.00000  Uiso   1.00
H169   H     0.72921   0.64322   0.51438   0.00000  Uiso   1.00
H170   H     0.76593   0.77395   0.54429   0.00000  Uiso   1.00
H171   H     0.85819   0.60207   0.31688   0.00000  Uiso   1.00
H172   H     0.54507   0.56514   0.68348   0.00000  Uiso   1.00
H173   H     0.83581   0.90074   0.57494   0.00000  Uiso   1.00
H174   H     0.03031   0.53829   0.09547   0.00000  Uiso   1.00
H175   H     0.37004   0.46042   0.86852   0.00000  Uiso   1.00
O176   O     0.96016   0.92435   0.58616   0.00000  Uiso   1.00
O177   O     0.21532   0.44883   0.95713   0.00000  Uiso   1.00
O178   O     0.34906   0.34667   0.97136   0.00000  Uiso   1.00
N179   N     0.97773   0.79125   0.55852   0.00000  Uiso   1.00
N180   N     0.15959   0.45240   0.11024   0.00000  Uiso   1.00
N181   N     0.54230   0.37958   0.83296   0.00000  Uiso   1.00
N182   N     0.87430   0.85567   0.56720   0.00000  Uiso   1.00
N183   N     0.05616   0.51682   0.11892   0.00000  Uiso   1.00
N184   N     0.43887   0.44400   0.84164   0.00000  Uiso   1.00
