data_job_01985
_audit_creation_date              2018-12-19
_audit_creation_method            'Materials Studio'
_symmetry_space_group_name_H-M    'P1'
_symmetry_Int_Tables_number       1
_symmetry_cell_setting            triclinic
loop_
_symmetry_equiv_pos_as_xyz
  x,y,z
_cell_length_a                    39.4350
_cell_length_b                    12.4652
_cell_length_c                    12.0625
_cell_angle_alpha                 90.0000
_cell_angle_beta                  90.0000
_cell_angle_gamma                 90.0000
loop_
_atom_site_label
_atom_site_type_symbol
_atom_site_fract_x
_atom_site_fract_y
_atom_site_fract_z
_atom_site_U_iso_or_equiv
_atom_site_adp_type
_atom_site_occupancy
C1     C     0.84459   0.49855   0.65025   0.00000  Uiso   1.00
C2     C     0.87646   0.49630   0.72182   0.00000  Uiso   1.00
C3     C     0.90273   0.42271   0.71301   0.00000  Uiso   1.00
C4     C     0.92966   0.43425   0.78620   0.00000  Uiso   1.00
C5     C     0.97904   0.41821   0.88532   0.00000  Uiso   1.00
C6     C     0.81475   0.49305   0.73044   0.00000  Uiso   1.00
C7     C     0.78913   0.41674   0.72886   0.00000  Uiso   1.00
C8     C     0.76410   0.42555   0.80931   0.00000  Uiso   1.00
C9     C     0.71766   0.40452   0.92176   0.00000  Uiso   1.00
C10    C     0.84332   0.61001   0.59833   0.00000  Uiso   1.00
C11    C     0.84172   0.63205   0.48567   0.00000  Uiso   1.00
C12    C     0.84074   0.73933   0.45489   0.00000  Uiso   1.00
C13    C     0.83867   0.89990   0.36222   0.00000  Uiso   1.00
C14    C     0.84570   0.64990   0.79590   0.00000  Uiso   1.00
C15    C     0.87706   0.57851   0.80093   0.00000  Uiso   1.00
C16    C     0.90396   0.59016   0.87415   0.00000  Uiso   1.00
C17    C     0.93026   0.51660   0.86545   0.00000  Uiso   1.00
C18    C     0.81535   0.57526   0.80955   0.00000  Uiso   1.00
C19    C     0.79035   0.58419   0.89000   0.00000  Uiso   1.00
C20    C     0.76470   0.50790   0.88856   0.00000  Uiso   1.00
C21    C     0.84393   0.69222   0.67743   0.00000  Uiso   1.00
C22    C     0.84295   0.79949   0.64682   0.00000  Uiso   1.00
C23    C     0.84135   0.82169   0.53414   0.00000  Uiso   1.00
H24    H     0.84412   0.43455   0.58867   0.00000  Uiso   1.00
H25    H     0.90226   0.35910   0.65178   0.00000  Uiso   1.00
H26    H     0.78867   0.35314   0.66763   0.00000  Uiso   1.00
H27    H     0.84126   0.56841   0.42448   0.00000  Uiso   1.00
H28    H     0.96697   0.31168   0.75667   0.00000  Uiso   1.00
H29    H     0.72745   0.29913   0.79006   0.00000  Uiso   1.00
H30    H     0.83834   0.75307   0.27733   0.00000  Uiso   1.00
H31    H     0.84617   0.71390   0.85749   0.00000  Uiso   1.00
H32    H     0.90441   0.65378   0.93536   0.00000  Uiso   1.00
H33    H     0.79082   0.64782   0.95121   0.00000  Uiso   1.00
H34    H     0.84341   0.86309   0.70806   0.00000  Uiso   1.00
H35    H     0.96872   0.55085   0.98684   0.00000  Uiso   1.00
H36    H     0.72920   0.53830   0.02022   0.00000  Uiso   1.00
H37    H     0.84009   0.99224   0.50749   0.00000  Uiso   1.00
O38    O     0.00611   0.38665   0.91815   0.00000  Uiso   1.00
O39    O     0.69188   0.37020   0.96194   0.00000  Uiso   1.00
O40    O     0.83737   0.96576   0.28925   0.00000  Uiso   1.00
N41    N     0.95939   0.37623   0.80014   0.00000  Uiso   1.00
N42    N     0.73546   0.36449   0.83137   0.00000  Uiso   1.00
N43    N     0.83913   0.78889   0.35201   0.00000  Uiso   1.00
N44    N     0.96033   0.50493   0.92399   0.00000  Uiso   1.00
N45    N     0.73640   0.49318   0.95522   0.00000  Uiso   1.00
N46    N     0.84007   0.91758   0.47586   0.00000  Uiso   1.00
C47    C     0.65541   0.00145   0.15025   0.00000  Uiso   1.00
C48    C     0.62354   0.00370   0.22182   0.00000  Uiso   1.00
C49    C     0.59727   0.07729   0.21301   0.00000  Uiso   1.00
C50    C     0.57034   0.06575   0.28620   0.00000  Uiso   1.00
C51    C     0.52096   0.08179   0.38532   0.00000  Uiso   1.00
C52    C     0.68525   0.00695   0.23044   0.00000  Uiso   1.00
C53    C     0.71087   0.08326   0.22886   0.00000  Uiso   1.00
C54    C     0.73590   0.07445   0.30931   0.00000  Uiso   1.00
C55    C     0.78234   0.09548   0.42176   0.00000  Uiso   1.00
C56    C     0.65668   0.88999   0.09833   0.00000  Uiso   1.00
C57    C     0.65828   0.86795   0.98567   0.00000  Uiso   1.00
C58    C     0.65926   0.76067   0.95489   0.00000  Uiso   1.00
C59    C     0.66133   0.60010   0.86222   0.00000  Uiso   1.00
C60    C     0.65430   0.85010   0.29590   0.00000  Uiso   1.00
C61    C     0.62294   0.92149   0.30093   0.00000  Uiso   1.00
C62    C     0.59604   0.90984   0.37415   0.00000  Uiso   1.00
C63    C     0.56974   0.98340   0.36545   0.00000  Uiso   1.00
C64    C     0.68465   0.92474   0.30955   0.00000  Uiso   1.00
C65    C     0.70965   0.91581   0.39000   0.00000  Uiso   1.00
C66    C     0.73530   0.99210   0.38856   0.00000  Uiso   1.00
C67    C     0.65607   0.80778   0.17743   0.00000  Uiso   1.00
C68    C     0.65705   0.70051   0.14682   0.00000  Uiso   1.00
C69    C     0.65865   0.67831   0.03414   0.00000  Uiso   1.00
H70    H     0.65588   0.06545   0.08867   0.00000  Uiso   1.00
H71    H     0.59774   0.14090   0.15178   0.00000  Uiso   1.00
H72    H     0.71133   0.14686   0.16763   0.00000  Uiso   1.00
H73    H     0.65874   0.93159   0.92448   0.00000  Uiso   1.00
H74    H     0.53303   0.18832   0.25667   0.00000  Uiso   1.00
H75    H     0.77255   0.20087   0.29006   0.00000  Uiso   1.00
H76    H     0.66166   0.74693   0.77733   0.00000  Uiso   1.00
H77    H     0.65383   0.78610   0.35749   0.00000  Uiso   1.00
H78    H     0.59559   0.84622   0.43536   0.00000  Uiso   1.00
H79    H     0.70918   0.85218   0.45121   0.00000  Uiso   1.00
H80    H     0.65659   0.63691   0.20806   0.00000  Uiso   1.00
H81    H     0.53128   0.94915   0.48684   0.00000  Uiso   1.00
H82    H     0.77080   0.96170   0.52022   0.00000  Uiso   1.00
H83    H     0.65991   0.50776   0.00749   0.00000  Uiso   1.00
O84    O     0.49389   0.11335   0.41815   0.00000  Uiso   1.00
O85    O     0.80812   0.12980   0.46194   0.00000  Uiso   1.00
O86    O     0.66263   0.53424   0.78925   0.00000  Uiso   1.00
N87    N     0.54061   0.12377   0.30014   0.00000  Uiso   1.00
N88    N     0.76454   0.13551   0.33137   0.00000  Uiso   1.00
N89    N     0.66087   0.71111   0.85201   0.00000  Uiso   1.00
N90    N     0.53967   0.99507   0.42399   0.00000  Uiso   1.00
N91    N     0.76360   0.00682   0.45522   0.00000  Uiso   1.00
N92    N     0.65993   0.58242   0.97586   0.00000  Uiso   1.00
C93    C     0.15541   0.49855   0.84975   0.00000  Uiso   1.00
C94    C     0.12354   0.49630   0.77818   0.00000  Uiso   1.00
C95    C     0.09727   0.42271   0.78699   0.00000  Uiso   1.00
C96    C     0.07034   0.43425   0.71380   0.00000  Uiso   1.00
C97    C     0.02096   0.41821   0.61468   0.00000  Uiso   1.00
C98    C     0.18525   0.49305   0.76956   0.00000  Uiso   1.00
C99    C     0.21087   0.41674   0.77114   0.00000  Uiso   1.00
C100   C     0.23590   0.42555   0.69069   0.00000  Uiso   1.00
C101   C     0.28234   0.40452   0.57824   0.00000  Uiso   1.00
C102   C     0.15668   0.61001   0.90167   0.00000  Uiso   1.00
C103   C     0.15828   0.63205   0.01433   0.00000  Uiso   1.00
C104   C     0.15926   0.73933   0.04511   0.00000  Uiso   1.00
C105   C     0.16133   0.89990   0.13778   0.00000  Uiso   1.00
C106   C     0.15430   0.64990   0.70410   0.00000  Uiso   1.00
C107   C     0.12294   0.57851   0.69907   0.00000  Uiso   1.00
C108   C     0.09604   0.59016   0.62585   0.00000  Uiso   1.00
C109   C     0.06974   0.51660   0.63455   0.00000  Uiso   1.00
C110   C     0.18465   0.57526   0.69045   0.00000  Uiso   1.00
C111   C     0.20965   0.58419   0.61000   0.00000  Uiso   1.00
C112   C     0.23530   0.50790   0.61144   0.00000  Uiso   1.00
C113   C     0.15607   0.69222   0.82257   0.00000  Uiso   1.00
C114   C     0.15705   0.79949   0.85318   0.00000  Uiso   1.00
C115   C     0.15865   0.82169   0.96586   0.00000  Uiso   1.00
H116   H     0.15588   0.43455   0.91133   0.00000  Uiso   1.00
H117   H     0.09774   0.35910   0.84822   0.00000  Uiso   1.00
H118   H     0.21133   0.35314   0.83237   0.00000  Uiso   1.00
H119   H     0.15874   0.56841   0.07552   0.00000  Uiso   1.00
H120   H     0.03303   0.31168   0.74333   0.00000  Uiso   1.00
H121   H     0.27255   0.29913   0.70994   0.00000  Uiso   1.00
H122   H     0.16166   0.75307   0.22267   0.00000  Uiso   1.00
H123   H     0.15383   0.71390   0.64251   0.00000  Uiso   1.00
H124   H     0.09559   0.65378   0.56464   0.00000  Uiso   1.00
H125   H     0.20918   0.64782   0.54879   0.00000  Uiso   1.00
H126   H     0.15659   0.86309   0.79194   0.00000  Uiso   1.00
H127   H     0.03128   0.55085   0.51316   0.00000  Uiso   1.00
H128   H     0.27080   0.53830   0.47978   0.00000  Uiso   1.00
H129   H     0.15991   0.99224   0.99251   0.00000  Uiso   1.00
O130   O     0.99389   0.38665   0.58185   0.00000  Uiso   1.00
O131   O     0.30812   0.37020   0.53806   0.00000  Uiso   1.00
O132   O     0.16263   0.96576   0.21075   0.00000  Uiso   1.00
N133   N     0.04061   0.37623   0.69986   0.00000  Uiso   1.00
N134   N     0.26454   0.36449   0.66863   0.00000  Uiso   1.00
N135   N     0.16087   0.78889   0.14799   0.00000  Uiso   1.00
N136   N     0.03967   0.50493   0.57601   0.00000  Uiso   1.00
N137   N     0.26360   0.49318   0.54478   0.00000  Uiso   1.00
N138   N     0.15993   0.91758   0.02414   0.00000  Uiso   1.00
C139   C     0.34459   0.00145   0.34975   0.00000  Uiso   1.00
C140   C     0.37646   0.00370   0.27818   0.00000  Uiso   1.00
C141   C     0.40273   0.07729   0.28699   0.00000  Uiso   1.00
C142   C     0.42966   0.06575   0.21380   0.00000  Uiso   1.00
C143   C     0.47904   0.08179   0.11468   0.00000  Uiso   1.00
C144   C     0.31475   0.00695   0.26956   0.00000  Uiso   1.00
C145   C     0.28913   0.08326   0.27114   0.00000  Uiso   1.00
C146   C     0.26410   0.07445   0.19069   0.00000  Uiso   1.00
C147   C     0.21766   0.09548   0.07824   0.00000  Uiso   1.00
C148   C     0.34332   0.88999   0.40167   0.00000  Uiso   1.00
C149   C     0.34172   0.86795   0.51433   0.00000  Uiso   1.00
C150   C     0.34074   0.76067   0.54511   0.00000  Uiso   1.00
C151   C     0.33867   0.60010   0.63778   0.00000  Uiso   1.00
C152   C     0.34570   0.85010   0.20410   0.00000  Uiso   1.00
C153   C     0.37706   0.92149   0.19907   0.00000  Uiso   1.00
C154   C     0.40396   0.90984   0.12585   0.00000  Uiso   1.00
C155   C     0.43026   0.98340   0.13455   0.00000  Uiso   1.00
C156   C     0.31535   0.92474   0.19045   0.00000  Uiso   1.00
C157   C     0.29035   0.91581   0.11000   0.00000  Uiso   1.00
C158   C     0.26470   0.99210   0.11144   0.00000  Uiso   1.00
C159   C     0.34393   0.80778   0.32257   0.00000  Uiso   1.00
C160   C     0.34295   0.70051   0.35318   0.00000  Uiso   1.00
C161   C     0.34135   0.67831   0.46586   0.00000  Uiso   1.00
H162   H     0.34412   0.06545   0.41133   0.00000  Uiso   1.00
H163   H     0.40226   0.14090   0.34822   0.00000  Uiso   1.00
H164   H     0.28867   0.14686   0.33237   0.00000  Uiso   1.00
H165   H     0.34126   0.93159   0.57552   0.00000  Uiso   1.00
H166   H     0.46697   0.18832   0.24333   0.00000  Uiso   1.00
H167   H     0.22745   0.20087   0.20994   0.00000  Uiso   1.00
H168   H     0.33834   0.74693   0.72267   0.00000  Uiso   1.00
H169   H     0.34617   0.78610   0.14251   0.00000  Uiso   1.00
H170   H     0.40441   0.84622   0.06464   0.00000  Uiso   1.00
H171   H     0.29082   0.85218   0.04879   0.00000  Uiso   1.00
H172   H     0.34341   0.63691   0.29194   0.00000  Uiso   1.00
H173   H     0.46872   0.94915   0.01316   0.00000  Uiso   1.00
H174   H     0.22920   0.96170   0.97978   0.00000  Uiso   1.00
H175   H     0.34009   0.50776   0.49251   0.00000  Uiso   1.00
O176   O     0.50611   0.11335   0.08185   0.00000  Uiso   1.00
O177   O     0.19188   0.12980   0.03806   0.00000  Uiso   1.00
O178   O     0.33737   0.53424   0.71075   0.00000  Uiso   1.00
N179   N     0.45939   0.12377   0.19986   0.00000  Uiso   1.00
N180   N     0.23546   0.13551   0.16863   0.00000  Uiso   1.00
N181   N     0.33913   0.71111   0.64799   0.00000  Uiso   1.00
N182   N     0.46033   0.99507   0.07601   0.00000  Uiso   1.00
N183   N     0.23640   0.00682   0.04478   0.00000  Uiso   1.00
N184   N     0.34007   0.58242   0.52414   0.00000  Uiso   1.00
C185   C     0.15541   0.50145   0.34975   0.00000  Uiso   1.00
C186   C     0.12354   0.50370   0.27818   0.00000  Uiso   1.00
C187   C     0.09727   0.57729   0.28699   0.00000  Uiso   1.00
C188   C     0.07034   0.56575   0.21380   0.00000  Uiso   1.00
C189   C     0.02096   0.58179   0.11468   0.00000  Uiso   1.00
C190   C     0.18525   0.50695   0.26956   0.00000  Uiso   1.00
C191   C     0.21087   0.58326   0.27114   0.00000  Uiso   1.00
C192   C     0.23590   0.57445   0.19069   0.00000  Uiso   1.00
C193   C     0.28234   0.59548   0.07824   0.00000  Uiso   1.00
C194   C     0.15668   0.38999   0.40167   0.00000  Uiso   1.00
C195   C     0.15828   0.36795   0.51433   0.00000  Uiso   1.00
C196   C     0.15926   0.26067   0.54511   0.00000  Uiso   1.00
C197   C     0.16133   0.10010   0.63778   0.00000  Uiso   1.00
C198   C     0.15430   0.35010   0.20410   0.00000  Uiso   1.00
C199   C     0.12294   0.42149   0.19907   0.00000  Uiso   1.00
C200   C     0.09604   0.40984   0.12585   0.00000  Uiso   1.00
C201   C     0.06974   0.48340   0.13455   0.00000  Uiso   1.00
C202   C     0.18465   0.42474   0.19045   0.00000  Uiso   1.00
C203   C     0.20965   0.41581   0.11000   0.00000  Uiso   1.00
C204   C     0.23530   0.49210   0.11144   0.00000  Uiso   1.00
C205   C     0.15607   0.30778   0.32257   0.00000  Uiso   1.00
C206   C     0.15705   0.20051   0.35318   0.00000  Uiso   1.00
C207   C     0.15865   0.17831   0.46586   0.00000  Uiso   1.00
H208   H     0.15588   0.56545   0.41133   0.00000  Uiso   1.00
H209   H     0.09774   0.64090   0.34822   0.00000  Uiso   1.00
H210   H     0.21133   0.64686   0.33237   0.00000  Uiso   1.00
H211   H     0.15874   0.43159   0.57552   0.00000  Uiso   1.00
H212   H     0.03303   0.68832   0.24333   0.00000  Uiso   1.00
H213   H     0.27255   0.70087   0.20994   0.00000  Uiso   1.00
H214   H     0.16166   0.24693   0.72267   0.00000  Uiso   1.00
H215   H     0.15383   0.28610   0.14251   0.00000  Uiso   1.00
H216   H     0.09559   0.34622   0.06464   0.00000  Uiso   1.00
H217   H     0.20918   0.35218   0.04879   0.00000  Uiso   1.00
H218   H     0.15659   0.13691   0.29194   0.00000  Uiso   1.00
H219   H     0.03128   0.44915   0.01316   0.00000  Uiso   1.00
H220   H     0.27080   0.46170   0.97978   0.00000  Uiso   1.00
H221   H     0.15991   0.00776   0.49251   0.00000  Uiso   1.00
O222   O     0.99389   0.61335   0.08185   0.00000  Uiso   1.00
O223   O     0.30812   0.62980   0.03806   0.00000  Uiso   1.00
O224   O     0.16263   0.03424   0.71075   0.00000  Uiso   1.00
N225   N     0.04061   0.62377   0.19986   0.00000  Uiso   1.00
N226   N     0.26454   0.63551   0.16863   0.00000  Uiso   1.00
N227   N     0.16087   0.21111   0.64799   0.00000  Uiso   1.00
N228   N     0.03967   0.49507   0.07601   0.00000  Uiso   1.00
N229   N     0.26360   0.50682   0.04478   0.00000  Uiso   1.00
N230   N     0.15993   0.08242   0.52414   0.00000  Uiso   1.00
C231   C     0.34459   0.99855   0.84975   0.00000  Uiso   1.00
C232   C     0.37646   0.99630   0.77818   0.00000  Uiso   1.00
C233   C     0.40273   0.92271   0.78699   0.00000  Uiso   1.00
C234   C     0.42966   0.93425   0.71380   0.00000  Uiso   1.00
C235   C     0.47904   0.91821   0.61468   0.00000  Uiso   1.00
C236   C     0.31475   0.99305   0.76956   0.00000  Uiso   1.00
C237   C     0.28913   0.91674   0.77114   0.00000  Uiso   1.00
C238   C     0.26410   0.92555   0.69069   0.00000  Uiso   1.00
C239   C     0.21766   0.90452   0.57824   0.00000  Uiso   1.00
C240   C     0.34332   0.11001   0.90167   0.00000  Uiso   1.00
C241   C     0.34172   0.13205   0.01433   0.00000  Uiso   1.00
C242   C     0.34074   0.23933   0.04511   0.00000  Uiso   1.00
C243   C     0.33867   0.39990   0.13778   0.00000  Uiso   1.00
C244   C     0.34570   0.14990   0.70410   0.00000  Uiso   1.00
C245   C     0.37706   0.07851   0.69907   0.00000  Uiso   1.00
C246   C     0.40396   0.09016   0.62585   0.00000  Uiso   1.00
C247   C     0.43026   0.01660   0.63455   0.00000  Uiso   1.00
C248   C     0.31535   0.07526   0.69045   0.00000  Uiso   1.00
C249   C     0.29035   0.08419   0.61000   0.00000  Uiso   1.00
C250   C     0.26470   0.00790   0.61144   0.00000  Uiso   1.00
C251   C     0.34393   0.19222   0.82257   0.00000  Uiso   1.00
C252   C     0.34295   0.29949   0.85318   0.00000  Uiso   1.00
C253   C     0.34135   0.32169   0.96586   0.00000  Uiso   1.00
H254   H     0.34412   0.93455   0.91133   0.00000  Uiso   1.00
H255   H     0.40226   0.85910   0.84822   0.00000  Uiso   1.00
H256   H     0.28867   0.85314   0.83237   0.00000  Uiso   1.00
H257   H     0.34126   0.06841   0.07552   0.00000  Uiso   1.00
H258   H     0.46697   0.81168   0.74333   0.00000  Uiso   1.00
H259   H     0.22745   0.79913   0.70994   0.00000  Uiso   1.00
H260   H     0.33834   0.25307   0.22267   0.00000  Uiso   1.00
H261   H     0.34617   0.21390   0.64251   0.00000  Uiso   1.00
H262   H     0.40441   0.15378   0.56464   0.00000  Uiso   1.00
H263   H     0.29082   0.14782   0.54879   0.00000  Uiso   1.00
H264   H     0.34341   0.36309   0.79194   0.00000  Uiso   1.00
H265   H     0.46872   0.05085   0.51316   0.00000  Uiso   1.00
H266   H     0.22920   0.03830   0.47978   0.00000  Uiso   1.00
H267   H     0.34009   0.49224   0.99251   0.00000  Uiso   1.00
O268   O     0.50611   0.88665   0.58185   0.00000  Uiso   1.00
O269   O     0.19188   0.87020   0.53806   0.00000  Uiso   1.00
O270   O     0.33737   0.46576   0.21075   0.00000  Uiso   1.00
N271   N     0.45939   0.87623   0.69986   0.00000  Uiso   1.00
N272   N     0.23546   0.86449   0.66863   0.00000  Uiso   1.00
N273   N     0.33913   0.28889   0.14799   0.00000  Uiso   1.00
N274   N     0.46033   0.00493   0.57601   0.00000  Uiso   1.00
N275   N     0.23640   0.99318   0.54478   0.00000  Uiso   1.00
N276   N     0.34007   0.41758   0.02414   0.00000  Uiso   1.00
C277   C     0.84459   0.50145   0.15025   0.00000  Uiso   1.00
C278   C     0.87646   0.50370   0.22182   0.00000  Uiso   1.00
C279   C     0.90273   0.57729   0.21301   0.00000  Uiso   1.00
C280   C     0.92966   0.56575   0.28620   0.00000  Uiso   1.00
C281   C     0.97904   0.58179   0.38532   0.00000  Uiso   1.00
C282   C     0.81475   0.50695   0.23044   0.00000  Uiso   1.00
C283   C     0.78913   0.58326   0.22886   0.00000  Uiso   1.00
C284   C     0.76410   0.57445   0.30931   0.00000  Uiso   1.00
C285   C     0.71766   0.59548   0.42176   0.00000  Uiso   1.00
C286   C     0.84332   0.38999   0.09833   0.00000  Uiso   1.00
C287   C     0.84172   0.36795   0.98567   0.00000  Uiso   1.00
C288   C     0.84074   0.26067   0.95489   0.00000  Uiso   1.00
C289   C     0.83867   0.10010   0.86222   0.00000  Uiso   1.00
C290   C     0.84570   0.35010   0.29590   0.00000  Uiso   1.00
C291   C     0.87706   0.42149   0.30093   0.00000  Uiso   1.00
C292   C     0.90396   0.40984   0.37415   0.00000  Uiso   1.00
C293   C     0.93026   0.48340   0.36545   0.00000  Uiso   1.00
C294   C     0.81535   0.42474   0.30955   0.00000  Uiso   1.00
C295   C     0.79035   0.41581   0.39000   0.00000  Uiso   1.00
C296   C     0.76470   0.49210   0.38856   0.00000  Uiso   1.00
C297   C     0.84393   0.30778   0.17743   0.00000  Uiso   1.00
C298   C     0.84295   0.20051   0.14682   0.00000  Uiso   1.00
C299   C     0.84135   0.17831   0.03414   0.00000  Uiso   1.00
H300   H     0.84412   0.56545   0.08867   0.00000  Uiso   1.00
H301   H     0.90226   0.64090   0.15178   0.00000  Uiso   1.00
H302   H     0.78867   0.64686   0.16763   0.00000  Uiso   1.00
H303   H     0.84126   0.43159   0.92448   0.00000  Uiso   1.00
H304   H     0.96697   0.68832   0.25667   0.00000  Uiso   1.00
H305   H     0.72745   0.70087   0.29006   0.00000  Uiso   1.00
H306   H     0.83834   0.24693   0.77733   0.00000  Uiso   1.00
H307   H     0.84617   0.28610   0.35749   0.00000  Uiso   1.00
H308   H     0.90441   0.34622   0.43536   0.00000  Uiso   1.00
H309   H     0.79082   0.35218   0.45121   0.00000  Uiso   1.00
H310   H     0.84341   0.13691   0.20806   0.00000  Uiso   1.00
H311   H     0.96872   0.44915   0.48684   0.00000  Uiso   1.00
H312   H     0.72920   0.46170   0.52022   0.00000  Uiso   1.00
H313   H     0.84009   0.00776   0.00749   0.00000  Uiso   1.00
O314   O     0.00611   0.61335   0.41815   0.00000  Uiso   1.00
O315   O     0.69188   0.62980   0.46194   0.00000  Uiso   1.00
O316   O     0.83737   0.03424   0.78925   0.00000  Uiso   1.00
N317   N     0.95939   0.62377   0.30014   0.00000  Uiso   1.00
N318   N     0.73546   0.63551   0.33137   0.00000  Uiso   1.00
N319   N     0.83913   0.21111   0.85201   0.00000  Uiso   1.00
N320   N     0.96033   0.49507   0.42399   0.00000  Uiso   1.00
N321   N     0.73640   0.50682   0.45522   0.00000  Uiso   1.00
N322   N     0.84007   0.08242   0.97586   0.00000  Uiso   1.00
C323   C     0.65541   0.99855   0.65025   0.00000  Uiso   1.00
C324   C     0.62354   0.99630   0.72182   0.00000  Uiso   1.00
C325   C     0.59727   0.92271   0.71301   0.00000  Uiso   1.00
C326   C     0.57034   0.93425   0.78620   0.00000  Uiso   1.00
C327   C     0.52096   0.91821   0.88532   0.00000  Uiso   1.00
C328   C     0.68525   0.99305   0.73044   0.00000  Uiso   1.00
C329   C     0.71087   0.91674   0.72886   0.00000  Uiso   1.00
C330   C     0.73590   0.92555   0.80931   0.00000  Uiso   1.00
C331   C     0.78234   0.90452   0.92176   0.00000  Uiso   1.00
C332   C     0.65668   0.11001   0.59833   0.00000  Uiso   1.00
C333   C     0.65828   0.13205   0.48567   0.00000  Uiso   1.00
C334   C     0.65926   0.23933   0.45489   0.00000  Uiso   1.00
C335   C     0.66133   0.39990   0.36222   0.00000  Uiso   1.00
C336   C     0.65430   0.14990   0.79590   0.00000  Uiso   1.00
C337   C     0.62294   0.07851   0.80093   0.00000  Uiso   1.00
C338   C     0.59604   0.09016   0.87415   0.00000  Uiso   1.00
C339   C     0.56974   0.01660   0.86545   0.00000  Uiso   1.00
C340   C     0.68465   0.07526   0.80955   0.00000  Uiso   1.00
C341   C     0.70965   0.08419   0.89000   0.00000  Uiso   1.00
C342   C     0.73530   0.00790   0.88856   0.00000  Uiso   1.00
C343   C     0.65607   0.19222   0.67743   0.00000  Uiso   1.00
C344   C     0.65705   0.29949   0.64682   0.00000  Uiso   1.00
C345   C     0.65865   0.32169   0.53414   0.00000  Uiso   1.00
H346   H     0.65588   0.93455   0.58867   0.00000  Uiso   1.00
H347   H     0.59774   0.85910   0.65178   0.00000  Uiso   1.00
H348   H     0.71133   0.85314   0.66763   0.00000  Uiso   1.00
H349   H     0.65874   0.06841   0.42448   0.00000  Uiso   1.00
H350   H     0.53303   0.81168   0.75667   0.00000  Uiso   1.00
H351   H     0.77255   0.79913   0.79006   0.00000  Uiso   1.00
H352   H     0.66166   0.25307   0.27733   0.00000  Uiso   1.00
H353   H     0.65383   0.21390   0.85749   0.00000  Uiso   1.00
H354   H     0.59559   0.15378   0.93536   0.00000  Uiso   1.00
H355   H     0.70918   0.14782   0.95121   0.00000  Uiso   1.00
H356   H     0.65659   0.36309   0.70806   0.00000  Uiso   1.00
H357   H     0.53128   0.05085   0.98684   0.00000  Uiso   1.00
H358   H     0.77080   0.03830   0.02022   0.00000  Uiso   1.00
H359   H     0.65991   0.49224   0.50749   0.00000  Uiso   1.00
O360   O     0.49389   0.88665   0.91815   0.00000  Uiso   1.00
O361   O     0.80812   0.87020   0.96194   0.00000  Uiso   1.00
O362   O     0.66263   0.46576   0.28925   0.00000  Uiso   1.00
N363   N     0.54061   0.87623   0.80014   0.00000  Uiso   1.00
N364   N     0.76454   0.86449   0.83137   0.00000  Uiso   1.00
N365   N     0.66087   0.28889   0.35201   0.00000  Uiso   1.00
N366   N     0.53967   0.00493   0.92399   0.00000  Uiso   1.00
N367   N     0.76360   0.99318   0.95522   0.00000  Uiso   1.00
N368   N     0.65993   0.41758   0.47586   0.00000  Uiso   1.00
