data_job_02219
_audit_creation_date              2018-12-19
_audit_creation_method            'Materials Studio'
_symmetry_space_group_name_H-M    'P1'
_symmetry_Int_Tables_number       1
_symmetry_cell_setting            triclinic
loop_
_symmetry_equiv_pos_as_xyz
  x,y,z
_cell_length_a                    24.7561
_cell_length_b                    16.7887
_cell_length_c                    15.3383
_cell_angle_alpha                 90.0000
_cell_angle_beta                  90.0000
_cell_angle_gamma                 90.0000
loop_
_atom_site_label
_atom_site_type_symbol
_atom_site_fract_x
_atom_site_fract_y
_atom_site_fract_z
_atom_site_U_iso_or_equiv
_atom_site_adp_type
_atom_site_occupancy
C1     C     0.86467   0.24947   0.24480   0.00000  Uiso   1.00
C2     C     0.88789   0.22365   0.33244   0.00000  Uiso   1.00
C3     C     0.91603   0.15363   0.34825   0.00000  Uiso   1.00
C4     C     0.93395   0.14094   0.43289   0.00000  Uiso   1.00
C5     C     0.97149   0.09241   0.55889   0.00000  Uiso   1.00
C6     C     0.80458   0.26366   0.26014   0.00000  Uiso   1.00
C7     C     0.76266   0.22728   0.21515   0.00000  Uiso   1.00
C8     C     0.71045   0.24828   0.23892   0.00000  Uiso   1.00
C9     C     0.61863   0.26190   0.25262   0.00000  Uiso   1.00
C10    C     0.88908   0.33099   0.22557   0.00000  Uiso   1.00
C11    C     0.91819   0.35124   0.15149   0.00000  Uiso   1.00
C12    C     0.93712   0.42894   0.14614   0.00000  Uiso   1.00
C13    C     0.97650   0.54710   0.10616   0.00000  Uiso   1.00
C14    C     0.84648   0.35146   0.36700   0.00000  Uiso   1.00
C15    C     0.87801   0.27905   0.39881   0.00000  Uiso   1.00
C16    C     0.89590   0.26647   0.48345   0.00000  Uiso   1.00
C17    C     0.92406   0.19644   0.49938   0.00000  Uiso   1.00
C18    C     0.79470   0.31905   0.32651   0.00000  Uiso   1.00
C19    C     0.74254   0.34012   0.35034   0.00000  Uiso   1.00
C20    C     0.70055   0.30378   0.30541   0.00000  Uiso   1.00
C21    C     0.87920   0.38639   0.29194   0.00000  Uiso   1.00
C22    C     0.89807   0.46408   0.28669   0.00000  Uiso   1.00
C23    C     0.92722   0.48443   0.21263   0.00000  Uiso   1.00
H24    H     0.87236   0.20634   0.19313   0.00000  Uiso   1.00
H25    H     0.92366   0.11077   0.29687   0.00000  Uiso   1.00
H26    H     0.77031   0.18442   0.16378   0.00000  Uiso   1.00
H27    H     0.92583   0.30835   0.10015   0.00000  Uiso   1.00
H28    H     0.97616   0.02922   0.44117   0.00000  Uiso   1.00
H29    H     0.65283   0.18453   0.16052   0.00000  Uiso   1.00
H30    H     0.98076   0.44588   0.02632   0.00000  Uiso   1.00
H31    H     0.83879   0.39459   0.41867   0.00000  Uiso   1.00
H32    H     0.88825   0.30935   0.53480   0.00000  Uiso   1.00
H33    H     0.73491   0.38299   0.40171   0.00000  Uiso   1.00
H34    H     0.89042   0.50693   0.33807   0.00000  Uiso   1.00
H35    H     0.94742   0.19040   0.63428   0.00000  Uiso   1.00
H36    H     0.62409   0.34571   0.35363   0.00000  Uiso   1.00
H37    H     0.95202   0.60705   0.21943   0.00000  Uiso   1.00
O38    O     0.99492   0.05033   0.61005   0.00000  Uiso   1.00
O39    O     0.57072   0.25410   0.24184   0.00000  Uiso   1.00
O40    O     0.00096   0.59697   0.06578   0.00000  Uiso   1.00
N41    N     0.96262   0.07886   0.47068   0.00000  Uiso   1.00
N42    N     0.66032   0.22406   0.20830   0.00000  Uiso   1.00
N43    N     0.96690   0.46840   0.08282   0.00000  Uiso   1.00
N44    N     0.94715   0.16559   0.57459   0.00000  Uiso   1.00
N45    N     0.64486   0.31078   0.31221   0.00000  Uiso   1.00
N46    N     0.95144   0.55512   0.18673   0.00000  Uiso   1.00
C47    C     0.63533   0.75053   0.24480   0.00000  Uiso   1.00
C48    C     0.61211   0.77635   0.33244   0.00000  Uiso   1.00
C49    C     0.58397   0.84637   0.34825   0.00000  Uiso   1.00
C50    C     0.56605   0.85906   0.43289   0.00000  Uiso   1.00
C51    C     0.52851   0.90759   0.55889   0.00000  Uiso   1.00
C52    C     0.69542   0.73634   0.26014   0.00000  Uiso   1.00
C53    C     0.73734   0.77272   0.21515   0.00000  Uiso   1.00
C54    C     0.78955   0.75172   0.23892   0.00000  Uiso   1.00
C55    C     0.88137   0.73810   0.25262   0.00000  Uiso   1.00
C56    C     0.61092   0.66901   0.22557   0.00000  Uiso   1.00
C57    C     0.58181   0.64876   0.15149   0.00000  Uiso   1.00
C58    C     0.56288   0.57106   0.14614   0.00000  Uiso   1.00
C59    C     0.52350   0.45290   0.10616   0.00000  Uiso   1.00
C60    C     0.65352   0.64854   0.36700   0.00000  Uiso   1.00
C61    C     0.62199   0.72095   0.39881   0.00000  Uiso   1.00
C62    C     0.60410   0.73353   0.48345   0.00000  Uiso   1.00
C63    C     0.57594   0.80356   0.49938   0.00000  Uiso   1.00
C64    C     0.70530   0.68095   0.32651   0.00000  Uiso   1.00
C65    C     0.75746   0.65988   0.35034   0.00000  Uiso   1.00
C66    C     0.79945   0.69622   0.30541   0.00000  Uiso   1.00
C67    C     0.62080   0.61361   0.29194   0.00000  Uiso   1.00
C68    C     0.60193   0.53592   0.28669   0.00000  Uiso   1.00
C69    C     0.57278   0.51557   0.21263   0.00000  Uiso   1.00
H70    H     0.62764   0.79366   0.19313   0.00000  Uiso   1.00
H71    H     0.57634   0.88923   0.29687   0.00000  Uiso   1.00
H72    H     0.72969   0.81558   0.16378   0.00000  Uiso   1.00
H73    H     0.57417   0.69165   0.10015   0.00000  Uiso   1.00
H74    H     0.52384   0.97078   0.44117   0.00000  Uiso   1.00
H75    H     0.84717   0.81547   0.16052   0.00000  Uiso   1.00
H76    H     0.51924   0.55412   0.02632   0.00000  Uiso   1.00
H77    H     0.66121   0.60541   0.41867   0.00000  Uiso   1.00
H78    H     0.61175   0.69065   0.53480   0.00000  Uiso   1.00
H79    H     0.76509   0.61701   0.40171   0.00000  Uiso   1.00
H80    H     0.60958   0.49307   0.33807   0.00000  Uiso   1.00
H81    H     0.55258   0.80960   0.63428   0.00000  Uiso   1.00
H82    H     0.87591   0.65429   0.35363   0.00000  Uiso   1.00
H83    H     0.54798   0.39295   0.21943   0.00000  Uiso   1.00
O84    O     0.50508   0.94967   0.61005   0.00000  Uiso   1.00
O85    O     0.92928   0.74590   0.24184   0.00000  Uiso   1.00
O86    O     0.49904   0.40303   0.06578   0.00000  Uiso   1.00
N87    N     0.53738   0.92114   0.47068   0.00000  Uiso   1.00
N88    N     0.83968   0.77594   0.20830   0.00000  Uiso   1.00
N89    N     0.53310   0.53160   0.08282   0.00000  Uiso   1.00
N90    N     0.55285   0.83441   0.57459   0.00000  Uiso   1.00
N91    N     0.85514   0.68922   0.31221   0.00000  Uiso   1.00
N92    N     0.54856   0.44488   0.18673   0.00000  Uiso   1.00
C93    C     0.13533   0.24947   0.25520   0.00000  Uiso   1.00
C94    C     0.11211   0.22365   0.16756   0.00000  Uiso   1.00
C95    C     0.08397   0.15363   0.15175   0.00000  Uiso   1.00
C96    C     0.06605   0.14094   0.06711   0.00000  Uiso   1.00
C97    C     0.02851   0.09241   0.94111   0.00000  Uiso   1.00
C98    C     0.19542   0.26366   0.23986   0.00000  Uiso   1.00
C99    C     0.23734   0.22728   0.28485   0.00000  Uiso   1.00
C100   C     0.28955   0.24828   0.26108   0.00000  Uiso   1.00
C101   C     0.38137   0.26190   0.24738   0.00000  Uiso   1.00
C102   C     0.11092   0.33099   0.27443   0.00000  Uiso   1.00
C103   C     0.08181   0.35124   0.34851   0.00000  Uiso   1.00
C104   C     0.06288   0.42894   0.35386   0.00000  Uiso   1.00
C105   C     0.02350   0.54710   0.39384   0.00000  Uiso   1.00
C106   C     0.15352   0.35146   0.13300   0.00000  Uiso   1.00
C107   C     0.12199   0.27905   0.10119   0.00000  Uiso   1.00
C108   C     0.10410   0.26647   0.01655   0.00000  Uiso   1.00
C109   C     0.07594   0.19644   0.00062   0.00000  Uiso   1.00
C110   C     0.20530   0.31905   0.17349   0.00000  Uiso   1.00
C111   C     0.25746   0.34012   0.14966   0.00000  Uiso   1.00
C112   C     0.29945   0.30378   0.19459   0.00000  Uiso   1.00
C113   C     0.12080   0.38639   0.20806   0.00000  Uiso   1.00
C114   C     0.10193   0.46408   0.21331   0.00000  Uiso   1.00
C115   C     0.07278   0.48443   0.28737   0.00000  Uiso   1.00
H116   H     0.12764   0.20634   0.30687   0.00000  Uiso   1.00
H117   H     0.07634   0.11077   0.20313   0.00000  Uiso   1.00
H118   H     0.22969   0.18442   0.33622   0.00000  Uiso   1.00
H119   H     0.07417   0.30835   0.39985   0.00000  Uiso   1.00
H120   H     0.02384   0.02922   0.05883   0.00000  Uiso   1.00
H121   H     0.34717   0.18453   0.33948   0.00000  Uiso   1.00
H122   H     0.01924   0.44588   0.47368   0.00000  Uiso   1.00
H123   H     0.16121   0.39459   0.08133   0.00000  Uiso   1.00
H124   H     0.11175   0.30935   0.96520   0.00000  Uiso   1.00
H125   H     0.26509   0.38299   0.09829   0.00000  Uiso   1.00
H126   H     0.10958   0.50693   0.16193   0.00000  Uiso   1.00
H127   H     0.05258   0.19040   0.86572   0.00000  Uiso   1.00
H128   H     0.37591   0.34571   0.14637   0.00000  Uiso   1.00
H129   H     0.04798   0.60705   0.28057   0.00000  Uiso   1.00
O130   O     0.00508   0.05033   0.88995   0.00000  Uiso   1.00
O131   O     0.42928   0.25410   0.25816   0.00000  Uiso   1.00
O132   O     0.99904   0.59697   0.43422   0.00000  Uiso   1.00
N133   N     0.03738   0.07886   0.02932   0.00000  Uiso   1.00
N134   N     0.33968   0.22406   0.29170   0.00000  Uiso   1.00
N135   N     0.03310   0.46840   0.41718   0.00000  Uiso   1.00
N136   N     0.05285   0.16559   0.92541   0.00000  Uiso   1.00
N137   N     0.35514   0.31078   0.18779   0.00000  Uiso   1.00
N138   N     0.04856   0.55512   0.31327   0.00000  Uiso   1.00
C139   C     0.36467   0.75053   0.25520   0.00000  Uiso   1.00
C140   C     0.38789   0.77635   0.16756   0.00000  Uiso   1.00
C141   C     0.41603   0.84637   0.15175   0.00000  Uiso   1.00
C142   C     0.43395   0.85906   0.06711   0.00000  Uiso   1.00
C143   C     0.47149   0.90759   0.94111   0.00000  Uiso   1.00
C144   C     0.30458   0.73634   0.23986   0.00000  Uiso   1.00
C145   C     0.26266   0.77272   0.28485   0.00000  Uiso   1.00
C146   C     0.21045   0.75172   0.26108   0.00000  Uiso   1.00
C147   C     0.11863   0.73810   0.24738   0.00000  Uiso   1.00
C148   C     0.38908   0.66901   0.27443   0.00000  Uiso   1.00
C149   C     0.41819   0.64876   0.34851   0.00000  Uiso   1.00
C150   C     0.43712   0.57106   0.35386   0.00000  Uiso   1.00
C151   C     0.47650   0.45290   0.39384   0.00000  Uiso   1.00
C152   C     0.34648   0.64854   0.13300   0.00000  Uiso   1.00
C153   C     0.37801   0.72095   0.10119   0.00000  Uiso   1.00
C154   C     0.39590   0.73353   0.01655   0.00000  Uiso   1.00
C155   C     0.42406   0.80356   0.00062   0.00000  Uiso   1.00
C156   C     0.29470   0.68095   0.17349   0.00000  Uiso   1.00
C157   C     0.24254   0.65988   0.14966   0.00000  Uiso   1.00
C158   C     0.20055   0.69622   0.19459   0.00000  Uiso   1.00
C159   C     0.37920   0.61361   0.20806   0.00000  Uiso   1.00
C160   C     0.39807   0.53592   0.21331   0.00000  Uiso   1.00
C161   C     0.42722   0.51557   0.28737   0.00000  Uiso   1.00
H162   H     0.37236   0.79366   0.30687   0.00000  Uiso   1.00
H163   H     0.42366   0.88923   0.20313   0.00000  Uiso   1.00
H164   H     0.27031   0.81558   0.33622   0.00000  Uiso   1.00
H165   H     0.42583   0.69165   0.39985   0.00000  Uiso   1.00
H166   H     0.47616   0.97078   0.05883   0.00000  Uiso   1.00
H167   H     0.15283   0.81547   0.33948   0.00000  Uiso   1.00
H168   H     0.48076   0.55412   0.47368   0.00000  Uiso   1.00
H169   H     0.33879   0.60541   0.08133   0.00000  Uiso   1.00
H170   H     0.38825   0.69065   0.96520   0.00000  Uiso   1.00
H171   H     0.23491   0.61701   0.09829   0.00000  Uiso   1.00
H172   H     0.39042   0.49307   0.16193   0.00000  Uiso   1.00
H173   H     0.44742   0.80960   0.86572   0.00000  Uiso   1.00
H174   H     0.12409   0.65429   0.14637   0.00000  Uiso   1.00
H175   H     0.45202   0.39295   0.28057   0.00000  Uiso   1.00
O176   O     0.49492   0.94967   0.88995   0.00000  Uiso   1.00
O177   O     0.07072   0.74590   0.25816   0.00000  Uiso   1.00
O178   O     0.50096   0.40303   0.43422   0.00000  Uiso   1.00
N179   N     0.46262   0.92114   0.02932   0.00000  Uiso   1.00
N180   N     0.16032   0.77594   0.29170   0.00000  Uiso   1.00
N181   N     0.46690   0.53160   0.41718   0.00000  Uiso   1.00
N182   N     0.44715   0.83441   0.92541   0.00000  Uiso   1.00
N183   N     0.14486   0.68922   0.18779   0.00000  Uiso   1.00
N184   N     0.45144   0.44488   0.31327   0.00000  Uiso   1.00
C185   C     0.13533   0.75053   0.75520   0.00000  Uiso   1.00
C186   C     0.11211   0.77635   0.66756   0.00000  Uiso   1.00
C187   C     0.08397   0.84637   0.65175   0.00000  Uiso   1.00
C188   C     0.06605   0.85906   0.56711   0.00000  Uiso   1.00
C189   C     0.02851   0.90759   0.44111   0.00000  Uiso   1.00
C190   C     0.19542   0.73634   0.73986   0.00000  Uiso   1.00
C191   C     0.23734   0.77272   0.78485   0.00000  Uiso   1.00
C192   C     0.28955   0.75172   0.76108   0.00000  Uiso   1.00
C193   C     0.38137   0.73810   0.74738   0.00000  Uiso   1.00
C194   C     0.11092   0.66901   0.77443   0.00000  Uiso   1.00
C195   C     0.08181   0.64876   0.84851   0.00000  Uiso   1.00
C196   C     0.06288   0.57106   0.85386   0.00000  Uiso   1.00
C197   C     0.02350   0.45290   0.89384   0.00000  Uiso   1.00
C198   C     0.15352   0.64854   0.63300   0.00000  Uiso   1.00
C199   C     0.12199   0.72095   0.60119   0.00000  Uiso   1.00
C200   C     0.10410   0.73353   0.51655   0.00000  Uiso   1.00
C201   C     0.07594   0.80356   0.50062   0.00000  Uiso   1.00
C202   C     0.20530   0.68095   0.67349   0.00000  Uiso   1.00
C203   C     0.25746   0.65988   0.64966   0.00000  Uiso   1.00
C204   C     0.29945   0.69622   0.69459   0.00000  Uiso   1.00
C205   C     0.12080   0.61361   0.70806   0.00000  Uiso   1.00
C206   C     0.10193   0.53592   0.71331   0.00000  Uiso   1.00
C207   C     0.07278   0.51557   0.78737   0.00000  Uiso   1.00
H208   H     0.12764   0.79366   0.80687   0.00000  Uiso   1.00
H209   H     0.07634   0.88923   0.70313   0.00000  Uiso   1.00
H210   H     0.22969   0.81558   0.83622   0.00000  Uiso   1.00
H211   H     0.07417   0.69165   0.89985   0.00000  Uiso   1.00
H212   H     0.02384   0.97078   0.55883   0.00000  Uiso   1.00
H213   H     0.34717   0.81547   0.83948   0.00000  Uiso   1.00
H214   H     0.01924   0.55412   0.97368   0.00000  Uiso   1.00
H215   H     0.16121   0.60541   0.58133   0.00000  Uiso   1.00
H216   H     0.11175   0.69065   0.46520   0.00000  Uiso   1.00
H217   H     0.26509   0.61701   0.59829   0.00000  Uiso   1.00
H218   H     0.10958   0.49307   0.66193   0.00000  Uiso   1.00
H219   H     0.05258   0.80960   0.36572   0.00000  Uiso   1.00
H220   H     0.37591   0.65429   0.64637   0.00000  Uiso   1.00
H221   H     0.04798   0.39295   0.78057   0.00000  Uiso   1.00
O222   O     0.00508   0.94967   0.38995   0.00000  Uiso   1.00
O223   O     0.42928   0.74590   0.75816   0.00000  Uiso   1.00
O224   O     0.99904   0.40303   0.93422   0.00000  Uiso   1.00
N225   N     0.03738   0.92114   0.52932   0.00000  Uiso   1.00
N226   N     0.33968   0.77594   0.79170   0.00000  Uiso   1.00
N227   N     0.03310   0.53160   0.91718   0.00000  Uiso   1.00
N228   N     0.05285   0.83441   0.42541   0.00000  Uiso   1.00
N229   N     0.35514   0.68922   0.68779   0.00000  Uiso   1.00
N230   N     0.04856   0.44488   0.81327   0.00000  Uiso   1.00
C231   C     0.36467   0.24947   0.75520   0.00000  Uiso   1.00
C232   C     0.38789   0.22365   0.66756   0.00000  Uiso   1.00
C233   C     0.41603   0.15363   0.65175   0.00000  Uiso   1.00
C234   C     0.43395   0.14094   0.56711   0.00000  Uiso   1.00
C235   C     0.47149   0.09241   0.44111   0.00000  Uiso   1.00
C236   C     0.30458   0.26366   0.73986   0.00000  Uiso   1.00
C237   C     0.26266   0.22728   0.78485   0.00000  Uiso   1.00
C238   C     0.21045   0.24828   0.76108   0.00000  Uiso   1.00
C239   C     0.11863   0.26190   0.74738   0.00000  Uiso   1.00
C240   C     0.38908   0.33099   0.77443   0.00000  Uiso   1.00
C241   C     0.41819   0.35124   0.84851   0.00000  Uiso   1.00
C242   C     0.43712   0.42894   0.85386   0.00000  Uiso   1.00
C243   C     0.47650   0.54710   0.89384   0.00000  Uiso   1.00
C244   C     0.34648   0.35146   0.63300   0.00000  Uiso   1.00
C245   C     0.37801   0.27905   0.60119   0.00000  Uiso   1.00
C246   C     0.39590   0.26647   0.51655   0.00000  Uiso   1.00
C247   C     0.42406   0.19644   0.50062   0.00000  Uiso   1.00
C248   C     0.29470   0.31905   0.67349   0.00000  Uiso   1.00
C249   C     0.24254   0.34012   0.64966   0.00000  Uiso   1.00
C250   C     0.20055   0.30378   0.69459   0.00000  Uiso   1.00
C251   C     0.37920   0.38639   0.70806   0.00000  Uiso   1.00
C252   C     0.39807   0.46408   0.71331   0.00000  Uiso   1.00
C253   C     0.42722   0.48443   0.78737   0.00000  Uiso   1.00
H254   H     0.37236   0.20634   0.80687   0.00000  Uiso   1.00
H255   H     0.42366   0.11077   0.70313   0.00000  Uiso   1.00
H256   H     0.27031   0.18442   0.83622   0.00000  Uiso   1.00
H257   H     0.42583   0.30835   0.89985   0.00000  Uiso   1.00
H258   H     0.47616   0.02922   0.55883   0.00000  Uiso   1.00
H259   H     0.15283   0.18453   0.83948   0.00000  Uiso   1.00
H260   H     0.48076   0.44588   0.97368   0.00000  Uiso   1.00
H261   H     0.33879   0.39459   0.58133   0.00000  Uiso   1.00
H262   H     0.38825   0.30935   0.46520   0.00000  Uiso   1.00
H263   H     0.23491   0.38299   0.59829   0.00000  Uiso   1.00
H264   H     0.39042   0.50693   0.66193   0.00000  Uiso   1.00
H265   H     0.44742   0.19040   0.36572   0.00000  Uiso   1.00
H266   H     0.12409   0.34571   0.64637   0.00000  Uiso   1.00
H267   H     0.45202   0.60705   0.78057   0.00000  Uiso   1.00
O268   O     0.49492   0.05033   0.38995   0.00000  Uiso   1.00
O269   O     0.07072   0.25410   0.75816   0.00000  Uiso   1.00
O270   O     0.50096   0.59697   0.93422   0.00000  Uiso   1.00
N271   N     0.46262   0.07886   0.52932   0.00000  Uiso   1.00
N272   N     0.16032   0.22406   0.79170   0.00000  Uiso   1.00
N273   N     0.46690   0.46840   0.91718   0.00000  Uiso   1.00
N274   N     0.44715   0.16559   0.42541   0.00000  Uiso   1.00
N275   N     0.14486   0.31078   0.68779   0.00000  Uiso   1.00
N276   N     0.45144   0.55512   0.81327   0.00000  Uiso   1.00
C277   C     0.86467   0.75053   0.74480   0.00000  Uiso   1.00
C278   C     0.88789   0.77635   0.83244   0.00000  Uiso   1.00
C279   C     0.91603   0.84637   0.84825   0.00000  Uiso   1.00
C280   C     0.93395   0.85906   0.93289   0.00000  Uiso   1.00
C281   C     0.97149   0.90759   0.05889   0.00000  Uiso   1.00
C282   C     0.80458   0.73634   0.76014   0.00000  Uiso   1.00
C283   C     0.76266   0.77272   0.71515   0.00000  Uiso   1.00
C284   C     0.71045   0.75172   0.73892   0.00000  Uiso   1.00
C285   C     0.61863   0.73810   0.75262   0.00000  Uiso   1.00
C286   C     0.88908   0.66901   0.72557   0.00000  Uiso   1.00
C287   C     0.91819   0.64876   0.65149   0.00000  Uiso   1.00
C288   C     0.93712   0.57106   0.64614   0.00000  Uiso   1.00
C289   C     0.97650   0.45290   0.60616   0.00000  Uiso   1.00
C290   C     0.84648   0.64854   0.86700   0.00000  Uiso   1.00
C291   C     0.87801   0.72095   0.89881   0.00000  Uiso   1.00
C292   C     0.89590   0.73353   0.98345   0.00000  Uiso   1.00
C293   C     0.92406   0.80356   0.99938   0.00000  Uiso   1.00
C294   C     0.79470   0.68095   0.82651   0.00000  Uiso   1.00
C295   C     0.74254   0.65988   0.85034   0.00000  Uiso   1.00
C296   C     0.70055   0.69622   0.80541   0.00000  Uiso   1.00
C297   C     0.87920   0.61361   0.79194   0.00000  Uiso   1.00
C298   C     0.89807   0.53592   0.78669   0.00000  Uiso   1.00
C299   C     0.92722   0.51557   0.71263   0.00000  Uiso   1.00
H300   H     0.87236   0.79366   0.69313   0.00000  Uiso   1.00
H301   H     0.92366   0.88923   0.79687   0.00000  Uiso   1.00
H302   H     0.77031   0.81558   0.66378   0.00000  Uiso   1.00
H303   H     0.92583   0.69165   0.60015   0.00000  Uiso   1.00
H304   H     0.97616   0.97078   0.94117   0.00000  Uiso   1.00
H305   H     0.65283   0.81547   0.66052   0.00000  Uiso   1.00
H306   H     0.98076   0.55412   0.52632   0.00000  Uiso   1.00
H307   H     0.83879   0.60541   0.91867   0.00000  Uiso   1.00
H308   H     0.88825   0.69065   0.03480   0.00000  Uiso   1.00
H309   H     0.73491   0.61701   0.90171   0.00000  Uiso   1.00
H310   H     0.89042   0.49307   0.83807   0.00000  Uiso   1.00
H311   H     0.94742   0.80960   0.13428   0.00000  Uiso   1.00
H312   H     0.62409   0.65429   0.85363   0.00000  Uiso   1.00
H313   H     0.95202   0.39295   0.71943   0.00000  Uiso   1.00
O314   O     0.99492   0.94967   0.11005   0.00000  Uiso   1.00
O315   O     0.57072   0.74590   0.74184   0.00000  Uiso   1.00
O316   O     0.00096   0.40303   0.56578   0.00000  Uiso   1.00
N317   N     0.96262   0.92114   0.97068   0.00000  Uiso   1.00
N318   N     0.66032   0.77594   0.70830   0.00000  Uiso   1.00
N319   N     0.96690   0.53160   0.58282   0.00000  Uiso   1.00
N320   N     0.94715   0.83441   0.07459   0.00000  Uiso   1.00
N321   N     0.64486   0.68922   0.81221   0.00000  Uiso   1.00
N322   N     0.95144   0.44488   0.68673   0.00000  Uiso   1.00
C323   C     0.63533   0.24947   0.74480   0.00000  Uiso   1.00
C324   C     0.61211   0.22365   0.83244   0.00000  Uiso   1.00
C325   C     0.58397   0.15363   0.84825   0.00000  Uiso   1.00
C326   C     0.56605   0.14094   0.93289   0.00000  Uiso   1.00
C327   C     0.52851   0.09241   0.05889   0.00000  Uiso   1.00
C328   C     0.69542   0.26366   0.76014   0.00000  Uiso   1.00
C329   C     0.73734   0.22728   0.71515   0.00000  Uiso   1.00
C330   C     0.78955   0.24828   0.73892   0.00000  Uiso   1.00
C331   C     0.88137   0.26190   0.75262   0.00000  Uiso   1.00
C332   C     0.61092   0.33099   0.72557   0.00000  Uiso   1.00
C333   C     0.58181   0.35124   0.65149   0.00000  Uiso   1.00
C334   C     0.56288   0.42894   0.64614   0.00000  Uiso   1.00
C335   C     0.52350   0.54710   0.60616   0.00000  Uiso   1.00
C336   C     0.65352   0.35146   0.86700   0.00000  Uiso   1.00
C337   C     0.62199   0.27905   0.89881   0.00000  Uiso   1.00
C338   C     0.60410   0.26647   0.98345   0.00000  Uiso   1.00
C339   C     0.57594   0.19644   0.99938   0.00000  Uiso   1.00
C340   C     0.70530   0.31905   0.82651   0.00000  Uiso   1.00
C341   C     0.75746   0.34012   0.85034   0.00000  Uiso   1.00
C342   C     0.79945   0.30378   0.80541   0.00000  Uiso   1.00
C343   C     0.62080   0.38639   0.79194   0.00000  Uiso   1.00
C344   C     0.60193   0.46408   0.78669   0.00000  Uiso   1.00
C345   C     0.57278   0.48443   0.71263   0.00000  Uiso   1.00
H346   H     0.62764   0.20634   0.69313   0.00000  Uiso   1.00
H347   H     0.57634   0.11077   0.79687   0.00000  Uiso   1.00
H348   H     0.72969   0.18442   0.66378   0.00000  Uiso   1.00
H349   H     0.57417   0.30835   0.60015   0.00000  Uiso   1.00
H350   H     0.52384   0.02922   0.94117   0.00000  Uiso   1.00
H351   H     0.84717   0.18453   0.66052   0.00000  Uiso   1.00
H352   H     0.51924   0.44588   0.52632   0.00000  Uiso   1.00
H353   H     0.66121   0.39459   0.91867   0.00000  Uiso   1.00
H354   H     0.61175   0.30935   0.03480   0.00000  Uiso   1.00
H355   H     0.76509   0.38299   0.90171   0.00000  Uiso   1.00
H356   H     0.60958   0.50693   0.83807   0.00000  Uiso   1.00
H357   H     0.55258   0.19040   0.13428   0.00000  Uiso   1.00
H358   H     0.87591   0.34571   0.85363   0.00000  Uiso   1.00
H359   H     0.54798   0.60705   0.71943   0.00000  Uiso   1.00
O360   O     0.50508   0.05033   0.11005   0.00000  Uiso   1.00
O361   O     0.92928   0.25410   0.74184   0.00000  Uiso   1.00
O362   O     0.49904   0.59697   0.56578   0.00000  Uiso   1.00
N363   N     0.53738   0.07886   0.97068   0.00000  Uiso   1.00
N364   N     0.83968   0.22406   0.70830   0.00000  Uiso   1.00
N365   N     0.53310   0.46840   0.58282   0.00000  Uiso   1.00
N366   N     0.55285   0.16559   0.07459   0.00000  Uiso   1.00
N367   N     0.85514   0.31078   0.81221   0.00000  Uiso   1.00
N368   N     0.54856   0.55512   0.68673   0.00000  Uiso   1.00
