data_job_02318
_audit_creation_date              2018-12-19
_audit_creation_method            'Materials Studio'
_symmetry_space_group_name_H-M    'P1'
_symmetry_Int_Tables_number       1
_symmetry_cell_setting            triclinic
loop_
_symmetry_equiv_pos_as_xyz
  x,y,z
_cell_length_a                    15.0168
_cell_length_b                    14.8843
_cell_length_c                    26.0914
_cell_angle_alpha                 90.0000
_cell_angle_beta                  127.9355
_cell_angle_gamma                 90.0000
loop_
_atom_site_label
_atom_site_type_symbol
_atom_site_fract_x
_atom_site_fract_y
_atom_site_fract_z
_atom_site_U_iso_or_equiv
_atom_site_adp_type
_atom_site_occupancy
C1     C     0.23574   0.96399   0.73841   0.00000  Uiso   1.00
C2     C     0.28572   0.95624   0.70241   0.00000  Uiso   1.00
C3     C     0.33989   0.88129   0.70168   0.00000  Uiso   1.00
C4     C     0.37970   0.88759   0.66585   0.00000  Uiso   1.00
C5     C     0.45947   0.86363   0.61512   0.00000  Uiso   1.00
C6     C     0.29194   0.04553   0.78282   0.00000  Uiso   1.00
C7     C     0.35134   0.04566   0.84969   0.00000  Uiso   1.00
C8     C     0.39638   0.12714   0.88154   0.00000  Uiso   1.00
C9     C     0.48574   0.24182   0.95565   0.00000  Uiso   1.00
C10    C     0.11201   0.98922   0.68730   0.00000  Uiso   1.00
C11    C     0.02011   0.94202   0.67386   0.00000  Uiso   1.00
C12    C     0.91366   0.97610   0.62529   0.00000  Uiso   1.00
C13    C     0.72364   0.00335   0.55108   0.00000  Uiso   1.00
C14    C     0.21011   0.10847   0.67608   0.00000  Uiso   1.00
C15    C     0.27179   0.03472   0.66856   0.00000  Uiso   1.00
C16    C     0.31153   0.04113   0.63271   0.00000  Uiso   1.00
C17    C     0.36575   0.96621   0.63193   0.00000  Uiso   1.00
C18    C     0.27802   0.12401   0.74897   0.00000  Uiso   1.00
C19    C     0.32298   0.20551   0.78073   0.00000  Uiso   1.00
C20    C     0.38243   0.20576   0.84763   0.00000  Uiso   1.00
C21    C     0.09808   0.06770   0.65344   0.00000  Uiso   1.00
C22    C     0.99175   0.10186   0.60489   0.00000  Uiso   1.00
C23    C     0.89971   0.05472   0.59137   0.00000  Uiso   1.00
H24    H     0.24659   0.90290   0.76478   0.00000  Uiso   1.00
H25    H     0.35066   0.82057   0.72789   0.00000  Uiso   1.00
H26    H     0.36209   0.98493   0.87588   0.00000  Uiso   1.00
H27    H     0.03092   0.88129   0.70007   0.00000  Uiso   1.00
H28    H     0.45994   0.76392   0.67209   0.00000  Uiso   1.00
H29    H     0.48402   0.11046   0.98412   0.00000  Uiso   1.00
H30    H     0.78567   0.89194   0.61339   0.00000  Uiso   1.00
H31    H     0.19926   0.16957   0.64972   0.00000  Uiso   1.00
H32    H     0.30074   0.10187   0.60652   0.00000  Uiso   1.00
H33    H     0.31218   0.26622   0.75451   0.00000  Uiso   1.00
H34    H     0.98100   0.16259   0.57870   0.00000  Uiso   1.00
H35    H     0.41943   0.99223   0.57358   0.00000  Uiso   1.00
H36    H     0.44350   0.33878   0.88562   0.00000  Uiso   1.00
H37    H     0.74516   0.12025   0.51488   0.00000  Uiso   1.00
O38    O     0.50732   0.82874   0.59651   0.00000  Uiso   1.00
O39    O     0.53889   0.28339   0.00588   0.00000  Uiso   1.00
O40    O     0.62268   0.99669   0.51949   0.00000  Uiso   1.00
N41    N     0.43646   0.82693   0.65482   0.00000  Uiso   1.00
N42    N     0.45899   0.15093   0.94656   0.00000  Uiso   1.00
N43    N     0.80609   0.94664   0.59996   0.00000  Uiso   1.00
N44    N     0.41466   0.94979   0.60181   0.00000  Uiso   1.00
N45    N     0.43719   0.27378   0.89355   0.00000  Uiso   1.00
N46    N     0.78429   0.06949   0.54696   0.00000  Uiso   1.00
C47    C     0.73574   0.46399   0.73841   0.00000  Uiso   1.00
C48    C     0.78572   0.45624   0.70241   0.00000  Uiso   1.00
C49    C     0.83989   0.38129   0.70168   0.00000  Uiso   1.00
C50    C     0.87970   0.38759   0.66585   0.00000  Uiso   1.00
C51    C     0.95947   0.36363   0.61512   0.00000  Uiso   1.00
C52    C     0.79194   0.54553   0.78282   0.00000  Uiso   1.00
C53    C     0.85134   0.54566   0.84969   0.00000  Uiso   1.00
C54    C     0.89638   0.62714   0.88154   0.00000  Uiso   1.00
C55    C     0.98574   0.74182   0.95565   0.00000  Uiso   1.00
C56    C     0.61201   0.48922   0.68730   0.00000  Uiso   1.00
C57    C     0.52011   0.44202   0.67386   0.00000  Uiso   1.00
C58    C     0.41366   0.47610   0.62529   0.00000  Uiso   1.00
C59    C     0.22364   0.50335   0.55108   0.00000  Uiso   1.00
C60    C     0.71011   0.60847   0.67608   0.00000  Uiso   1.00
C61    C     0.77179   0.53472   0.66856   0.00000  Uiso   1.00
C62    C     0.81153   0.54113   0.63271   0.00000  Uiso   1.00
C63    C     0.86575   0.46621   0.63193   0.00000  Uiso   1.00
C64    C     0.77802   0.62401   0.74897   0.00000  Uiso   1.00
C65    C     0.82298   0.70551   0.78073   0.00000  Uiso   1.00
C66    C     0.88243   0.70576   0.84763   0.00000  Uiso   1.00
C67    C     0.59808   0.56770   0.65344   0.00000  Uiso   1.00
C68    C     0.49175   0.60186   0.60489   0.00000  Uiso   1.00
C69    C     0.39971   0.55472   0.59137   0.00000  Uiso   1.00
H70    H     0.74659   0.40290   0.76478   0.00000  Uiso   1.00
H71    H     0.85066   0.32057   0.72789   0.00000  Uiso   1.00
H72    H     0.86209   0.48493   0.87588   0.00000  Uiso   1.00
H73    H     0.53092   0.38129   0.70007   0.00000  Uiso   1.00
H74    H     0.95994   0.26392   0.67209   0.00000  Uiso   1.00
H75    H     0.98402   0.61046   0.98412   0.00000  Uiso   1.00
H76    H     0.28567   0.39194   0.61339   0.00000  Uiso   1.00
H77    H     0.69926   0.66957   0.64972   0.00000  Uiso   1.00
H78    H     0.80074   0.60187   0.60652   0.00000  Uiso   1.00
H79    H     0.81218   0.76622   0.75451   0.00000  Uiso   1.00
H80    H     0.48100   0.66259   0.57870   0.00000  Uiso   1.00
H81    H     0.91943   0.49223   0.57358   0.00000  Uiso   1.00
H82    H     0.94350   0.83878   0.88562   0.00000  Uiso   1.00
H83    H     0.24516   0.62025   0.51488   0.00000  Uiso   1.00
O84    O     0.00732   0.32874   0.59651   0.00000  Uiso   1.00
O85    O     0.03889   0.78339   0.00588   0.00000  Uiso   1.00
O86    O     0.12268   0.49669   0.51949   0.00000  Uiso   1.00
N87    N     0.93646   0.32693   0.65482   0.00000  Uiso   1.00
N88    N     0.95899   0.65093   0.94656   0.00000  Uiso   1.00
N89    N     0.30609   0.44664   0.59996   0.00000  Uiso   1.00
N90    N     0.91466   0.44979   0.60181   0.00000  Uiso   1.00
N91    N     0.93719   0.77378   0.89355   0.00000  Uiso   1.00
N92    N     0.28429   0.56949   0.54696   0.00000  Uiso   1.00
C93    C     0.76426   0.96399   0.76159   0.00000  Uiso   1.00
C94    C     0.71428   0.95624   0.79759   0.00000  Uiso   1.00
C95    C     0.66011   0.88129   0.79832   0.00000  Uiso   1.00
C96    C     0.62030   0.88759   0.83415   0.00000  Uiso   1.00
C97    C     0.54053   0.86363   0.88488   0.00000  Uiso   1.00
C98    C     0.70806   0.04553   0.71718   0.00000  Uiso   1.00
C99    C     0.64866   0.04566   0.65031   0.00000  Uiso   1.00
C100   C     0.60362   0.12714   0.61846   0.00000  Uiso   1.00
C101   C     0.51426   0.24182   0.54435   0.00000  Uiso   1.00
C102   C     0.88799   0.98922   0.81270   0.00000  Uiso   1.00
C103   C     0.97989   0.94202   0.82614   0.00000  Uiso   1.00
C104   C     0.08634   0.97610   0.87471   0.00000  Uiso   1.00
C105   C     0.27636   0.00335   0.94892   0.00000  Uiso   1.00
C106   C     0.78989   0.10847   0.82392   0.00000  Uiso   1.00
C107   C     0.72821   0.03472   0.83144   0.00000  Uiso   1.00
C108   C     0.68847   0.04113   0.86729   0.00000  Uiso   1.00
C109   C     0.63425   0.96621   0.86807   0.00000  Uiso   1.00
C110   C     0.72198   0.12401   0.75103   0.00000  Uiso   1.00
C111   C     0.67702   0.20551   0.71927   0.00000  Uiso   1.00
C112   C     0.61757   0.20576   0.65237   0.00000  Uiso   1.00
C113   C     0.90192   0.06770   0.84656   0.00000  Uiso   1.00
C114   C     0.00825   0.10186   0.89511   0.00000  Uiso   1.00
C115   C     0.10029   0.05472   0.90863   0.00000  Uiso   1.00
H116   H     0.75341   0.90290   0.73522   0.00000  Uiso   1.00
H117   H     0.64934   0.82057   0.77211   0.00000  Uiso   1.00
H118   H     0.63791   0.98493   0.62412   0.00000  Uiso   1.00
H119   H     0.96908   0.88129   0.79993   0.00000  Uiso   1.00
H120   H     0.54006   0.76392   0.82791   0.00000  Uiso   1.00
H121   H     0.51598   0.11046   0.51588   0.00000  Uiso   1.00
H122   H     0.21433   0.89194   0.88661   0.00000  Uiso   1.00
H123   H     0.80074   0.16957   0.85028   0.00000  Uiso   1.00
H124   H     0.69926   0.10187   0.89348   0.00000  Uiso   1.00
H125   H     0.68782   0.26622   0.74549   0.00000  Uiso   1.00
H126   H     0.01900   0.16259   0.92130   0.00000  Uiso   1.00
H127   H     0.58057   0.99223   0.92642   0.00000  Uiso   1.00
H128   H     0.55650   0.33878   0.61438   0.00000  Uiso   1.00
H129   H     0.25484   0.12025   0.98512   0.00000  Uiso   1.00
O130   O     0.49268   0.82874   0.90349   0.00000  Uiso   1.00
O131   O     0.46111   0.28339   0.49412   0.00000  Uiso   1.00
O132   O     0.37732   0.99669   0.98051   0.00000  Uiso   1.00
N133   N     0.56354   0.82693   0.84518   0.00000  Uiso   1.00
N134   N     0.54101   0.15093   0.55344   0.00000  Uiso   1.00
N135   N     0.19391   0.94664   0.90004   0.00000  Uiso   1.00
N136   N     0.58534   0.94979   0.89819   0.00000  Uiso   1.00
N137   N     0.56281   0.27378   0.60645   0.00000  Uiso   1.00
N138   N     0.21571   0.06949   0.95304   0.00000  Uiso   1.00
C139   C     0.26426   0.46399   0.76159   0.00000  Uiso   1.00
C140   C     0.21428   0.45624   0.79759   0.00000  Uiso   1.00
C141   C     0.16011   0.38129   0.79832   0.00000  Uiso   1.00
C142   C     0.12030   0.38759   0.83415   0.00000  Uiso   1.00
C143   C     0.04053   0.36363   0.88488   0.00000  Uiso   1.00
C144   C     0.20806   0.54553   0.71718   0.00000  Uiso   1.00
C145   C     0.14866   0.54566   0.65031   0.00000  Uiso   1.00
C146   C     0.10362   0.62714   0.61846   0.00000  Uiso   1.00
C147   C     0.01426   0.74182   0.54435   0.00000  Uiso   1.00
C148   C     0.38799   0.48922   0.81270   0.00000  Uiso   1.00
C149   C     0.47989   0.44202   0.82614   0.00000  Uiso   1.00
C150   C     0.58634   0.47610   0.87471   0.00000  Uiso   1.00
C151   C     0.77636   0.50335   0.94892   0.00000  Uiso   1.00
C152   C     0.28989   0.60847   0.82392   0.00000  Uiso   1.00
C153   C     0.22821   0.53472   0.83144   0.00000  Uiso   1.00
C154   C     0.18847   0.54113   0.86729   0.00000  Uiso   1.00
C155   C     0.13425   0.46621   0.86807   0.00000  Uiso   1.00
C156   C     0.22198   0.62401   0.75103   0.00000  Uiso   1.00
C157   C     0.17702   0.70551   0.71927   0.00000  Uiso   1.00
C158   C     0.11757   0.70576   0.65237   0.00000  Uiso   1.00
C159   C     0.40192   0.56770   0.84656   0.00000  Uiso   1.00
C160   C     0.50825   0.60186   0.89511   0.00000  Uiso   1.00
C161   C     0.60029   0.55472   0.90863   0.00000  Uiso   1.00
H162   H     0.25341   0.40290   0.73522   0.00000  Uiso   1.00
H163   H     0.14934   0.32057   0.77211   0.00000  Uiso   1.00
H164   H     0.13791   0.48493   0.62412   0.00000  Uiso   1.00
H165   H     0.46908   0.38129   0.79993   0.00000  Uiso   1.00
H166   H     0.04006   0.26392   0.82791   0.00000  Uiso   1.00
H167   H     0.01598   0.61046   0.51588   0.00000  Uiso   1.00
H168   H     0.71433   0.39194   0.88661   0.00000  Uiso   1.00
H169   H     0.30074   0.66957   0.85028   0.00000  Uiso   1.00
H170   H     0.19926   0.60187   0.89348   0.00000  Uiso   1.00
H171   H     0.18782   0.76622   0.74549   0.00000  Uiso   1.00
H172   H     0.51900   0.66259   0.92130   0.00000  Uiso   1.00
H173   H     0.08057   0.49223   0.92642   0.00000  Uiso   1.00
H174   H     0.05650   0.83878   0.61438   0.00000  Uiso   1.00
H175   H     0.75484   0.62025   0.98512   0.00000  Uiso   1.00
O176   O     0.99268   0.32874   0.90349   0.00000  Uiso   1.00
O177   O     0.96111   0.78339   0.49412   0.00000  Uiso   1.00
O178   O     0.87732   0.49669   0.98051   0.00000  Uiso   1.00
N179   N     0.06354   0.32693   0.84518   0.00000  Uiso   1.00
N180   N     0.04101   0.65093   0.55344   0.00000  Uiso   1.00
N181   N     0.69391   0.44664   0.90004   0.00000  Uiso   1.00
N182   N     0.08534   0.44979   0.89819   0.00000  Uiso   1.00
N183   N     0.06281   0.77378   0.60645   0.00000  Uiso   1.00
N184   N     0.71571   0.56949   0.95304   0.00000  Uiso   1.00
C185   C     0.76426   0.03601   0.26159   0.00000  Uiso   1.00
C186   C     0.71428   0.04376   0.29759   0.00000  Uiso   1.00
C187   C     0.66011   0.11871   0.29832   0.00000  Uiso   1.00
C188   C     0.62030   0.11241   0.33415   0.00000  Uiso   1.00
C189   C     0.54053   0.13637   0.38488   0.00000  Uiso   1.00
C190   C     0.70806   0.95447   0.21718   0.00000  Uiso   1.00
C191   C     0.64866   0.95434   0.15031   0.00000  Uiso   1.00
C192   C     0.60362   0.87286   0.11846   0.00000  Uiso   1.00
C193   C     0.51426   0.75818   0.04435   0.00000  Uiso   1.00
C194   C     0.88799   0.01078   0.31270   0.00000  Uiso   1.00
C195   C     0.97989   0.05798   0.32614   0.00000  Uiso   1.00
C196   C     0.08634   0.02390   0.37471   0.00000  Uiso   1.00
C197   C     0.27636   0.99665   0.44892   0.00000  Uiso   1.00
C198   C     0.78989   0.89153   0.32392   0.00000  Uiso   1.00
C199   C     0.72821   0.96528   0.33144   0.00000  Uiso   1.00
C200   C     0.68847   0.95887   0.36729   0.00000  Uiso   1.00
C201   C     0.63425   0.03379   0.36807   0.00000  Uiso   1.00
C202   C     0.72198   0.87599   0.25103   0.00000  Uiso   1.00
C203   C     0.67702   0.79449   0.21927   0.00000  Uiso   1.00
C204   C     0.61757   0.79424   0.15237   0.00000  Uiso   1.00
C205   C     0.90192   0.93230   0.34656   0.00000  Uiso   1.00
C206   C     0.00825   0.89814   0.39511   0.00000  Uiso   1.00
C207   C     0.10029   0.94528   0.40863   0.00000  Uiso   1.00
H208   H     0.75341   0.09710   0.23522   0.00000  Uiso   1.00
H209   H     0.64934   0.17943   0.27211   0.00000  Uiso   1.00
H210   H     0.63791   0.01507   0.12412   0.00000  Uiso   1.00
H211   H     0.96908   0.11871   0.29993   0.00000  Uiso   1.00
H212   H     0.54006   0.23608   0.32791   0.00000  Uiso   1.00
H213   H     0.51598   0.88954   0.01588   0.00000  Uiso   1.00
H214   H     0.21433   0.10806   0.38661   0.00000  Uiso   1.00
H215   H     0.80074   0.83043   0.35028   0.00000  Uiso   1.00
H216   H     0.69926   0.89813   0.39348   0.00000  Uiso   1.00
H217   H     0.68782   0.73378   0.24549   0.00000  Uiso   1.00
H218   H     0.01900   0.83741   0.42130   0.00000  Uiso   1.00
H219   H     0.58057   0.00777   0.42642   0.00000  Uiso   1.00
H220   H     0.55650   0.66122   0.11438   0.00000  Uiso   1.00
H221   H     0.25484   0.87975   0.48512   0.00000  Uiso   1.00
O222   O     0.49268   0.17126   0.40349   0.00000  Uiso   1.00
O223   O     0.46111   0.71661   0.99412   0.00000  Uiso   1.00
O224   O     0.37732   0.00331   0.48051   0.00000  Uiso   1.00
N225   N     0.56354   0.17307   0.34518   0.00000  Uiso   1.00
N226   N     0.54101   0.84907   0.05344   0.00000  Uiso   1.00
N227   N     0.19391   0.05336   0.40004   0.00000  Uiso   1.00
N228   N     0.58534   0.05021   0.39819   0.00000  Uiso   1.00
N229   N     0.56281   0.72622   0.10645   0.00000  Uiso   1.00
N230   N     0.21571   0.93051   0.45304   0.00000  Uiso   1.00
C231   C     0.26426   0.53601   0.26159   0.00000  Uiso   1.00
C232   C     0.21428   0.54376   0.29759   0.00000  Uiso   1.00
C233   C     0.16011   0.61871   0.29832   0.00000  Uiso   1.00
C234   C     0.12030   0.61241   0.33415   0.00000  Uiso   1.00
C235   C     0.04053   0.63637   0.38488   0.00000  Uiso   1.00
C236   C     0.20806   0.45447   0.21718   0.00000  Uiso   1.00
C237   C     0.14866   0.45434   0.15031   0.00000  Uiso   1.00
C238   C     0.10362   0.37286   0.11846   0.00000  Uiso   1.00
C239   C     0.01426   0.25818   0.04435   0.00000  Uiso   1.00
C240   C     0.38799   0.51078   0.31270   0.00000  Uiso   1.00
C241   C     0.47989   0.55798   0.32614   0.00000  Uiso   1.00
C242   C     0.58634   0.52390   0.37471   0.00000  Uiso   1.00
C243   C     0.77636   0.49665   0.44892   0.00000  Uiso   1.00
C244   C     0.28989   0.39153   0.32392   0.00000  Uiso   1.00
C245   C     0.22821   0.46528   0.33144   0.00000  Uiso   1.00
C246   C     0.18847   0.45887   0.36729   0.00000  Uiso   1.00
C247   C     0.13425   0.53379   0.36807   0.00000  Uiso   1.00
C248   C     0.22198   0.37599   0.25103   0.00000  Uiso   1.00
C249   C     0.17702   0.29449   0.21927   0.00000  Uiso   1.00
C250   C     0.11757   0.29424   0.15237   0.00000  Uiso   1.00
C251   C     0.40192   0.43230   0.34656   0.00000  Uiso   1.00
C252   C     0.50825   0.39814   0.39511   0.00000  Uiso   1.00
C253   C     0.60029   0.44528   0.40863   0.00000  Uiso   1.00
H254   H     0.25341   0.59710   0.23522   0.00000  Uiso   1.00
H255   H     0.14934   0.67943   0.27211   0.00000  Uiso   1.00
H256   H     0.13791   0.51507   0.12412   0.00000  Uiso   1.00
H257   H     0.46908   0.61871   0.29993   0.00000  Uiso   1.00
H258   H     0.04006   0.73608   0.32791   0.00000  Uiso   1.00
H259   H     0.01598   0.38954   0.01588   0.00000  Uiso   1.00
H260   H     0.71433   0.60806   0.38661   0.00000  Uiso   1.00
H261   H     0.30074   0.33043   0.35028   0.00000  Uiso   1.00
H262   H     0.19926   0.39813   0.39348   0.00000  Uiso   1.00
H263   H     0.18782   0.23378   0.24549   0.00000  Uiso   1.00
H264   H     0.51900   0.33741   0.42130   0.00000  Uiso   1.00
H265   H     0.08057   0.50777   0.42642   0.00000  Uiso   1.00
H266   H     0.05650   0.16122   0.11438   0.00000  Uiso   1.00
H267   H     0.75484   0.37975   0.48512   0.00000  Uiso   1.00
O268   O     0.99268   0.67126   0.40349   0.00000  Uiso   1.00
O269   O     0.96111   0.21661   0.99412   0.00000  Uiso   1.00
O270   O     0.87732   0.50331   0.48051   0.00000  Uiso   1.00
N271   N     0.06354   0.67307   0.34518   0.00000  Uiso   1.00
N272   N     0.04101   0.34907   0.05344   0.00000  Uiso   1.00
N273   N     0.69391   0.55336   0.40004   0.00000  Uiso   1.00
N274   N     0.08534   0.55021   0.39819   0.00000  Uiso   1.00
N275   N     0.06281   0.22622   0.10645   0.00000  Uiso   1.00
N276   N     0.71571   0.43051   0.45304   0.00000  Uiso   1.00
C277   C     0.23574   0.03601   0.23841   0.00000  Uiso   1.00
C278   C     0.28572   0.04376   0.20241   0.00000  Uiso   1.00
C279   C     0.33989   0.11871   0.20168   0.00000  Uiso   1.00
C280   C     0.37970   0.11241   0.16585   0.00000  Uiso   1.00
C281   C     0.45947   0.13637   0.11512   0.00000  Uiso   1.00
C282   C     0.29194   0.95447   0.28282   0.00000  Uiso   1.00
C283   C     0.35134   0.95434   0.34969   0.00000  Uiso   1.00
C284   C     0.39638   0.87286   0.38154   0.00000  Uiso   1.00
C285   C     0.48574   0.75818   0.45565   0.00000  Uiso   1.00
C286   C     0.11201   0.01078   0.18730   0.00000  Uiso   1.00
C287   C     0.02011   0.05798   0.17386   0.00000  Uiso   1.00
C288   C     0.91366   0.02390   0.12529   0.00000  Uiso   1.00
C289   C     0.72364   0.99665   0.05108   0.00000  Uiso   1.00
C290   C     0.21011   0.89153   0.17608   0.00000  Uiso   1.00
C291   C     0.27179   0.96528   0.16856   0.00000  Uiso   1.00
C292   C     0.31153   0.95887   0.13271   0.00000  Uiso   1.00
C293   C     0.36575   0.03379   0.13193   0.00000  Uiso   1.00
C294   C     0.27802   0.87599   0.24897   0.00000  Uiso   1.00
C295   C     0.32298   0.79449   0.28073   0.00000  Uiso   1.00
C296   C     0.38243   0.79424   0.34763   0.00000  Uiso   1.00
C297   C     0.09808   0.93230   0.15344   0.00000  Uiso   1.00
C298   C     0.99175   0.89814   0.10489   0.00000  Uiso   1.00
C299   C     0.89971   0.94528   0.09137   0.00000  Uiso   1.00
H300   H     0.24659   0.09710   0.26478   0.00000  Uiso   1.00
H301   H     0.35066   0.17943   0.22789   0.00000  Uiso   1.00
H302   H     0.36209   0.01507   0.37588   0.00000  Uiso   1.00
H303   H     0.03092   0.11871   0.20007   0.00000  Uiso   1.00
H304   H     0.45994   0.23608   0.17209   0.00000  Uiso   1.00
H305   H     0.48402   0.88954   0.48412   0.00000  Uiso   1.00
H306   H     0.78567   0.10806   0.11339   0.00000  Uiso   1.00
H307   H     0.19926   0.83043   0.14972   0.00000  Uiso   1.00
H308   H     0.30074   0.89813   0.10652   0.00000  Uiso   1.00
H309   H     0.31218   0.73378   0.25451   0.00000  Uiso   1.00
H310   H     0.98100   0.83741   0.07870   0.00000  Uiso   1.00
H311   H     0.41943   0.00777   0.07358   0.00000  Uiso   1.00
H312   H     0.44350   0.66122   0.38562   0.00000  Uiso   1.00
H313   H     0.74516   0.87975   0.01488   0.00000  Uiso   1.00
O314   O     0.50732   0.17126   0.09651   0.00000  Uiso   1.00
O315   O     0.53889   0.71661   0.50588   0.00000  Uiso   1.00
O316   O     0.62268   0.00331   0.01949   0.00000  Uiso   1.00
N317   N     0.43646   0.17307   0.15482   0.00000  Uiso   1.00
N318   N     0.45899   0.84907   0.44656   0.00000  Uiso   1.00
N319   N     0.80609   0.05336   0.09996   0.00000  Uiso   1.00
N320   N     0.41466   0.05021   0.10181   0.00000  Uiso   1.00
N321   N     0.43719   0.72622   0.39355   0.00000  Uiso   1.00
N322   N     0.78429   0.93051   0.04696   0.00000  Uiso   1.00
C323   C     0.73574   0.53601   0.23841   0.00000  Uiso   1.00
C324   C     0.78572   0.54376   0.20241   0.00000  Uiso   1.00
C325   C     0.83989   0.61871   0.20168   0.00000  Uiso   1.00
C326   C     0.87970   0.61241   0.16585   0.00000  Uiso   1.00
C327   C     0.95947   0.63637   0.11512   0.00000  Uiso   1.00
C328   C     0.79194   0.45447   0.28282   0.00000  Uiso   1.00
C329   C     0.85134   0.45434   0.34969   0.00000  Uiso   1.00
C330   C     0.89638   0.37286   0.38154   0.00000  Uiso   1.00
C331   C     0.98574   0.25818   0.45565   0.00000  Uiso   1.00
C332   C     0.61201   0.51078   0.18730   0.00000  Uiso   1.00
C333   C     0.52011   0.55798   0.17386   0.00000  Uiso   1.00
C334   C     0.41366   0.52390   0.12529   0.00000  Uiso   1.00
C335   C     0.22364   0.49665   0.05108   0.00000  Uiso   1.00
C336   C     0.71011   0.39153   0.17608   0.00000  Uiso   1.00
C337   C     0.77179   0.46528   0.16856   0.00000  Uiso   1.00
C338   C     0.81153   0.45887   0.13271   0.00000  Uiso   1.00
C339   C     0.86575   0.53379   0.13193   0.00000  Uiso   1.00
C340   C     0.77802   0.37599   0.24897   0.00000  Uiso   1.00
C341   C     0.82298   0.29449   0.28073   0.00000  Uiso   1.00
C342   C     0.88243   0.29424   0.34763   0.00000  Uiso   1.00
C343   C     0.59808   0.43230   0.15344   0.00000  Uiso   1.00
C344   C     0.49175   0.39814   0.10489   0.00000  Uiso   1.00
C345   C     0.39971   0.44528   0.09137   0.00000  Uiso   1.00
H346   H     0.74659   0.59710   0.26478   0.00000  Uiso   1.00
H347   H     0.85066   0.67943   0.22789   0.00000  Uiso   1.00
H348   H     0.86209   0.51507   0.37588   0.00000  Uiso   1.00
H349   H     0.53092   0.61871   0.20007   0.00000  Uiso   1.00
H350   H     0.95994   0.73608   0.17209   0.00000  Uiso   1.00
H351   H     0.98402   0.38954   0.48412   0.00000  Uiso   1.00
H352   H     0.28567   0.60806   0.11339   0.00000  Uiso   1.00
H353   H     0.69926   0.33043   0.14972   0.00000  Uiso   1.00
H354   H     0.80074   0.39813   0.10652   0.00000  Uiso   1.00
H355   H     0.81218   0.23378   0.25451   0.00000  Uiso   1.00
H356   H     0.48100   0.33741   0.07870   0.00000  Uiso   1.00
H357   H     0.91943   0.50777   0.07358   0.00000  Uiso   1.00
H358   H     0.94350   0.16122   0.38562   0.00000  Uiso   1.00
H359   H     0.24516   0.37975   0.01488   0.00000  Uiso   1.00
O360   O     0.00732   0.67126   0.09651   0.00000  Uiso   1.00
O361   O     0.03889   0.21661   0.50588   0.00000  Uiso   1.00
O362   O     0.12268   0.50331   0.01949   0.00000  Uiso   1.00
N363   N     0.93646   0.67307   0.15482   0.00000  Uiso   1.00
N364   N     0.95899   0.34907   0.44656   0.00000  Uiso   1.00
N365   N     0.30609   0.55336   0.09996   0.00000  Uiso   1.00
N366   N     0.91466   0.55021   0.10181   0.00000  Uiso   1.00
N367   N     0.93719   0.22622   0.39355   0.00000  Uiso   1.00
N368   N     0.28429   0.43051   0.04696   0.00000  Uiso   1.00
