data_job_04636
_audit_creation_date              2018-12-19
_audit_creation_method            'Materials Studio'
_symmetry_space_group_name_H-M    'P1'
_symmetry_Int_Tables_number       1
_symmetry_cell_setting            triclinic
loop_
_symmetry_equiv_pos_as_xyz
  x,y,z
_cell_length_a                    13.4616
_cell_length_b                    28.4839
_cell_length_c                    12.5387
_cell_angle_alpha                 90.0000
_cell_angle_beta                  92.5891
_cell_angle_gamma                 90.0000
loop_
_atom_site_label
_atom_site_type_symbol
_atom_site_fract_x
_atom_site_fract_y
_atom_site_fract_z
_atom_site_U_iso_or_equiv
_atom_site_adp_type
_atom_site_occupancy
C1     C     0.00040   0.86926   0.42153   0.00000  Uiso   1.00
C2     C     0.07673   0.88325   0.34110   0.00000  Uiso   1.00
C3     C     0.05574   0.90414   0.24267   0.00000  Uiso   1.00
C4     C     0.13597   0.91420   0.18072   0.00000  Uiso   1.00
C5     C     0.23963   0.93750   0.05043   0.00000  Uiso   1.00
C6     C     0.01639   0.81703   0.44274   0.00000  Uiso   1.00
C7     C     0.94466   0.78225   0.42977   0.00000  Uiso   1.00
C8     C     0.97409   0.73656   0.45339   0.00000  Uiso   1.00
C9     C     0.98405   0.65704   0.48097   0.00000  Uiso   1.00
C10    C     0.03129   0.89427   0.52532   0.00000  Uiso   1.00
C11    C     0.97208   0.92444   0.58181   0.00000  Uiso   1.00
C12    C     0.01406   0.94378   0.67498   0.00000  Uiso   1.00
C13    C     0.04717   0.98420   0.83078   0.00000  Uiso   1.00
C14    C     0.18021   0.84996   0.48656   0.00000  Uiso   1.00
C15    C     0.17440   0.87277   0.37642   0.00000  Uiso   1.00
C16    C     0.25468   0.88280   0.31461   0.00000  Uiso   1.00
C17    C     0.23381   0.90370   0.21610   0.00000  Uiso   1.00
C18    C     0.11405   0.80654   0.47805   0.00000  Uiso   1.00
C19    C     0.14360   0.76090   0.50171   0.00000  Uiso   1.00
C20    C     0.07193   0.72606   0.48878   0.00000  Uiso   1.00
C21    C     0.12896   0.88379   0.56064   0.00000  Uiso   1.00
C22    C     0.17103   0.90309   0.65374   0.00000  Uiso   1.00
C23    C     0.11190   0.93327   0.71036   0.00000  Uiso   1.00
H24    H     0.92436   0.87742   0.39404   0.00000  Uiso   1.00
H25    H     0.98014   0.91225   0.21536   0.00000  Uiso   1.00
H26    H     0.86908   0.79037   0.40245   0.00000  Uiso   1.00
H27    H     0.89651   0.93254   0.55445   0.00000  Uiso   1.00
H28    H     0.08506   0.94623   0.03282   0.00000  Uiso   1.00
H29    H     0.85087   0.68924   0.42734   0.00000  Uiso   1.00
H30    H     0.90870   0.98903   0.74788   0.00000  Uiso   1.00
H31    H     0.25625   0.84180   0.51406   0.00000  Uiso   1.00
H32    H     0.33025   0.87468   0.34196   0.00000  Uiso   1.00
H33    H     0.21918   0.75280   0.52904   0.00000  Uiso   1.00
H34    H     0.24661   0.89497   0.68105   0.00000  Uiso   1.00
H35    H     0.36922   0.91573   0.13557   0.00000  Uiso   1.00
H36    H     0.13502   0.65874   0.53009   0.00000  Uiso   1.00
H37    H     0.19286   0.95854   0.85063   0.00000  Uiso   1.00
O38    O     0.26983   0.95324   0.96880   0.00000  Uiso   1.00
O39    O     0.96257   0.61608   0.48641   0.00000  Uiso   1.00
O40    O     0.03845   0.00940   0.90695   0.00000  Uiso   1.00
N41    N     0.14178   0.93455   0.08063   0.00000  Uiso   1.00
N42    N     0.92283   0.69428   0.44946   0.00000  Uiso   1.00
N43    N     0.97689   0.97455   0.74916   0.00000  Uiso   1.00
N44    N     0.29469   0.91814   0.13592   0.00000  Uiso   1.00
N45    N     0.07573   0.67787   0.50475   0.00000  Uiso   1.00
N46    N     0.12980   0.95814   0.80445   0.00000  Uiso   1.00
C47    C     0.50728   0.13297   0.29309   0.00000  Uiso   1.00
C48    C     0.43214   0.11659   0.20629   0.00000  Uiso   1.00
C49    C     0.45485   0.09516   0.11104   0.00000  Uiso   1.00
C50    C     0.37550   0.08282   0.04213   0.00000  Uiso   1.00
C51    C     0.27383   0.05608   0.90344   0.00000  Uiso   1.00
C52    C     0.48659   0.18502   0.30982   0.00000  Uiso   1.00
C53    C     0.55508   0.22112   0.30163   0.00000  Uiso   1.00
C54    C     0.52156   0.26638   0.31989   0.00000  Uiso   1.00
C55    C     0.50443   0.34587   0.34202   0.00000  Uiso   1.00
C56    C     0.47885   0.10840   0.39537   0.00000  Uiso   1.00
C57    C     0.54084   0.08007   0.45913   0.00000  Uiso   1.00
C58    C     0.50080   0.06084   0.54943   0.00000  Uiso   1.00
C59    C     0.47165   0.02136   0.70438   0.00000  Uiso   1.00
C60    C     0.32597   0.14918   0.34011   0.00000  Uiso   1.00
C61    C     0.33367   0.12540   0.23183   0.00000  Uiso   1.00
C62    C     0.25426   0.11309   0.16305   0.00000  Uiso   1.00
C63    C     0.27685   0.09164   0.06771   0.00000  Uiso   1.00
C64    C     0.38811   0.19383   0.33536   0.00000  Uiso   1.00
C65    C     0.35449   0.23905   0.35365   0.00000  Uiso   1.00
C66    C     0.42291   0.27520   0.34548   0.00000  Uiso   1.00
C67    C     0.38037   0.11720   0.42091   0.00000  Uiso   1.00
C68    C     0.34024   0.09801   0.51114   0.00000  Uiso   1.00
C69    C     0.40215   0.06966   0.57501   0.00000  Uiso   1.00
H70    H     0.58395   0.12611   0.27321   0.00000  Uiso   1.00
H71    H     0.53108   0.08835   0.09130   0.00000  Uiso   1.00
H72    H     0.63129   0.21429   0.28188   0.00000  Uiso   1.00
H73    H     0.61704   0.07327   0.43934   0.00000  Uiso   1.00
H74    H     0.42903   0.05038   0.90086   0.00000  Uiso   1.00
H75    H     0.64034   0.31593   0.30274   0.00000  Uiso   1.00
H76    H     0.61030   0.01856   0.63479   0.00000  Uiso   1.00
H77    H     0.24930   0.15604   0.35999   0.00000  Uiso   1.00
H78    H     0.17806   0.11991   0.18284   0.00000  Uiso   1.00
H79    H     0.27828   0.24585   0.37341   0.00000  Uiso   1.00
H80    H     0.26403   0.10483   0.53088   0.00000  Uiso   1.00
H81    H     0.14251   0.07600   0.97515   0.00000  Uiso   1.00
H82    H     0.35383   0.34155   0.37704   0.00000  Uiso   1.00
H83    H     0.32378   0.04418   0.70908   0.00000  Uiso   1.00
O84    O     0.24495   0.03890   0.81988   0.00000  Uiso   1.00
O85    O     0.52219   0.38729   0.34716   0.00000  Uiso   1.00
O86    O     0.48277   0.99714   0.78279   0.00000  Uiso   1.00
N87    N     0.37137   0.06136   0.94266   0.00000  Uiso   1.00
N88    N     0.56894   0.30963   0.31838   0.00000  Uiso   1.00
N89    N     0.54086   0.03162   0.62883   0.00000  Uiso   1.00
N90    N     0.21720   0.07515   0.98264   0.00000  Uiso   1.00
N91    N     0.41476   0.32342   0.35836   0.00000  Uiso   1.00
N92    N     0.38668   0.04541   0.66881   0.00000  Uiso   1.00
C93    C     0.99960   0.36926   0.07847   0.00000  Uiso   1.00
C94    C     0.92327   0.38325   0.15890   0.00000  Uiso   1.00
C95    C     0.94426   0.40414   0.25733   0.00000  Uiso   1.00
C96    C     0.86403   0.41420   0.31928   0.00000  Uiso   1.00
C97    C     0.76037   0.43750   0.44957   0.00000  Uiso   1.00
C98    C     0.98361   0.31703   0.05726   0.00000  Uiso   1.00
C99    C     0.05534   0.28225   0.07023   0.00000  Uiso   1.00
C100   C     0.02591   0.23656   0.04661   0.00000  Uiso   1.00
C101   C     0.01595   0.15704   0.01903   0.00000  Uiso   1.00
C102   C     0.96871   0.39427   0.97468   0.00000  Uiso   1.00
C103   C     0.02792   0.42444   0.91819   0.00000  Uiso   1.00
C104   C     0.98594   0.44378   0.82502   0.00000  Uiso   1.00
C105   C     0.95283   0.48420   0.66922   0.00000  Uiso   1.00
C106   C     0.81979   0.34996   0.01344   0.00000  Uiso   1.00
C107   C     0.82560   0.37277   0.12358   0.00000  Uiso   1.00
C108   C     0.74532   0.38280   0.18539   0.00000  Uiso   1.00
C109   C     0.76619   0.40370   0.28390   0.00000  Uiso   1.00
C110   C     0.88595   0.30654   0.02195   0.00000  Uiso   1.00
C111   C     0.85640   0.26090   0.99829   0.00000  Uiso   1.00
C112   C     0.92807   0.22606   0.01122   0.00000  Uiso   1.00
C113   C     0.87104   0.38379   0.93936   0.00000  Uiso   1.00
C114   C     0.82897   0.40309   0.84626   0.00000  Uiso   1.00
C115   C     0.88810   0.43327   0.78964   0.00000  Uiso   1.00
H116   H     0.07564   0.37742   0.10596   0.00000  Uiso   1.00
H117   H     0.01986   0.41225   0.28464   0.00000  Uiso   1.00
H118   H     0.13092   0.29037   0.09755   0.00000  Uiso   1.00
H119   H     0.10349   0.43254   0.94555   0.00000  Uiso   1.00
H120   H     0.91494   0.44623   0.46718   0.00000  Uiso   1.00
H121   H     0.14913   0.18924   0.07266   0.00000  Uiso   1.00
H122   H     0.09130   0.48903   0.75212   0.00000  Uiso   1.00
H123   H     0.74375   0.34180   0.98594   0.00000  Uiso   1.00
H124   H     0.66975   0.37468   0.15804   0.00000  Uiso   1.00
H125   H     0.78082   0.25280   0.97096   0.00000  Uiso   1.00
H126   H     0.75339   0.39497   0.81895   0.00000  Uiso   1.00
H127   H     0.63078   0.41573   0.36443   0.00000  Uiso   1.00
H128   H     0.86498   0.15874   0.96991   0.00000  Uiso   1.00
H129   H     0.80714   0.45854   0.64937   0.00000  Uiso   1.00
O130   O     0.73017   0.45324   0.53120   0.00000  Uiso   1.00
O131   O     0.03743   0.11608   0.01359   0.00000  Uiso   1.00
O132   O     0.96155   0.50940   0.59305   0.00000  Uiso   1.00
N133   N     0.85822   0.43455   0.41937   0.00000  Uiso   1.00
N134   N     0.07717   0.19428   0.05054   0.00000  Uiso   1.00
N135   N     0.02311   0.47455   0.75084   0.00000  Uiso   1.00
N136   N     0.70531   0.41814   0.36408   0.00000  Uiso   1.00
N137   N     0.92427   0.17787   0.99525   0.00000  Uiso   1.00
N138   N     0.87020   0.45814   0.69555   0.00000  Uiso   1.00
C139   C     0.49272   0.63297   0.20691   0.00000  Uiso   1.00
C140   C     0.56786   0.61659   0.29371   0.00000  Uiso   1.00
C141   C     0.54515   0.59516   0.38896   0.00000  Uiso   1.00
C142   C     0.62450   0.58282   0.45787   0.00000  Uiso   1.00
C143   C     0.72617   0.55608   0.59656   0.00000  Uiso   1.00
C144   C     0.51341   0.68502   0.19018   0.00000  Uiso   1.00
C145   C     0.44492   0.72112   0.19837   0.00000  Uiso   1.00
C146   C     0.47844   0.76638   0.18011   0.00000  Uiso   1.00
C147   C     0.49557   0.84587   0.15798   0.00000  Uiso   1.00
C148   C     0.52115   0.60840   0.10463   0.00000  Uiso   1.00
C149   C     0.45916   0.58007   0.04087   0.00000  Uiso   1.00
C150   C     0.49920   0.56084   0.95057   0.00000  Uiso   1.00
C151   C     0.52835   0.52136   0.79562   0.00000  Uiso   1.00
C152   C     0.67403   0.64918   0.15989   0.00000  Uiso   1.00
C153   C     0.66633   0.62540   0.26817   0.00000  Uiso   1.00
C154   C     0.74574   0.61309   0.33695   0.00000  Uiso   1.00
C155   C     0.72315   0.59164   0.43229   0.00000  Uiso   1.00
C156   C     0.61189   0.69383   0.16464   0.00000  Uiso   1.00
C157   C     0.64551   0.73905   0.14635   0.00000  Uiso   1.00
C158   C     0.57709   0.77520   0.15452   0.00000  Uiso   1.00
C159   C     0.61963   0.61720   0.07909   0.00000  Uiso   1.00
C160   C     0.65976   0.59801   0.98886   0.00000  Uiso   1.00
C161   C     0.59785   0.56966   0.92499   0.00000  Uiso   1.00
H162   H     0.41605   0.62611   0.22679   0.00000  Uiso   1.00
H163   H     0.46892   0.58835   0.40870   0.00000  Uiso   1.00
H164   H     0.36871   0.71429   0.21812   0.00000  Uiso   1.00
H165   H     0.38296   0.57327   0.06066   0.00000  Uiso   1.00
H166   H     0.57097   0.55038   0.59914   0.00000  Uiso   1.00
H167   H     0.35966   0.81593   0.19726   0.00000  Uiso   1.00
H168   H     0.38970   0.51856   0.86521   0.00000  Uiso   1.00
H169   H     0.75070   0.65604   0.14001   0.00000  Uiso   1.00
H170   H     0.82194   0.61991   0.31716   0.00000  Uiso   1.00
H171   H     0.72172   0.74585   0.12659   0.00000  Uiso   1.00
H172   H     0.73597   0.60483   0.96912   0.00000  Uiso   1.00
H173   H     0.85749   0.57600   0.52485   0.00000  Uiso   1.00
H174   H     0.64617   0.84155   0.12296   0.00000  Uiso   1.00
H175   H     0.67622   0.54418   0.79092   0.00000  Uiso   1.00
O176   O     0.75505   0.53890   0.68012   0.00000  Uiso   1.00
O177   O     0.47781   0.88729   0.15284   0.00000  Uiso   1.00
O178   O     0.51723   0.49714   0.71721   0.00000  Uiso   1.00
N179   N     0.62863   0.56136   0.55734   0.00000  Uiso   1.00
N180   N     0.43106   0.80963   0.18162   0.00000  Uiso   1.00
N181   N     0.45914   0.53162   0.87117   0.00000  Uiso   1.00
N182   N     0.78280   0.57515   0.51736   0.00000  Uiso   1.00
N183   N     0.58524   0.82342   0.14164   0.00000  Uiso   1.00
N184   N     0.61332   0.54541   0.83119   0.00000  Uiso   1.00
C185   C     0.99960   0.13074   0.57847   0.00000  Uiso   1.00
C186   C     0.92327   0.11675   0.65890   0.00000  Uiso   1.00
C187   C     0.94426   0.09586   0.75733   0.00000  Uiso   1.00
C188   C     0.86403   0.08580   0.81928   0.00000  Uiso   1.00
C189   C     0.76037   0.06250   0.94957   0.00000  Uiso   1.00
C190   C     0.98361   0.18297   0.55726   0.00000  Uiso   1.00
C191   C     0.05534   0.21775   0.57023   0.00000  Uiso   1.00
C192   C     0.02591   0.26344   0.54661   0.00000  Uiso   1.00
C193   C     0.01595   0.34296   0.51903   0.00000  Uiso   1.00
C194   C     0.96871   0.10573   0.47468   0.00000  Uiso   1.00
C195   C     0.02792   0.07556   0.41819   0.00000  Uiso   1.00
C196   C     0.98594   0.05622   0.32502   0.00000  Uiso   1.00
C197   C     0.95283   0.01580   0.16922   0.00000  Uiso   1.00
C198   C     0.81979   0.15004   0.51344   0.00000  Uiso   1.00
C199   C     0.82560   0.12723   0.62358   0.00000  Uiso   1.00
C200   C     0.74532   0.11720   0.68539   0.00000  Uiso   1.00
C201   C     0.76619   0.09630   0.78390   0.00000  Uiso   1.00
C202   C     0.88595   0.19346   0.52195   0.00000  Uiso   1.00
C203   C     0.85640   0.23910   0.49829   0.00000  Uiso   1.00
C204   C     0.92807   0.27394   0.51122   0.00000  Uiso   1.00
C205   C     0.87104   0.11621   0.43936   0.00000  Uiso   1.00
C206   C     0.82897   0.09691   0.34626   0.00000  Uiso   1.00
C207   C     0.88810   0.06673   0.28964   0.00000  Uiso   1.00
H208   H     0.07564   0.12258   0.60596   0.00000  Uiso   1.00
H209   H     0.01986   0.08775   0.78464   0.00000  Uiso   1.00
H210   H     0.13092   0.20963   0.59755   0.00000  Uiso   1.00
H211   H     0.10349   0.06746   0.44555   0.00000  Uiso   1.00
H212   H     0.91494   0.05377   0.96718   0.00000  Uiso   1.00
H213   H     0.14913   0.31076   0.57266   0.00000  Uiso   1.00
H214   H     0.09130   0.01097   0.25212   0.00000  Uiso   1.00
H215   H     0.74375   0.15820   0.48594   0.00000  Uiso   1.00
H216   H     0.66975   0.12532   0.65804   0.00000  Uiso   1.00
H217   H     0.78082   0.24720   0.47096   0.00000  Uiso   1.00
H218   H     0.75339   0.10503   0.31895   0.00000  Uiso   1.00
H219   H     0.63078   0.08427   0.86443   0.00000  Uiso   1.00
H220   H     0.86498   0.34126   0.46991   0.00000  Uiso   1.00
H221   H     0.80714   0.04146   0.14937   0.00000  Uiso   1.00
O222   O     0.73017   0.04676   0.03120   0.00000  Uiso   1.00
O223   O     0.03743   0.38392   0.51359   0.00000  Uiso   1.00
O224   O     0.96155   0.99060   0.09305   0.00000  Uiso   1.00
N225   N     0.85822   0.06545   0.91937   0.00000  Uiso   1.00
N226   N     0.07717   0.30572   0.55054   0.00000  Uiso   1.00
N227   N     0.02311   0.02545   0.25084   0.00000  Uiso   1.00
N228   N     0.70531   0.08186   0.86408   0.00000  Uiso   1.00
N229   N     0.92427   0.32213   0.49525   0.00000  Uiso   1.00
N230   N     0.87020   0.04186   0.19555   0.00000  Uiso   1.00
C231   C     0.49272   0.86703   0.70691   0.00000  Uiso   1.00
C232   C     0.56786   0.88341   0.79371   0.00000  Uiso   1.00
C233   C     0.54515   0.90484   0.88896   0.00000  Uiso   1.00
C234   C     0.62450   0.91718   0.95787   0.00000  Uiso   1.00
C235   C     0.72617   0.94392   0.09656   0.00000  Uiso   1.00
C236   C     0.51341   0.81498   0.69018   0.00000  Uiso   1.00
C237   C     0.44492   0.77888   0.69837   0.00000  Uiso   1.00
C238   C     0.47844   0.73362   0.68011   0.00000  Uiso   1.00
C239   C     0.49557   0.65413   0.65798   0.00000  Uiso   1.00
C240   C     0.52115   0.89160   0.60463   0.00000  Uiso   1.00
C241   C     0.45916   0.91993   0.54087   0.00000  Uiso   1.00
C242   C     0.49920   0.93916   0.45057   0.00000  Uiso   1.00
C243   C     0.52835   0.97864   0.29562   0.00000  Uiso   1.00
C244   C     0.67403   0.85082   0.65989   0.00000  Uiso   1.00
C245   C     0.66633   0.87460   0.76817   0.00000  Uiso   1.00
C246   C     0.74574   0.88691   0.83695   0.00000  Uiso   1.00
C247   C     0.72315   0.90836   0.93229   0.00000  Uiso   1.00
C248   C     0.61189   0.80617   0.66464   0.00000  Uiso   1.00
C249   C     0.64551   0.76095   0.64635   0.00000  Uiso   1.00
C250   C     0.57709   0.72480   0.65452   0.00000  Uiso   1.00
C251   C     0.61963   0.88280   0.57909   0.00000  Uiso   1.00
C252   C     0.65976   0.90199   0.48886   0.00000  Uiso   1.00
C253   C     0.59785   0.93034   0.42499   0.00000  Uiso   1.00
H254   H     0.41605   0.87389   0.72679   0.00000  Uiso   1.00
H255   H     0.46892   0.91165   0.90870   0.00000  Uiso   1.00
H256   H     0.36871   0.78571   0.71812   0.00000  Uiso   1.00
H257   H     0.38296   0.92673   0.56066   0.00000  Uiso   1.00
H258   H     0.57097   0.94962   0.09914   0.00000  Uiso   1.00
H259   H     0.35966   0.68407   0.69726   0.00000  Uiso   1.00
H260   H     0.38970   0.98144   0.36521   0.00000  Uiso   1.00
H261   H     0.75070   0.84396   0.64001   0.00000  Uiso   1.00
H262   H     0.82194   0.88009   0.81716   0.00000  Uiso   1.00
H263   H     0.72172   0.75415   0.62659   0.00000  Uiso   1.00
H264   H     0.73597   0.89517   0.46912   0.00000  Uiso   1.00
H265   H     0.85749   0.92400   0.02485   0.00000  Uiso   1.00
H266   H     0.64617   0.65845   0.62296   0.00000  Uiso   1.00
H267   H     0.67622   0.95582   0.29092   0.00000  Uiso   1.00
O268   O     0.75505   0.96110   0.18012   0.00000  Uiso   1.00
O269   O     0.47781   0.61271   0.65284   0.00000  Uiso   1.00
O270   O     0.51723   0.00286   0.21721   0.00000  Uiso   1.00
N271   N     0.62863   0.93864   0.05734   0.00000  Uiso   1.00
N272   N     0.43106   0.69037   0.68162   0.00000  Uiso   1.00
N273   N     0.45914   0.96838   0.37117   0.00000  Uiso   1.00
N274   N     0.78280   0.92485   0.01736   0.00000  Uiso   1.00
N275   N     0.58524   0.67658   0.64164   0.00000  Uiso   1.00
N276   N     0.61332   0.95459   0.33119   0.00000  Uiso   1.00
C277   C     0.00040   0.63074   0.92153   0.00000  Uiso   1.00
C278   C     0.07673   0.61675   0.84110   0.00000  Uiso   1.00
C279   C     0.05574   0.59586   0.74267   0.00000  Uiso   1.00
C280   C     0.13597   0.58580   0.68072   0.00000  Uiso   1.00
C281   C     0.23963   0.56250   0.55043   0.00000  Uiso   1.00
C282   C     0.01639   0.68297   0.94274   0.00000  Uiso   1.00
C283   C     0.94466   0.71775   0.92977   0.00000  Uiso   1.00
C284   C     0.97409   0.76344   0.95339   0.00000  Uiso   1.00
C285   C     0.98405   0.84296   0.98097   0.00000  Uiso   1.00
C286   C     0.03129   0.60573   0.02532   0.00000  Uiso   1.00
C287   C     0.97208   0.57556   0.08181   0.00000  Uiso   1.00
C288   C     0.01406   0.55622   0.17498   0.00000  Uiso   1.00
C289   C     0.04717   0.51580   0.33078   0.00000  Uiso   1.00
C290   C     0.18021   0.65004   0.98656   0.00000  Uiso   1.00
C291   C     0.17440   0.62723   0.87642   0.00000  Uiso   1.00
C292   C     0.25468   0.61720   0.81461   0.00000  Uiso   1.00
C293   C     0.23381   0.59630   0.71610   0.00000  Uiso   1.00
C294   C     0.11405   0.69346   0.97805   0.00000  Uiso   1.00
C295   C     0.14360   0.73910   0.00171   0.00000  Uiso   1.00
C296   C     0.07193   0.77394   0.98878   0.00000  Uiso   1.00
C297   C     0.12896   0.61621   0.06064   0.00000  Uiso   1.00
C298   C     0.17103   0.59691   0.15374   0.00000  Uiso   1.00
C299   C     0.11190   0.56673   0.21036   0.00000  Uiso   1.00
H300   H     0.92436   0.62258   0.89404   0.00000  Uiso   1.00
H301   H     0.98014   0.58775   0.71536   0.00000  Uiso   1.00
H302   H     0.86908   0.70963   0.90245   0.00000  Uiso   1.00
H303   H     0.89651   0.56746   0.05445   0.00000  Uiso   1.00
H304   H     0.08506   0.55377   0.53282   0.00000  Uiso   1.00
H305   H     0.85087   0.81076   0.92734   0.00000  Uiso   1.00
H306   H     0.90870   0.51097   0.24788   0.00000  Uiso   1.00
H307   H     0.25625   0.65820   0.01406   0.00000  Uiso   1.00
H308   H     0.33025   0.62532   0.84196   0.00000  Uiso   1.00
H309   H     0.21918   0.74720   0.02904   0.00000  Uiso   1.00
H310   H     0.24661   0.60503   0.18105   0.00000  Uiso   1.00
H311   H     0.36922   0.58427   0.63557   0.00000  Uiso   1.00
H312   H     0.13502   0.84126   0.03009   0.00000  Uiso   1.00
H313   H     0.19286   0.54146   0.35063   0.00000  Uiso   1.00
O314   O     0.26983   0.54676   0.46880   0.00000  Uiso   1.00
O315   O     0.96257   0.88392   0.98641   0.00000  Uiso   1.00
O316   O     0.03845   0.49060   0.40695   0.00000  Uiso   1.00
N317   N     0.14178   0.56545   0.58063   0.00000  Uiso   1.00
N318   N     0.92283   0.80572   0.94946   0.00000  Uiso   1.00
N319   N     0.97689   0.52545   0.24916   0.00000  Uiso   1.00
N320   N     0.29469   0.58186   0.63592   0.00000  Uiso   1.00
N321   N     0.07573   0.82213   0.00475   0.00000  Uiso   1.00
N322   N     0.12980   0.54186   0.30445   0.00000  Uiso   1.00
C323   C     0.50728   0.36703   0.79309   0.00000  Uiso   1.00
C324   C     0.43214   0.38341   0.70629   0.00000  Uiso   1.00
C325   C     0.45485   0.40484   0.61104   0.00000  Uiso   1.00
C326   C     0.37550   0.41718   0.54213   0.00000  Uiso   1.00
C327   C     0.27383   0.44392   0.40344   0.00000  Uiso   1.00
C328   C     0.48659   0.31498   0.80982   0.00000  Uiso   1.00
C329   C     0.55508   0.27888   0.80163   0.00000  Uiso   1.00
C330   C     0.52156   0.23362   0.81989   0.00000  Uiso   1.00
C331   C     0.50443   0.15413   0.84202   0.00000  Uiso   1.00
C332   C     0.47885   0.39160   0.89537   0.00000  Uiso   1.00
C333   C     0.54084   0.41993   0.95913   0.00000  Uiso   1.00
C334   C     0.50080   0.43916   0.04943   0.00000  Uiso   1.00
C335   C     0.47165   0.47864   0.20438   0.00000  Uiso   1.00
C336   C     0.32597   0.35082   0.84011   0.00000  Uiso   1.00
C337   C     0.33367   0.37460   0.73183   0.00000  Uiso   1.00
C338   C     0.25426   0.38691   0.66305   0.00000  Uiso   1.00
C339   C     0.27685   0.40836   0.56771   0.00000  Uiso   1.00
C340   C     0.38811   0.30617   0.83536   0.00000  Uiso   1.00
C341   C     0.35449   0.26095   0.85365   0.00000  Uiso   1.00
C342   C     0.42291   0.22480   0.84548   0.00000  Uiso   1.00
C343   C     0.38037   0.38280   0.92091   0.00000  Uiso   1.00
C344   C     0.34024   0.40199   0.01114   0.00000  Uiso   1.00
C345   C     0.40215   0.43034   0.07501   0.00000  Uiso   1.00
H346   H     0.58395   0.37389   0.77321   0.00000  Uiso   1.00
H347   H     0.53108   0.41165   0.59130   0.00000  Uiso   1.00
H348   H     0.63129   0.28571   0.78188   0.00000  Uiso   1.00
H349   H     0.61704   0.42673   0.93934   0.00000  Uiso   1.00
H350   H     0.42903   0.44962   0.40086   0.00000  Uiso   1.00
H351   H     0.64034   0.18407   0.80274   0.00000  Uiso   1.00
H352   H     0.61030   0.48144   0.13479   0.00000  Uiso   1.00
H353   H     0.24930   0.34396   0.85999   0.00000  Uiso   1.00
H354   H     0.17806   0.38009   0.68284   0.00000  Uiso   1.00
H355   H     0.27828   0.25415   0.87341   0.00000  Uiso   1.00
H356   H     0.26403   0.39517   0.03088   0.00000  Uiso   1.00
H357   H     0.14251   0.42400   0.47515   0.00000  Uiso   1.00
H358   H     0.35383   0.15845   0.87704   0.00000  Uiso   1.00
H359   H     0.32378   0.45582   0.20908   0.00000  Uiso   1.00
O360   O     0.24495   0.46110   0.31988   0.00000  Uiso   1.00
O361   O     0.52219   0.11271   0.84716   0.00000  Uiso   1.00
O362   O     0.48277   0.50286   0.28279   0.00000  Uiso   1.00
N363   N     0.37137   0.43864   0.44266   0.00000  Uiso   1.00
N364   N     0.56894   0.19037   0.81838   0.00000  Uiso   1.00
N365   N     0.54086   0.46838   0.12883   0.00000  Uiso   1.00
N366   N     0.21720   0.42485   0.48264   0.00000  Uiso   1.00
N367   N     0.41476   0.17658   0.85836   0.00000  Uiso   1.00
N368   N     0.38668   0.45459   0.16881   0.00000  Uiso   1.00
