data_job_04212
_audit_creation_date              2018-12-19
_audit_creation_method            'Materials Studio'
_symmetry_space_group_name_H-M    'P1'
_symmetry_Int_Tables_number       1
_symmetry_cell_setting            triclinic
loop_
_symmetry_equiv_pos_as_xyz
  x,y,z
_cell_length_a                    45.9803
_cell_length_b                    8.4339
_cell_length_c                    15.8223
_cell_angle_alpha                 90.0000
_cell_angle_beta                  87.4587
_cell_angle_gamma                 90.0000
loop_
_atom_site_label
_atom_site_type_symbol
_atom_site_fract_x
_atom_site_fract_y
_atom_site_fract_z
_atom_site_U_iso_or_equiv
_atom_site_adp_type
_atom_site_occupancy
C1     C     0.11986   0.37266   0.28768   0.00000  Uiso   1.00
C2     C     0.09475   0.39464   0.22896   0.00000  Uiso   1.00
C3     C     0.06936   0.30560   0.23032   0.00000  Uiso   1.00
C4     C     0.04902   0.34424   0.17137   0.00000  Uiso   1.00
C5     C     0.00929   0.35957   0.08903   0.00000  Uiso   1.00
C6     C     0.14696   0.34621   0.23034   0.00000  Uiso   1.00
C7     C     0.16547   0.21646   0.23288   0.00000  Uiso   1.00
C8     C     0.18909   0.21435   0.17509   0.00000  Uiso   1.00
C9     C     0.23043   0.15455   0.09493   0.00000  Uiso   1.00
C10    C     0.12407   0.53266   0.33032   0.00000  Uiso   1.00
C11    C     0.12334   0.55967   0.41691   0.00000  Uiso   1.00
C12    C     0.12769   0.71454   0.44330   0.00000  Uiso   1.00
C13    C     0.13349   0.94422   0.51836   0.00000  Uiso   1.00
C14    C     0.12891   0.59965   0.18057   0.00000  Uiso   1.00
C15    C     0.09967   0.51793   0.17079   0.00000  Uiso   1.00
C16    C     0.07937   0.55673   0.11182   0.00000  Uiso   1.00
C17    C     0.05395   0.46776   0.11309   0.00000  Uiso   1.00
C18    C     0.15188   0.46950   0.17217   0.00000  Uiso   1.00
C19    C     0.17548   0.46759   0.11437   0.00000  Uiso   1.00
C20    C     0.19401   0.33786   0.11681   0.00000  Uiso   1.00
C21    C     0.12899   0.65595   0.27214   0.00000  Uiso   1.00
C22    C     0.13335   0.81080   0.29840   0.00000  Uiso   1.00
C23    C     0.13262   0.83805   0.38502   0.00000  Uiso   1.00
H24    H     0.11604   0.27667   0.33297   0.00000  Uiso   1.00
H25    H     0.06556   0.21018   0.27535   0.00000  Uiso   1.00
H26    H     0.16166   0.12107   0.27791   0.00000  Uiso   1.00
H27    H     0.11953   0.46423   0.46191   0.00000  Uiso   1.00
H28    H     0.01177   0.19081   0.18580   0.00000  Uiso   1.00
H29    H     0.21441   0.00294   0.19121   0.00000  Uiso   1.00
H30    H     0.12557   0.72655   0.57921   0.00000  Uiso   1.00
H31    H     0.13274   0.69564   0.13527   0.00000  Uiso   1.00
H32    H     0.08318   0.65215   0.06681   0.00000  Uiso   1.00
H33    H     0.17928   0.56303   0.06936   0.00000  Uiso   1.00
H34    H     0.13715   0.90618   0.25336   0.00000  Uiso   1.00
H35    H     0.02607   0.54951   0.01653   0.00000  Uiso   1.00
H36    H     0.22871   0.36164   0.02195   0.00000  Uiso   1.00
H37    H     0.13987   0.08526   0.40995   0.00000  Uiso   1.00
O38    O     0.98602   0.33395   0.05967   0.00000  Uiso   1.00
O39    O     0.25188   0.08749   0.06679   0.00000  Uiso   1.00
O40    O     0.13532   0.03685   0.57584   0.00000  Uiso   1.00
N41    N     0.02194   0.28122   0.15537   0.00000  Uiso   1.00
N42    N     0.21139   0.10555   0.16042   0.00000  Uiso   1.00
N43    N     0.12834   0.78207   0.52317   0.00000  Uiso   1.00
N44    N     0.02963   0.47424   0.06429   0.00000  Uiso   1.00
N45    N     0.21908   0.29857   0.06934   0.00000  Uiso   1.00
N46    N     0.13604   0.97509   0.43209   0.00000  Uiso   1.00
C47    C     0.61986   0.87266   0.28768   0.00000  Uiso   1.00
C48    C     0.59475   0.89464   0.22896   0.00000  Uiso   1.00
C49    C     0.56936   0.80560   0.23032   0.00000  Uiso   1.00
C50    C     0.54902   0.84424   0.17137   0.00000  Uiso   1.00
C51    C     0.50929   0.85957   0.08903   0.00000  Uiso   1.00
C52    C     0.64696   0.84621   0.23034   0.00000  Uiso   1.00
C53    C     0.66547   0.71646   0.23288   0.00000  Uiso   1.00
C54    C     0.68909   0.71435   0.17509   0.00000  Uiso   1.00
C55    C     0.73043   0.65455   0.09493   0.00000  Uiso   1.00
C56    C     0.62407   0.03266   0.33032   0.00000  Uiso   1.00
C57    C     0.62334   0.05967   0.41691   0.00000  Uiso   1.00
C58    C     0.62769   0.21454   0.44330   0.00000  Uiso   1.00
C59    C     0.63349   0.44422   0.51836   0.00000  Uiso   1.00
C60    C     0.62891   0.09965   0.18057   0.00000  Uiso   1.00
C61    C     0.59967   0.01793   0.17079   0.00000  Uiso   1.00
C62    C     0.57937   0.05673   0.11182   0.00000  Uiso   1.00
C63    C     0.55395   0.96776   0.11309   0.00000  Uiso   1.00
C64    C     0.65188   0.96950   0.17217   0.00000  Uiso   1.00
C65    C     0.67548   0.96759   0.11437   0.00000  Uiso   1.00
C66    C     0.69401   0.83786   0.11681   0.00000  Uiso   1.00
C67    C     0.62899   0.15595   0.27214   0.00000  Uiso   1.00
C68    C     0.63335   0.31080   0.29840   0.00000  Uiso   1.00
C69    C     0.63262   0.33805   0.38502   0.00000  Uiso   1.00
H70    H     0.61604   0.77667   0.33297   0.00000  Uiso   1.00
H71    H     0.56556   0.71018   0.27535   0.00000  Uiso   1.00
H72    H     0.66166   0.62107   0.27791   0.00000  Uiso   1.00
H73    H     0.61953   0.96423   0.46191   0.00000  Uiso   1.00
H74    H     0.51177   0.69081   0.18580   0.00000  Uiso   1.00
H75    H     0.71441   0.50294   0.19121   0.00000  Uiso   1.00
H76    H     0.62557   0.22655   0.57921   0.00000  Uiso   1.00
H77    H     0.63274   0.19564   0.13527   0.00000  Uiso   1.00
H78    H     0.58318   0.15215   0.06681   0.00000  Uiso   1.00
H79    H     0.67928   0.06303   0.06936   0.00000  Uiso   1.00
H80    H     0.63715   0.40618   0.25336   0.00000  Uiso   1.00
H81    H     0.52607   0.04951   0.01653   0.00000  Uiso   1.00
H82    H     0.72871   0.86164   0.02195   0.00000  Uiso   1.00
H83    H     0.63987   0.58526   0.40995   0.00000  Uiso   1.00
O84    O     0.48602   0.83395   0.05967   0.00000  Uiso   1.00
O85    O     0.75188   0.58749   0.06679   0.00000  Uiso   1.00
O86    O     0.63532   0.53685   0.57584   0.00000  Uiso   1.00
N87    N     0.52194   0.78122   0.15537   0.00000  Uiso   1.00
N88    N     0.71139   0.60555   0.16042   0.00000  Uiso   1.00
N89    N     0.62834   0.28207   0.52317   0.00000  Uiso   1.00
N90    N     0.52963   0.97424   0.06429   0.00000  Uiso   1.00
N91    N     0.71908   0.79857   0.06934   0.00000  Uiso   1.00
N92    N     0.63604   0.47509   0.43209   0.00000  Uiso   1.00
C93    C     0.88014   0.37266   0.21232   0.00000  Uiso   1.00
C94    C     0.90525   0.39464   0.27104   0.00000  Uiso   1.00
C95    C     0.93064   0.30560   0.26968   0.00000  Uiso   1.00
C96    C     0.95098   0.34424   0.32863   0.00000  Uiso   1.00
C97    C     0.99071   0.35957   0.41097   0.00000  Uiso   1.00
C98    C     0.85304   0.34621   0.26966   0.00000  Uiso   1.00
C99    C     0.83453   0.21646   0.26712   0.00000  Uiso   1.00
C100   C     0.81091   0.21435   0.32491   0.00000  Uiso   1.00
C101   C     0.76957   0.15455   0.40507   0.00000  Uiso   1.00
C102   C     0.87593   0.53266   0.16968   0.00000  Uiso   1.00
C103   C     0.87666   0.55967   0.08309   0.00000  Uiso   1.00
C104   C     0.87231   0.71454   0.05670   0.00000  Uiso   1.00
C105   C     0.86651   0.94422   0.98164   0.00000  Uiso   1.00
C106   C     0.87109   0.59965   0.31943   0.00000  Uiso   1.00
C107   C     0.90033   0.51793   0.32921   0.00000  Uiso   1.00
C108   C     0.92063   0.55673   0.38818   0.00000  Uiso   1.00
C109   C     0.94605   0.46776   0.38691   0.00000  Uiso   1.00
C110   C     0.84812   0.46950   0.32783   0.00000  Uiso   1.00
C111   C     0.82452   0.46759   0.38563   0.00000  Uiso   1.00
C112   C     0.80599   0.33786   0.38319   0.00000  Uiso   1.00
C113   C     0.87101   0.65595   0.22786   0.00000  Uiso   1.00
C114   C     0.86665   0.81080   0.20160   0.00000  Uiso   1.00
C115   C     0.86738   0.83805   0.11498   0.00000  Uiso   1.00
H116   H     0.88396   0.27667   0.16703   0.00000  Uiso   1.00
H117   H     0.93444   0.21018   0.22465   0.00000  Uiso   1.00
H118   H     0.83834   0.12107   0.22209   0.00000  Uiso   1.00
H119   H     0.88047   0.46423   0.03809   0.00000  Uiso   1.00
H120   H     0.98823   0.19081   0.31420   0.00000  Uiso   1.00
H121   H     0.78559   0.00294   0.30879   0.00000  Uiso   1.00
H122   H     0.87443   0.72655   0.92079   0.00000  Uiso   1.00
H123   H     0.86726   0.69564   0.36473   0.00000  Uiso   1.00
H124   H     0.91682   0.65215   0.43319   0.00000  Uiso   1.00
H125   H     0.82072   0.56303   0.43064   0.00000  Uiso   1.00
H126   H     0.86285   0.90618   0.24664   0.00000  Uiso   1.00
H127   H     0.97393   0.54951   0.48347   0.00000  Uiso   1.00
H128   H     0.77129   0.36164   0.47805   0.00000  Uiso   1.00
H129   H     0.86013   0.08526   0.09005   0.00000  Uiso   1.00
O130   O     0.01398   0.33395   0.44033   0.00000  Uiso   1.00
O131   O     0.74812   0.08749   0.43321   0.00000  Uiso   1.00
O132   O     0.86468   0.03685   0.92416   0.00000  Uiso   1.00
N133   N     0.97806   0.28122   0.34463   0.00000  Uiso   1.00
N134   N     0.78861   0.10555   0.33958   0.00000  Uiso   1.00
N135   N     0.87166   0.78207   0.97683   0.00000  Uiso   1.00
N136   N     0.97037   0.47424   0.43571   0.00000  Uiso   1.00
N137   N     0.78092   0.29857   0.43066   0.00000  Uiso   1.00
N138   N     0.86396   0.97509   0.06791   0.00000  Uiso   1.00
C139   C     0.38014   0.87266   0.21232   0.00000  Uiso   1.00
C140   C     0.40525   0.89464   0.27104   0.00000  Uiso   1.00
C141   C     0.43064   0.80560   0.26968   0.00000  Uiso   1.00
C142   C     0.45098   0.84424   0.32863   0.00000  Uiso   1.00
C143   C     0.49071   0.85957   0.41097   0.00000  Uiso   1.00
C144   C     0.35304   0.84621   0.26966   0.00000  Uiso   1.00
C145   C     0.33453   0.71646   0.26712   0.00000  Uiso   1.00
C146   C     0.31091   0.71435   0.32491   0.00000  Uiso   1.00
C147   C     0.26957   0.65455   0.40507   0.00000  Uiso   1.00
C148   C     0.37593   0.03266   0.16968   0.00000  Uiso   1.00
C149   C     0.37666   0.05967   0.08309   0.00000  Uiso   1.00
C150   C     0.37231   0.21454   0.05670   0.00000  Uiso   1.00
C151   C     0.36651   0.44422   0.98164   0.00000  Uiso   1.00
C152   C     0.37109   0.09965   0.31943   0.00000  Uiso   1.00
C153   C     0.40033   0.01793   0.32921   0.00000  Uiso   1.00
C154   C     0.42063   0.05673   0.38818   0.00000  Uiso   1.00
C155   C     0.44605   0.96776   0.38691   0.00000  Uiso   1.00
C156   C     0.34812   0.96950   0.32783   0.00000  Uiso   1.00
C157   C     0.32452   0.96759   0.38563   0.00000  Uiso   1.00
C158   C     0.30599   0.83786   0.38319   0.00000  Uiso   1.00
C159   C     0.37101   0.15595   0.22786   0.00000  Uiso   1.00
C160   C     0.36665   0.31080   0.20160   0.00000  Uiso   1.00
C161   C     0.36738   0.33805   0.11498   0.00000  Uiso   1.00
H162   H     0.38396   0.77667   0.16703   0.00000  Uiso   1.00
H163   H     0.43444   0.71018   0.22465   0.00000  Uiso   1.00
H164   H     0.33834   0.62107   0.22209   0.00000  Uiso   1.00
H165   H     0.38047   0.96423   0.03809   0.00000  Uiso   1.00
H166   H     0.48823   0.69081   0.31420   0.00000  Uiso   1.00
H167   H     0.28559   0.50294   0.30879   0.00000  Uiso   1.00
H168   H     0.37443   0.22655   0.92079   0.00000  Uiso   1.00
H169   H     0.36726   0.19564   0.36473   0.00000  Uiso   1.00
H170   H     0.41682   0.15215   0.43319   0.00000  Uiso   1.00
H171   H     0.32072   0.06303   0.43064   0.00000  Uiso   1.00
H172   H     0.36285   0.40618   0.24664   0.00000  Uiso   1.00
H173   H     0.47393   0.04951   0.48347   0.00000  Uiso   1.00
H174   H     0.27129   0.86164   0.47805   0.00000  Uiso   1.00
H175   H     0.36013   0.58526   0.09005   0.00000  Uiso   1.00
O176   O     0.51398   0.83395   0.44033   0.00000  Uiso   1.00
O177   O     0.24812   0.58749   0.43321   0.00000  Uiso   1.00
O178   O     0.36468   0.53685   0.92416   0.00000  Uiso   1.00
N179   N     0.47806   0.78122   0.34463   0.00000  Uiso   1.00
N180   N     0.28861   0.60555   0.33958   0.00000  Uiso   1.00
N181   N     0.37166   0.28207   0.97683   0.00000  Uiso   1.00
N182   N     0.47037   0.97424   0.43571   0.00000  Uiso   1.00
N183   N     0.28092   0.79857   0.43066   0.00000  Uiso   1.00
N184   N     0.36396   0.47509   0.06791   0.00000  Uiso   1.00
C185   C     0.88014   0.62734   0.71232   0.00000  Uiso   1.00
C186   C     0.90525   0.60536   0.77104   0.00000  Uiso   1.00
C187   C     0.93064   0.69440   0.76968   0.00000  Uiso   1.00
C188   C     0.95098   0.65576   0.82863   0.00000  Uiso   1.00
C189   C     0.99071   0.64043   0.91097   0.00000  Uiso   1.00
C190   C     0.85304   0.65379   0.76966   0.00000  Uiso   1.00
C191   C     0.83453   0.78354   0.76712   0.00000  Uiso   1.00
C192   C     0.81091   0.78565   0.82491   0.00000  Uiso   1.00
C193   C     0.76957   0.84545   0.90507   0.00000  Uiso   1.00
C194   C     0.87593   0.46734   0.66968   0.00000  Uiso   1.00
C195   C     0.87666   0.44033   0.58309   0.00000  Uiso   1.00
C196   C     0.87231   0.28546   0.55670   0.00000  Uiso   1.00
C197   C     0.86651   0.05578   0.48164   0.00000  Uiso   1.00
C198   C     0.87109   0.40035   0.81943   0.00000  Uiso   1.00
C199   C     0.90033   0.48207   0.82921   0.00000  Uiso   1.00
C200   C     0.92063   0.44327   0.88818   0.00000  Uiso   1.00
C201   C     0.94605   0.53224   0.88691   0.00000  Uiso   1.00
C202   C     0.84812   0.53050   0.82783   0.00000  Uiso   1.00
C203   C     0.82452   0.53241   0.88563   0.00000  Uiso   1.00
C204   C     0.80599   0.66214   0.88319   0.00000  Uiso   1.00
C205   C     0.87101   0.34405   0.72786   0.00000  Uiso   1.00
C206   C     0.86665   0.18920   0.70160   0.00000  Uiso   1.00
C207   C     0.86738   0.16195   0.61498   0.00000  Uiso   1.00
H208   H     0.88396   0.72333   0.66703   0.00000  Uiso   1.00
H209   H     0.93444   0.78982   0.72465   0.00000  Uiso   1.00
H210   H     0.83834   0.87893   0.72209   0.00000  Uiso   1.00
H211   H     0.88047   0.53577   0.53809   0.00000  Uiso   1.00
H212   H     0.98823   0.80919   0.81420   0.00000  Uiso   1.00
H213   H     0.78559   0.99706   0.80879   0.00000  Uiso   1.00
H214   H     0.87443   0.27345   0.42079   0.00000  Uiso   1.00
H215   H     0.86726   0.30436   0.86473   0.00000  Uiso   1.00
H216   H     0.91682   0.34785   0.93319   0.00000  Uiso   1.00
H217   H     0.82072   0.43697   0.93064   0.00000  Uiso   1.00
H218   H     0.86285   0.09382   0.74664   0.00000  Uiso   1.00
H219   H     0.97393   0.45049   0.98347   0.00000  Uiso   1.00
H220   H     0.77129   0.63836   0.97805   0.00000  Uiso   1.00
H221   H     0.86013   0.91474   0.59005   0.00000  Uiso   1.00
O222   O     0.01398   0.66605   0.94033   0.00000  Uiso   1.00
O223   O     0.74812   0.91251   0.93321   0.00000  Uiso   1.00
O224   O     0.86468   0.96315   0.42416   0.00000  Uiso   1.00
N225   N     0.97806   0.71878   0.84463   0.00000  Uiso   1.00
N226   N     0.78861   0.89445   0.83958   0.00000  Uiso   1.00
N227   N     0.87166   0.21793   0.47683   0.00000  Uiso   1.00
N228   N     0.97037   0.52576   0.93571   0.00000  Uiso   1.00
N229   N     0.78092   0.70143   0.93066   0.00000  Uiso   1.00
N230   N     0.86396   0.02491   0.56791   0.00000  Uiso   1.00
C231   C     0.38014   0.12734   0.71232   0.00000  Uiso   1.00
C232   C     0.40525   0.10536   0.77104   0.00000  Uiso   1.00
C233   C     0.43064   0.19440   0.76968   0.00000  Uiso   1.00
C234   C     0.45098   0.15576   0.82863   0.00000  Uiso   1.00
C235   C     0.49071   0.14043   0.91097   0.00000  Uiso   1.00
C236   C     0.35304   0.15379   0.76966   0.00000  Uiso   1.00
C237   C     0.33453   0.28354   0.76712   0.00000  Uiso   1.00
C238   C     0.31091   0.28565   0.82491   0.00000  Uiso   1.00
C239   C     0.26957   0.34545   0.90507   0.00000  Uiso   1.00
C240   C     0.37593   0.96734   0.66968   0.00000  Uiso   1.00
C241   C     0.37666   0.94033   0.58309   0.00000  Uiso   1.00
C242   C     0.37231   0.78546   0.55670   0.00000  Uiso   1.00
C243   C     0.36651   0.55578   0.48164   0.00000  Uiso   1.00
C244   C     0.37109   0.90035   0.81943   0.00000  Uiso   1.00
C245   C     0.40033   0.98207   0.82921   0.00000  Uiso   1.00
C246   C     0.42063   0.94327   0.88818   0.00000  Uiso   1.00
C247   C     0.44605   0.03224   0.88691   0.00000  Uiso   1.00
C248   C     0.34812   0.03050   0.82783   0.00000  Uiso   1.00
C249   C     0.32452   0.03241   0.88563   0.00000  Uiso   1.00
C250   C     0.30599   0.16214   0.88319   0.00000  Uiso   1.00
C251   C     0.37101   0.84405   0.72786   0.00000  Uiso   1.00
C252   C     0.36665   0.68920   0.70160   0.00000  Uiso   1.00
C253   C     0.36738   0.66195   0.61498   0.00000  Uiso   1.00
H254   H     0.38396   0.22333   0.66703   0.00000  Uiso   1.00
H255   H     0.43444   0.28982   0.72465   0.00000  Uiso   1.00
H256   H     0.33834   0.37893   0.72209   0.00000  Uiso   1.00
H257   H     0.38047   0.03577   0.53809   0.00000  Uiso   1.00
H258   H     0.48823   0.30919   0.81420   0.00000  Uiso   1.00
H259   H     0.28559   0.49706   0.80879   0.00000  Uiso   1.00
H260   H     0.37443   0.77345   0.42079   0.00000  Uiso   1.00
H261   H     0.36726   0.80436   0.86473   0.00000  Uiso   1.00
H262   H     0.41682   0.84785   0.93319   0.00000  Uiso   1.00
H263   H     0.32072   0.93697   0.93064   0.00000  Uiso   1.00
H264   H     0.36285   0.59382   0.74664   0.00000  Uiso   1.00
H265   H     0.47393   0.95049   0.98347   0.00000  Uiso   1.00
H266   H     0.27129   0.13836   0.97805   0.00000  Uiso   1.00
H267   H     0.36013   0.41474   0.59005   0.00000  Uiso   1.00
O268   O     0.51398   0.16605   0.94033   0.00000  Uiso   1.00
O269   O     0.24812   0.41251   0.93321   0.00000  Uiso   1.00
O270   O     0.36468   0.46315   0.42416   0.00000  Uiso   1.00
N271   N     0.47806   0.21878   0.84463   0.00000  Uiso   1.00
N272   N     0.28861   0.39445   0.83958   0.00000  Uiso   1.00
N273   N     0.37166   0.71793   0.47683   0.00000  Uiso   1.00
N274   N     0.47037   0.02576   0.93571   0.00000  Uiso   1.00
N275   N     0.28092   0.20143   0.93066   0.00000  Uiso   1.00
N276   N     0.36396   0.52491   0.56791   0.00000  Uiso   1.00
C277   C     0.11986   0.62734   0.78768   0.00000  Uiso   1.00
C278   C     0.09475   0.60536   0.72896   0.00000  Uiso   1.00
C279   C     0.06936   0.69440   0.73032   0.00000  Uiso   1.00
C280   C     0.04902   0.65576   0.67137   0.00000  Uiso   1.00
C281   C     0.00929   0.64043   0.58903   0.00000  Uiso   1.00
C282   C     0.14696   0.65379   0.73034   0.00000  Uiso   1.00
C283   C     0.16547   0.78354   0.73288   0.00000  Uiso   1.00
C284   C     0.18909   0.78565   0.67509   0.00000  Uiso   1.00
C285   C     0.23043   0.84545   0.59493   0.00000  Uiso   1.00
C286   C     0.12407   0.46734   0.83032   0.00000  Uiso   1.00
C287   C     0.12334   0.44033   0.91691   0.00000  Uiso   1.00
C288   C     0.12769   0.28546   0.94330   0.00000  Uiso   1.00
C289   C     0.13349   0.05578   0.01836   0.00000  Uiso   1.00
C290   C     0.12891   0.40035   0.68057   0.00000  Uiso   1.00
C291   C     0.09967   0.48207   0.67079   0.00000  Uiso   1.00
C292   C     0.07937   0.44327   0.61182   0.00000  Uiso   1.00
C293   C     0.05395   0.53224   0.61309   0.00000  Uiso   1.00
C294   C     0.15188   0.53050   0.67217   0.00000  Uiso   1.00
C295   C     0.17548   0.53241   0.61437   0.00000  Uiso   1.00
C296   C     0.19401   0.66214   0.61681   0.00000  Uiso   1.00
C297   C     0.12899   0.34405   0.77214   0.00000  Uiso   1.00
C298   C     0.13335   0.18920   0.79840   0.00000  Uiso   1.00
C299   C     0.13262   0.16195   0.88502   0.00000  Uiso   1.00
H300   H     0.11604   0.72333   0.83297   0.00000  Uiso   1.00
H301   H     0.06556   0.78982   0.77535   0.00000  Uiso   1.00
H302   H     0.16166   0.87893   0.77791   0.00000  Uiso   1.00
H303   H     0.11953   0.53577   0.96191   0.00000  Uiso   1.00
H304   H     0.01177   0.80919   0.68580   0.00000  Uiso   1.00
H305   H     0.21441   0.99706   0.69121   0.00000  Uiso   1.00
H306   H     0.12557   0.27345   0.07921   0.00000  Uiso   1.00
H307   H     0.13274   0.30436   0.63527   0.00000  Uiso   1.00
H308   H     0.08318   0.34785   0.56681   0.00000  Uiso   1.00
H309   H     0.17928   0.43697   0.56936   0.00000  Uiso   1.00
H310   H     0.13715   0.09382   0.75336   0.00000  Uiso   1.00
H311   H     0.02607   0.45049   0.51653   0.00000  Uiso   1.00
H312   H     0.22871   0.63836   0.52195   0.00000  Uiso   1.00
H313   H     0.13987   0.91474   0.90995   0.00000  Uiso   1.00
O314   O     0.98602   0.66605   0.55967   0.00000  Uiso   1.00
O315   O     0.25188   0.91251   0.56679   0.00000  Uiso   1.00
O316   O     0.13532   0.96315   0.07584   0.00000  Uiso   1.00
N317   N     0.02194   0.71878   0.65537   0.00000  Uiso   1.00
N318   N     0.21139   0.89445   0.66042   0.00000  Uiso   1.00
N319   N     0.12834   0.21793   0.02317   0.00000  Uiso   1.00
N320   N     0.02963   0.52576   0.56429   0.00000  Uiso   1.00
N321   N     0.21908   0.70143   0.56934   0.00000  Uiso   1.00
N322   N     0.13604   0.02491   0.93209   0.00000  Uiso   1.00
C323   C     0.61986   0.12734   0.78768   0.00000  Uiso   1.00
C324   C     0.59475   0.10536   0.72896   0.00000  Uiso   1.00
C325   C     0.56936   0.19440   0.73032   0.00000  Uiso   1.00
C326   C     0.54902   0.15576   0.67137   0.00000  Uiso   1.00
C327   C     0.50929   0.14043   0.58903   0.00000  Uiso   1.00
C328   C     0.64696   0.15379   0.73034   0.00000  Uiso   1.00
C329   C     0.66547   0.28354   0.73288   0.00000  Uiso   1.00
C330   C     0.68909   0.28565   0.67509   0.00000  Uiso   1.00
C331   C     0.73043   0.34545   0.59493   0.00000  Uiso   1.00
C332   C     0.62407   0.96734   0.83032   0.00000  Uiso   1.00
C333   C     0.62334   0.94033   0.91691   0.00000  Uiso   1.00
C334   C     0.62769   0.78546   0.94330   0.00000  Uiso   1.00
C335   C     0.63349   0.55578   0.01836   0.00000  Uiso   1.00
C336   C     0.62891   0.90035   0.68057   0.00000  Uiso   1.00
C337   C     0.59967   0.98207   0.67079   0.00000  Uiso   1.00
C338   C     0.57937   0.94327   0.61182   0.00000  Uiso   1.00
C339   C     0.55395   0.03224   0.61309   0.00000  Uiso   1.00
C340   C     0.65188   0.03050   0.67217   0.00000  Uiso   1.00
C341   C     0.67548   0.03241   0.61437   0.00000  Uiso   1.00
C342   C     0.69401   0.16214   0.61681   0.00000  Uiso   1.00
C343   C     0.62899   0.84405   0.77214   0.00000  Uiso   1.00
C344   C     0.63335   0.68920   0.79840   0.00000  Uiso   1.00
C345   C     0.63262   0.66195   0.88502   0.00000  Uiso   1.00
H346   H     0.61604   0.22333   0.83297   0.00000  Uiso   1.00
H347   H     0.56556   0.28982   0.77535   0.00000  Uiso   1.00
H348   H     0.66166   0.37893   0.77791   0.00000  Uiso   1.00
H349   H     0.61953   0.03577   0.96191   0.00000  Uiso   1.00
H350   H     0.51177   0.30919   0.68580   0.00000  Uiso   1.00
H351   H     0.71441   0.49706   0.69121   0.00000  Uiso   1.00
H352   H     0.62557   0.77345   0.07921   0.00000  Uiso   1.00
H353   H     0.63274   0.80436   0.63527   0.00000  Uiso   1.00
H354   H     0.58318   0.84785   0.56681   0.00000  Uiso   1.00
H355   H     0.67928   0.93697   0.56936   0.00000  Uiso   1.00
H356   H     0.63715   0.59382   0.75336   0.00000  Uiso   1.00
H357   H     0.52607   0.95049   0.51653   0.00000  Uiso   1.00
H358   H     0.72871   0.13836   0.52195   0.00000  Uiso   1.00
H359   H     0.63987   0.41474   0.90995   0.00000  Uiso   1.00
O360   O     0.48602   0.16605   0.55967   0.00000  Uiso   1.00
O361   O     0.75188   0.41251   0.56679   0.00000  Uiso   1.00
O362   O     0.63532   0.46315   0.07584   0.00000  Uiso   1.00
N363   N     0.52194   0.21878   0.65537   0.00000  Uiso   1.00
N364   N     0.71139   0.39445   0.66042   0.00000  Uiso   1.00
N365   N     0.62834   0.71793   0.02317   0.00000  Uiso   1.00
N366   N     0.52963   0.02576   0.56429   0.00000  Uiso   1.00
N367   N     0.71908   0.20143   0.56934   0.00000  Uiso   1.00
N368   N     0.63604   0.52491   0.93209   0.00000  Uiso   1.00
