data_job_06087
_audit_creation_date              2018-12-19
_audit_creation_method            'Materials Studio'
_symmetry_space_group_name_H-M    'P1'
_symmetry_Int_Tables_number       1
_symmetry_cell_setting            triclinic
loop_
_symmetry_equiv_pos_as_xyz
  x,y,z
_cell_length_a                    16.9785
_cell_length_b                    16.8210
_cell_length_c                    16.7318
_cell_angle_alpha                 100.9500
_cell_angle_beta                  101.0350
_cell_angle_gamma                 101.2610
loop_
_atom_site_label
_atom_site_type_symbol
_atom_site_fract_x
_atom_site_fract_y
_atom_site_fract_z
_atom_site_U_iso_or_equiv
_atom_site_adp_type
_atom_site_occupancy
C1     C     0.76965   0.95320   0.43804   0.00000  Uiso   1.00
C2     C     0.75922   0.03120   0.40746   0.00000  Uiso   1.00
C3     C     0.77205   0.04732   0.33203   0.00000  Uiso   1.00
C4     C     0.75924   0.12226   0.31562   0.00000  Uiso   1.00
C5     C     0.74685   0.23476   0.25949   0.00000  Uiso   1.00
C6     C     0.83141   0.98378   0.52298   0.00000  Uiso   1.00
C7     C     0.90493   0.96002   0.54469   0.00000  Uiso   1.00
C8     C     0.95288   0.99504   0.62553   0.00000  Uiso   1.00
C9     C     0.05254   0.03387   0.74877   0.00000  Uiso   1.00
C10    C     0.68709   0.91619   0.45561   0.00000  Uiso   1.00
C11    C     0.63927   0.83559   0.42068   0.00000  Uiso   1.00
C12    C     0.56572   0.81370   0.44481   0.00000  Uiso   1.00
C13    C     0.44131   0.74758   0.46344   0.00000  Uiso   1.00
C14    C     0.72407   0.05762   0.54301   0.00000  Uiso   1.00
C15    C     0.73447   0.08791   0.46448   0.00000  Uiso   1.00
C16    C     0.72163   0.16285   0.44818   0.00000  Uiso   1.00
C17    C     0.73443   0.17908   0.37274   0.00000  Uiso   1.00
C18    C     0.80666   0.04049   0.58000   0.00000  Uiso   1.00
C19    C     0.85451   0.07555   0.66083   0.00000  Uiso   1.00
C20    C     0.92808   0.05185   0.68265   0.00000  Uiso   1.00
C21    C     0.66233   0.97290   0.51262   0.00000  Uiso   1.00
C22    C     0.58885   0.95112   0.53682   0.00000  Uiso   1.00
C23    C     0.54093   0.87051   0.50193   0.00000  Uiso   1.00
H24    H     0.78892   0.90905   0.39365   0.00000  Uiso   1.00
H25    H     0.79121   0.00342   0.28793   0.00000  Uiso   1.00
H26    H     0.92406   0.91612   0.50055   0.00000  Uiso   1.00
H27    H     0.65845   0.79172   0.37656   0.00000  Uiso   1.00
H28    H     0.78287   0.13307   0.19588   0.00000  Uiso   1.00
H29    H     0.06297   0.94899   0.64422   0.00000  Uiso   1.00
H30    H     0.50288   0.68665   0.38275   0.00000  Uiso   1.00
H31    H     0.70480   0.10177   0.58741   0.00000  Uiso   1.00
H32    H     0.70247   0.20672   0.49231   0.00000  Uiso   1.00
H33    H     0.83533   0.11943   0.70494   0.00000  Uiso   1.00
H34    H     0.56971   0.99503   0.58094   0.00000  Uiso   1.00
H35    H     0.71085   0.29809   0.36176   0.00000  Uiso   1.00
H36    H     0.99096   0.11399   0.81011   0.00000  Uiso   1.00
H37    H     0.43085   0.85167   0.54864   0.00000  Uiso   1.00
O38    O     0.74687   0.28116   0.21278   0.00000  Uiso   1.00
O39    O     0.11435   0.03962   0.80099   0.00000  Uiso   1.00
O40    O     0.37952   0.69546   0.45795   0.00000  Uiso   1.00
N41    N     0.76622   0.15750   0.24796   0.00000  Uiso   1.00
N42    N     0.02811   0.98540   0.66713   0.00000  Uiso   1.00
N43    N     0.50448   0.74013   0.42270   0.00000  Uiso   1.00
N44    N     0.72746   0.24629   0.33722   0.00000  Uiso   1.00
N45    N     0.98936   0.07419   0.75639   0.00000  Uiso   1.00
N46    N     0.46572   0.82892   0.51196   0.00000  Uiso   1.00
C47    C     0.44653   0.77369   0.95349   0.00000  Uiso   1.00
C48    C     0.41655   0.76298   0.03196   0.00000  Uiso   1.00
C49    C     0.34235   0.77597   0.04829   0.00000  Uiso   1.00
C50    C     0.32630   0.76285   0.12366   0.00000  Uiso   1.00
C51    C     0.27121   0.75009   0.23687   0.00000  Uiso   1.00
C52    C     0.53054   0.83589   0.98401   0.00000  Uiso   1.00
C53    C     0.55219   0.91019   0.96000   0.00000  Uiso   1.00
C54    C     0.63210   0.95844   0.99500   0.00000  Uiso   1.00
C55    C     0.75401   0.05886   0.03370   0.00000  Uiso   1.00
C56    C     0.46339   0.69039   0.91636   0.00000  Uiso   1.00
C57    C     0.42860   0.64235   0.83546   0.00000  Uiso   1.00
C58    C     0.45199   0.56810   0.81350   0.00000  Uiso   1.00
C59    C     0.46964   0.44260   0.74717   0.00000  Uiso   1.00
C60    C     0.54996   0.72727   0.05834   0.00000  Uiso   1.00
C61    C     0.47273   0.73777   0.08891   0.00000  Uiso   1.00
C62    C     0.45678   0.72461   0.16428   0.00000  Uiso   1.00
C63    C     0.38258   0.73758   0.18071   0.00000  Uiso   1.00
C64    C     0.58672   0.81068   0.04095   0.00000  Uiso   1.00
C65    C     0.66662   0.85883   0.07599   0.00000  Uiso   1.00
C66    C     0.68839   0.93318   0.05205   0.00000  Uiso   1.00
C67    C     0.51957   0.66517   0.97331   0.00000  Uiso   1.00
C68    C     0.54303   0.59099   0.95146   0.00000  Uiso   1.00
C69    C     0.50827   0.54284   0.87055   0.00000  Uiso   1.00
H70    H     0.40280   0.79332   0.90916   0.00000  Uiso   1.00
H71    H     0.29889   0.79549   0.00420   0.00000  Uiso   1.00
H72    H     0.50870   0.92968   0.91592   0.00000  Uiso   1.00
H73    H     0.38513   0.66188   0.79141   0.00000  Uiso   1.00
H74    H     0.20848   0.78681   0.13470   0.00000  Uiso   1.00
H75    H     0.65089   0.06974   0.94854   0.00000  Uiso   1.00
H76    H     0.39030   0.50503   0.68598   0.00000  Uiso   1.00
H77    H     0.59371   0.70764   0.10267   0.00000  Uiso   1.00
H78    H     0.50027   0.70510   0.20834   0.00000  Uiso   1.00
H79    H     0.71008   0.83929   0.12006   0.00000  Uiso   1.00
H80    H     0.58651   0.57150   0.99555   0.00000  Uiso   1.00
H81    H     0.37193   0.71345   0.30039   0.00000  Uiso   1.00
H82    H     0.81434   0.99638   0.11422   0.00000  Uiso   1.00
H83    H     0.55375   0.43167   0.85166   0.00000  Uiso   1.00
O84    O     0.22531   0.75004   0.28358   0.00000  Uiso   1.00
O85    O     0.80573   0.12122   0.03932   0.00000  Uiso   1.00
O86    O     0.46385   0.38034   0.69485   0.00000  Uiso   1.00
N87    N     0.25977   0.76988   0.15919   0.00000  Uiso   1.00
N88    N     0.67338   0.03440   0.98515   0.00000  Uiso   1.00
N89    N     0.42978   0.50646   0.73967   0.00000  Uiso   1.00
N90    N     0.34772   0.73040   0.24835   0.00000  Uiso   1.00
N91    N     0.76133   0.99493   0.07430   0.00000  Uiso   1.00
N92    N     0.51773   0.46699   0.82882   0.00000  Uiso   1.00
C93    C     0.95530   0.44134   0.77554   0.00000  Uiso   1.00
C94    C     0.03243   0.41100   0.76468   0.00000  Uiso   1.00
C95    C     0.04821   0.33601   0.77781   0.00000  Uiso   1.00
C96    C     0.12236   0.31975   0.76451   0.00000  Uiso   1.00
C97    C     0.23358   0.26403   0.75157   0.00000  Uiso   1.00
C98    C     0.98587   0.52598   0.83792   0.00000  Uiso   1.00
C99    C     0.96248   0.54767   0.91262   0.00000  Uiso   1.00
C100   C     0.99742   0.62822   0.96096   0.00000  Uiso   1.00
C101   C     0.03630   0.75103   0.06169   0.00000  Uiso   1.00
C102   C     0.91861   0.45863   0.69185   0.00000  Uiso   1.00
C103   C     0.83867   0.42370   0.64374   0.00000  Uiso   1.00
C104   C     0.81698   0.44755   0.56911   0.00000  Uiso   1.00
C105   C     0.75143   0.46579   0.44304   0.00000  Uiso   1.00
C106   C     0.05892   0.54581   0.72857   0.00000  Uiso   1.00
C107   C     0.08871   0.46775   0.73917   0.00000  Uiso   1.00
C108   C     0.16285   0.45160   0.72584   0.00000  Uiso   1.00
C109   C     0.17874   0.37660   0.73895   0.00000  Uiso   1.00
C110   C     0.04214   0.58273   0.81241   0.00000  Uiso   1.00
C111   C     0.07712   0.66326   0.86065   0.00000  Uiso   1.00
C112   C     0.05380   0.68507   0.93540   0.00000  Uiso   1.00
C113   C     0.97489   0.51538   0.66633   0.00000  Uiso   1.00
C114   C     0.95331   0.53929   0.59177   0.00000  Uiso   1.00
C115   C     0.87336   0.50441   0.54355   0.00000  Uiso   1.00
H116   H     0.91149   0.39716   0.79541   0.00000  Uiso   1.00
H117   H     0.00465   0.29211   0.79756   0.00000  Uiso   1.00
H118   H     0.91892   0.50375   0.93234   0.00000  Uiso   1.00
H119   H     0.79514   0.37979   0.66350   0.00000  Uiso   1.00
H120   H     0.13277   0.20069   0.78873   0.00000  Uiso   1.00
H121   H     0.95199   0.64694   0.07290   0.00000  Uiso   1.00
H122   H     0.69096   0.38556   0.50600   0.00000  Uiso   1.00
H123   H     0.10273   0.59000   0.70871   0.00000  Uiso   1.00
H124   H     0.20639   0.49553   0.70610   0.00000  Uiso   1.00
H125   H     0.12067   0.70716   0.84088   0.00000  Uiso   1.00
H126   H     0.99688   0.58321   0.57204   0.00000  Uiso   1.00
H127   H     0.29651   0.36579   0.71449   0.00000  Uiso   1.00
H128   H     0.11573   0.81204   0.99867   0.00000  Uiso   1.00
H129   H     0.85470   0.55066   0.43177   0.00000  Uiso   1.00
O130   O     0.27939   0.21763   0.75149   0.00000  Uiso   1.00
O131   O     0.04220   0.80309   0.12430   0.00000  Uiso   1.00
O132   O     0.69974   0.46016   0.38055   0.00000  Uiso   1.00
N133   N     0.15707   0.25250   0.77160   0.00000  Uiso   1.00
N134   N     0.98807   0.66972   0.03729   0.00000  Uiso   1.00
N135   N     0.74401   0.42536   0.50730   0.00000  Uiso   1.00
N136   N     0.24518   0.34134   0.73165   0.00000  Uiso   1.00
N137   N     0.07617   0.75855   0.99734   0.00000  Uiso   1.00
N138   N     0.83212   0.51420   0.46735   0.00000  Uiso   1.00
C139   C     0.23035   0.04680   0.56196   0.00000  Uiso   1.00
C140   C     0.24078   0.96880   0.59254   0.00000  Uiso   1.00
C141   C     0.22795   0.95268   0.66797   0.00000  Uiso   1.00
C142   C     0.24076   0.87774   0.68438   0.00000  Uiso   1.00
C143   C     0.25315   0.76524   0.74051   0.00000  Uiso   1.00
C144   C     0.16859   0.01622   0.47702   0.00000  Uiso   1.00
C145   C     0.09507   0.03998   0.45531   0.00000  Uiso   1.00
C146   C     0.04712   0.00496   0.37447   0.00000  Uiso   1.00
C147   C     0.94746   0.96613   0.25123   0.00000  Uiso   1.00
C148   C     0.31291   0.08381   0.54439   0.00000  Uiso   1.00
C149   C     0.36073   0.16441   0.57932   0.00000  Uiso   1.00
C150   C     0.43428   0.18630   0.55519   0.00000  Uiso   1.00
C151   C     0.55869   0.25242   0.53656   0.00000  Uiso   1.00
C152   C     0.27593   0.94238   0.45699   0.00000  Uiso   1.00
C153   C     0.26553   0.91209   0.53552   0.00000  Uiso   1.00
C154   C     0.27837   0.83715   0.55182   0.00000  Uiso   1.00
C155   C     0.26557   0.82092   0.62726   0.00000  Uiso   1.00
C156   C     0.19334   0.95951   0.42000   0.00000  Uiso   1.00
C157   C     0.14549   0.92445   0.33917   0.00000  Uiso   1.00
C158   C     0.07192   0.94815   0.31735   0.00000  Uiso   1.00
C159   C     0.33767   0.02710   0.48738   0.00000  Uiso   1.00
C160   C     0.41115   0.04888   0.46318   0.00000  Uiso   1.00
C161   C     0.45907   0.12949   0.49807   0.00000  Uiso   1.00
H162   H     0.21108   0.09095   0.60635   0.00000  Uiso   1.00
H163   H     0.20879   0.99658   0.71207   0.00000  Uiso   1.00
H164   H     0.07594   0.08388   0.49945   0.00000  Uiso   1.00
H165   H     0.34155   0.20828   0.62344   0.00000  Uiso   1.00
H166   H     0.21713   0.86693   0.80412   0.00000  Uiso   1.00
H167   H     0.93703   0.05101   0.35578   0.00000  Uiso   1.00
H168   H     0.49712   0.31335   0.61725   0.00000  Uiso   1.00
H169   H     0.29520   0.89823   0.41259   0.00000  Uiso   1.00
H170   H     0.29753   0.79328   0.50769   0.00000  Uiso   1.00
H171   H     0.16467   0.88057   0.29506   0.00000  Uiso   1.00
H172   H     0.43029   0.00497   0.41906   0.00000  Uiso   1.00
H173   H     0.28915   0.70191   0.63824   0.00000  Uiso   1.00
H174   H     0.00904   0.88601   0.18989   0.00000  Uiso   1.00
H175   H     0.56915   0.14833   0.45136   0.00000  Uiso   1.00
O176   O     0.25313   0.71884   0.78722   0.00000  Uiso   1.00
O177   O     0.88565   0.96038   0.19901   0.00000  Uiso   1.00
O178   O     0.62048   0.30454   0.54205   0.00000  Uiso   1.00
N179   N     0.23378   0.84250   0.75204   0.00000  Uiso   1.00
N180   N     0.97189   0.01460   0.33287   0.00000  Uiso   1.00
N181   N     0.49552   0.25987   0.57730   0.00000  Uiso   1.00
N182   N     0.27254   0.75371   0.66278   0.00000  Uiso   1.00
N183   N     0.01064   0.92581   0.24361   0.00000  Uiso   1.00
N184   N     0.53428   0.17108   0.48804   0.00000  Uiso   1.00
C185   C     0.55347   0.22631   0.04651   0.00000  Uiso   1.00
C186   C     0.58345   0.23702   0.96804   0.00000  Uiso   1.00
C187   C     0.65765   0.22403   0.95171   0.00000  Uiso   1.00
C188   C     0.67370   0.23715   0.87634   0.00000  Uiso   1.00
C189   C     0.72879   0.24991   0.76313   0.00000  Uiso   1.00
C190   C     0.46946   0.16411   0.01599   0.00000  Uiso   1.00
C191   C     0.44781   0.08981   0.04000   0.00000  Uiso   1.00
C192   C     0.36790   0.04156   0.00500   0.00000  Uiso   1.00
C193   C     0.24599   0.94114   0.96630   0.00000  Uiso   1.00
C194   C     0.53661   0.30961   0.08364   0.00000  Uiso   1.00
C195   C     0.57140   0.35765   0.16454   0.00000  Uiso   1.00
C196   C     0.54801   0.43190   0.18650   0.00000  Uiso   1.00
C197   C     0.53036   0.55740   0.25283   0.00000  Uiso   1.00
C198   C     0.45004   0.27273   0.94166   0.00000  Uiso   1.00
C199   C     0.52727   0.26223   0.91109   0.00000  Uiso   1.00
C200   C     0.54322   0.27539   0.83572   0.00000  Uiso   1.00
C201   C     0.61742   0.26242   0.81929   0.00000  Uiso   1.00
C202   C     0.41328   0.18932   0.95905   0.00000  Uiso   1.00
C203   C     0.33338   0.14117   0.92401   0.00000  Uiso   1.00
C204   C     0.31161   0.06682   0.94795   0.00000  Uiso   1.00
C205   C     0.48043   0.33483   0.02669   0.00000  Uiso   1.00
C206   C     0.45697   0.40901   0.04854   0.00000  Uiso   1.00
C207   C     0.49173   0.45716   0.12945   0.00000  Uiso   1.00
H208   H     0.59720   0.20668   0.09084   0.00000  Uiso   1.00
H209   H     0.70111   0.20451   0.99580   0.00000  Uiso   1.00
H210   H     0.49130   0.07032   0.08408   0.00000  Uiso   1.00
H211   H     0.61487   0.33812   0.20859   0.00000  Uiso   1.00
H212   H     0.79152   0.21319   0.86529   0.00000  Uiso   1.00
H213   H     0.34911   0.93026   0.05146   0.00000  Uiso   1.00
H214   H     0.60970   0.49497   0.31402   0.00000  Uiso   1.00
H215   H     0.40629   0.29236   0.89733   0.00000  Uiso   1.00
H216   H     0.49973   0.29490   0.79166   0.00000  Uiso   1.00
H217   H     0.28992   0.16071   0.87994   0.00000  Uiso   1.00
H218   H     0.41349   0.42850   0.00445   0.00000  Uiso   1.00
H219   H     0.62807   0.28655   0.69961   0.00000  Uiso   1.00
H220   H     0.18566   0.00362   0.88578   0.00000  Uiso   1.00
H221   H     0.44625   0.56833   0.14834   0.00000  Uiso   1.00
O222   O     0.77469   0.24996   0.71642   0.00000  Uiso   1.00
O223   O     0.19427   0.87878   0.96068   0.00000  Uiso   1.00
O224   O     0.53615   0.61966   0.30515   0.00000  Uiso   1.00
N225   N     0.74023   0.23012   0.84081   0.00000  Uiso   1.00
N226   N     0.32662   0.96560   0.01485   0.00000  Uiso   1.00
N227   N     0.57022   0.49354   0.26033   0.00000  Uiso   1.00
N228   N     0.65228   0.26960   0.75165   0.00000  Uiso   1.00
N229   N     0.23867   0.00507   0.92570   0.00000  Uiso   1.00
N230   N     0.48227   0.53301   0.17118   0.00000  Uiso   1.00
C231   C     0.04470   0.55866   0.22446   0.00000  Uiso   1.00
C232   C     0.96757   0.58900   0.23532   0.00000  Uiso   1.00
C233   C     0.95179   0.66399   0.22219   0.00000  Uiso   1.00
C234   C     0.87764   0.68025   0.23549   0.00000  Uiso   1.00
C235   C     0.76642   0.73597   0.24843   0.00000  Uiso   1.00
C236   C     0.01413   0.47402   0.16208   0.00000  Uiso   1.00
C237   C     0.03752   0.45233   0.08738   0.00000  Uiso   1.00
C238   C     0.00258   0.37178   0.03904   0.00000  Uiso   1.00
C239   C     0.96370   0.24897   0.93832   0.00000  Uiso   1.00
C240   C     0.08139   0.54137   0.30815   0.00000  Uiso   1.00
C241   C     0.16133   0.57630   0.35626   0.00000  Uiso   1.00
C242   C     0.18302   0.55245   0.43089   0.00000  Uiso   1.00
C243   C     0.24857   0.53421   0.55696   0.00000  Uiso   1.00
C244   C     0.94108   0.45419   0.27143   0.00000  Uiso   1.00
C245   C     0.91129   0.53225   0.26083   0.00000  Uiso   1.00
C246   C     0.83715   0.54840   0.27416   0.00000  Uiso   1.00
C247   C     0.82126   0.62340   0.26105   0.00000  Uiso   1.00
C248   C     0.95786   0.41727   0.18759   0.00000  Uiso   1.00
C249   C     0.92288   0.33674   0.13935   0.00000  Uiso   1.00
C250   C     0.94620   0.31493   0.06460   0.00000  Uiso   1.00
C251   C     0.02511   0.48462   0.33367   0.00000  Uiso   1.00
C252   C     0.04669   0.46071   0.40823   0.00000  Uiso   1.00
C253   C     0.12664   0.49559   0.45645   0.00000  Uiso   1.00
H254   H     0.08851   0.60284   0.20459   0.00000  Uiso   1.00
H255   H     0.99535   0.70789   0.20244   0.00000  Uiso   1.00
H256   H     0.08108   0.49625   0.06766   0.00000  Uiso   1.00
H257   H     0.20486   0.62021   0.33650   0.00000  Uiso   1.00
H258   H     0.86723   0.79931   0.21127   0.00000  Uiso   1.00
H259   H     0.04801   0.35306   0.92710   0.00000  Uiso   1.00
H260   H     0.30904   0.61444   0.49400   0.00000  Uiso   1.00
H261   H     0.89727   0.41000   0.29129   0.00000  Uiso   1.00
H262   H     0.79361   0.50447   0.29390   0.00000  Uiso   1.00
H263   H     0.87933   0.29284   0.15912   0.00000  Uiso   1.00
H264   H     0.00312   0.41679   0.42796   0.00000  Uiso   1.00
H265   H     0.70349   0.63421   0.28551   0.00000  Uiso   1.00
H266   H     0.88427   0.18796   0.00133   0.00000  Uiso   1.00
H267   H     0.14530   0.44934   0.56823   0.00000  Uiso   1.00
O268   O     0.72061   0.78237   0.24851   0.00000  Uiso   1.00
O269   O     0.95780   0.19691   0.87570   0.00000  Uiso   1.00
O270   O     0.30026   0.53984   0.61945   0.00000  Uiso   1.00
N271   N     0.84293   0.74750   0.22840   0.00000  Uiso   1.00
N272   N     0.01193   0.33028   0.96271   0.00000  Uiso   1.00
N273   N     0.25599   0.57464   0.49270   0.00000  Uiso   1.00
N274   N     0.75482   0.65866   0.26835   0.00000  Uiso   1.00
N275   N     0.92383   0.24145   0.00266   0.00000  Uiso   1.00
N276   N     0.16788   0.48580   0.53265   0.00000  Uiso   1.00
