data_job_04009
_audit_creation_date              2018-12-19
_audit_creation_method            'Materials Studio'
_symmetry_space_group_name_H-M    'P1'
_symmetry_Int_Tables_number       1
_symmetry_cell_setting            triclinic
loop_
_symmetry_equiv_pos_as_xyz
  x,y,z
_cell_length_a                    13.6196
_cell_length_b                    13.6196
_cell_length_c                    32.2625
_cell_angle_alpha                 90.0000
_cell_angle_beta                  90.0000
_cell_angle_gamma                 120.0000
loop_
_atom_site_label
_atom_site_type_symbol
_atom_site_fract_x
_atom_site_fract_y
_atom_site_fract_z
_atom_site_U_iso_or_equiv
_atom_site_adp_type
_atom_site_occupancy
C1     C     0.40135   0.09937   0.29944   0.00000  Uiso   1.00
C2     C     0.32252   0.98826   0.27736   0.00000  Uiso   1.00
C3     C     0.33876   0.89575   0.27406   0.00000  Uiso   1.00
C4     C     0.25694   0.80205   0.25260   0.00000  Uiso   1.00
C5     C     0.14896   0.62970   0.22096   0.00000  Uiso   1.00
C6     C     0.43354   0.19272   0.26731   0.00000  Uiso   1.00
C7     C     0.54311   0.27214   0.25558   0.00000  Uiso   1.00
C8     C     0.55474   0.35057   0.22567   0.00000  Uiso   1.00
C9     C     0.61912   0.49571   0.17847   0.00000  Uiso   1.00
C10    C     0.32864   0.11581   0.33154   0.00000  Uiso   1.00
C11    C     0.35002   0.13059   0.37380   0.00000  Uiso   1.00
C12    C     0.27335   0.14429   0.39797   0.00000  Uiso   1.00
C13    C     0.17485   0.17001   0.45048   0.00000  Uiso   1.00
C14    C     0.22718   0.09744   0.26719   0.00000  Uiso   1.00
C15    C     0.22792   0.98722   0.25984   0.00000  Uiso   1.00
C16    C     0.14605   0.89362   0.23839   0.00000  Uiso   1.00
C17    C     0.16216   0.80100   0.23506   0.00000  Uiso   1.00
C18    C     0.33894   0.19168   0.24980   0.00000  Uiso   1.00
C19    C     0.35041   0.27001   0.21991   0.00000  Uiso   1.00
C20    C     0.45997   0.34952   0.20813   0.00000  Uiso   1.00
C21    C     0.23403   0.11476   0.31403   0.00000  Uiso   1.00
C22    C     0.15732   0.12845   0.33813   0.00000  Uiso   1.00
C23    C     0.17858   0.14324   0.38042   0.00000  Uiso   1.00
H24    H     0.47501   0.10019   0.31307   0.00000  Uiso   1.00
H25    H     0.41199   0.89660   0.28761   0.00000  Uiso   1.00
H26    H     0.61630   0.27294   0.26914   0.00000  Uiso   1.00
H27    H     0.42324   0.13140   0.38734   0.00000  Uiso   1.00
H28    H     0.30041   0.67044   0.25166   0.00000  Uiso   1.00
H29    H     0.73123   0.46399   0.21271   0.00000  Uiso   1.00
H30    H     0.32413   0.16553   0.46197   0.00000  Uiso   1.00
H31    H     0.15353   0.09663   0.25356   0.00000  Uiso   1.00
H32    H     0.07286   0.89284   0.22484   0.00000  Uiso   1.00
H33    H     0.27718   0.26918   0.20636   0.00000  Uiso   1.00
H34    H     0.08412   0.12764   0.32457   0.00000  Uiso   1.00
H35    H     0.02517   0.66739   0.20070   0.00000  Uiso   1.00
H36    H     0.45599   0.46094   0.16176   0.00000  Uiso   1.00
H37    H     0.04888   0.16248   0.41102   0.00000  Uiso   1.00
O38    O     0.11555   0.53493   0.20835   0.00000  Uiso   1.00
O39    O     0.68076   0.57605   0.15726   0.00000  Uiso   1.00
O40    O     0.14665   0.18447   0.48428   0.00000  Uiso   1.00
N41    N     0.24669   0.69768   0.24361   0.00000  Uiso   1.00
N42    N     0.64948   0.43959   0.20720   0.00000  Uiso   1.00
N43    N     0.26889   0.16058   0.44023   0.00000  Uiso   1.00
N44    N     0.09858   0.69604   0.21619   0.00000  Uiso   1.00
N45    N     0.50138   0.43795   0.17978   0.00000  Uiso   1.00
N46    N     0.12078   0.15894   0.41281   0.00000  Uiso   1.00
C47    C     0.90063   0.30198   0.63277   0.00000  Uiso   1.00
C48    C     0.01174   0.33427   0.61069   0.00000  Uiso   1.00
C49    C     0.10425   0.44300   0.60739   0.00000  Uiso   1.00
C50    C     0.19795   0.45489   0.58594   0.00000  Uiso   1.00
C51    C     0.37030   0.51926   0.55430   0.00000  Uiso   1.00
C52    C     0.80728   0.24081   0.60065   0.00000  Uiso   1.00
C53    C     0.72786   0.27097   0.58891   0.00000  Uiso   1.00
C54    C     0.64943   0.20417   0.55901   0.00000  Uiso   1.00
C55    C     0.50429   0.12340   0.51180   0.00000  Uiso   1.00
C56    C     0.88419   0.21283   0.66487   0.00000  Uiso   1.00
C57    C     0.86941   0.21943   0.70714   0.00000  Uiso   1.00
C58    C     0.85571   0.12906   0.73130   0.00000  Uiso   1.00
C59    C     0.82999   0.00485   0.78381   0.00000  Uiso   1.00
C60    C     0.90256   0.12974   0.60053   0.00000  Uiso   1.00
C61    C     0.01278   0.24071   0.59318   0.00000  Uiso   1.00
C62    C     0.10638   0.25243   0.57172   0.00000  Uiso   1.00
C63    C     0.19900   0.36117   0.56839   0.00000  Uiso   1.00
C64    C     0.80832   0.14726   0.58313   0.00000  Uiso   1.00
C65    C     0.72999   0.08040   0.55324   0.00000  Uiso   1.00
C66    C     0.65048   0.11045   0.54146   0.00000  Uiso   1.00
C67    C     0.88524   0.11927   0.64736   0.00000  Uiso   1.00
C68    C     0.87155   0.02887   0.67146   0.00000  Uiso   1.00
C69    C     0.85676   0.03534   0.71375   0.00000  Uiso   1.00
H70    H     0.89981   0.37482   0.64640   0.00000  Uiso   1.00
H71    H     0.10340   0.51538   0.62095   0.00000  Uiso   1.00
H72    H     0.72706   0.34336   0.60247   0.00000  Uiso   1.00
H73    H     0.86860   0.29184   0.72068   0.00000  Uiso   1.00
H74    H     0.32956   0.62998   0.58499   0.00000  Uiso   1.00
H75    H     0.53601   0.26724   0.54605   0.00000  Uiso   1.00
H76    H     0.83447   0.15860   0.79530   0.00000  Uiso   1.00
H77    H     0.90337   0.05689   0.58689   0.00000  Uiso   1.00
H78    H     0.10716   0.18002   0.55817   0.00000  Uiso   1.00
H79    H     0.73082   0.00800   0.53969   0.00000  Uiso   1.00
H80    H     0.87236   0.95648   0.65790   0.00000  Uiso   1.00
H81    H     0.33261   0.35778   0.53403   0.00000  Uiso   1.00
H82    H     0.53906   0.99505   0.49509   0.00000  Uiso   1.00
H83    H     0.83752   0.88641   0.74435   0.00000  Uiso   1.00
O84    O     0.46507   0.58061   0.54168   0.00000  Uiso   1.00
O85    O     0.42395   0.10471   0.49060   0.00000  Uiso   1.00
O86    O     0.81553   0.96218   0.81761   0.00000  Uiso   1.00
N87    N     0.30232   0.54901   0.57695   0.00000  Uiso   1.00
N88    N     0.56041   0.20989   0.54053   0.00000  Uiso   1.00
N89    N     0.83942   0.10831   0.77356   0.00000  Uiso   1.00
N90    N     0.30396   0.40255   0.54953   0.00000  Uiso   1.00
N91    N     0.56205   0.06343   0.51311   0.00000  Uiso   1.00
N92    N     0.84106   0.96184   0.74615   0.00000  Uiso   1.00
C93    C     0.69802   0.59865   0.96610   0.00000  Uiso   1.00
C94    C     0.66573   0.67748   0.94402   0.00000  Uiso   1.00
C95    C     0.55700   0.66124   0.94073   0.00000  Uiso   1.00
C96    C     0.54511   0.74306   0.91927   0.00000  Uiso   1.00
C97    C     0.48074   0.85104   0.88763   0.00000  Uiso   1.00
C98    C     0.75919   0.56646   0.93398   0.00000  Uiso   1.00
C99    C     0.72903   0.45689   0.92225   0.00000  Uiso   1.00
C100   C     0.79583   0.44526   0.89234   0.00000  Uiso   1.00
C101   C     0.87660   0.38088   0.84513   0.00000  Uiso   1.00
C102   C     0.78717   0.67136   0.99820   0.00000  Uiso   1.00
C103   C     0.78057   0.64998   0.04047   0.00000  Uiso   1.00
C104   C     0.87094   0.72665   0.06463   0.00000  Uiso   1.00
C105   C     0.99515   0.82515   0.11714   0.00000  Uiso   1.00
C106   C     0.87026   0.77282   0.93386   0.00000  Uiso   1.00
C107   C     0.75929   0.77208   0.92651   0.00000  Uiso   1.00
C108   C     0.74757   0.85395   0.90505   0.00000  Uiso   1.00
C109   C     0.63883   0.83784   0.90173   0.00000  Uiso   1.00
C110   C     0.85274   0.66106   0.91647   0.00000  Uiso   1.00
C111   C     0.91960   0.64959   0.88657   0.00000  Uiso   1.00
C112   C     0.88955   0.54003   0.87479   0.00000  Uiso   1.00
C113   C     0.88073   0.76597   0.98069   0.00000  Uiso   1.00
C114   C     0.97113   0.84268   0.00479   0.00000  Uiso   1.00
C115   C     0.96466   0.82142   0.04709   0.00000  Uiso   1.00
H116   H     0.62518   0.52499   0.97974   0.00000  Uiso   1.00
H117   H     0.48462   0.58801   0.95428   0.00000  Uiso   1.00
H118   H     0.65664   0.38370   0.93581   0.00000  Uiso   1.00
H119   H     0.70816   0.57676   0.05401   0.00000  Uiso   1.00
H120   H     0.37002   0.69959   0.91832   0.00000  Uiso   1.00
H121   H     0.73276   0.26877   0.87938   0.00000  Uiso   1.00
H122   H     0.84140   0.67587   0.12864   0.00000  Uiso   1.00
H123   H     0.94311   0.84647   0.92022   0.00000  Uiso   1.00
H124   H     0.81998   0.92714   0.89150   0.00000  Uiso   1.00
H125   H     0.99200   0.72282   0.87303   0.00000  Uiso   1.00
H126   H     0.04352   0.91588   0.99123   0.00000  Uiso   1.00
H127   H     0.64222   0.97483   0.86737   0.00000  Uiso   1.00
H128   H     0.00495   0.54401   0.82843   0.00000  Uiso   1.00
H129   H     0.11359   0.95112   0.07768   0.00000  Uiso   1.00
O130   O     0.41939   0.88445   0.87501   0.00000  Uiso   1.00
O131   O     0.89529   0.31924   0.82393   0.00000  Uiso   1.00
O132   O     0.03782   0.85335   0.15095   0.00000  Uiso   1.00
N133   N     0.45099   0.75331   0.91028   0.00000  Uiso   1.00
N134   N     0.79011   0.35052   0.87386   0.00000  Uiso   1.00
N135   N     0.89169   0.73111   0.10690   0.00000  Uiso   1.00
N136   N     0.59745   0.90142   0.88286   0.00000  Uiso   1.00
N137   N     0.93657   0.49862   0.84645   0.00000  Uiso   1.00
N138   N     0.03816   0.87922   0.07948   0.00000  Uiso   1.00
C139   C     0.90063   0.59865   0.36723   0.00000  Uiso   1.00
C140   C     0.01174   0.67748   0.38931   0.00000  Uiso   1.00
C141   C     0.10425   0.66124   0.39261   0.00000  Uiso   1.00
C142   C     0.19795   0.74306   0.41406   0.00000  Uiso   1.00
C143   C     0.37030   0.85104   0.44570   0.00000  Uiso   1.00
C144   C     0.80728   0.56646   0.39935   0.00000  Uiso   1.00
C145   C     0.72786   0.45689   0.41109   0.00000  Uiso   1.00
C146   C     0.64943   0.44526   0.44099   0.00000  Uiso   1.00
C147   C     0.50429   0.38088   0.48820   0.00000  Uiso   1.00
C148   C     0.88419   0.67136   0.33513   0.00000  Uiso   1.00
C149   C     0.86941   0.64998   0.29286   0.00000  Uiso   1.00
C150   C     0.85571   0.72665   0.26870   0.00000  Uiso   1.00
C151   C     0.82999   0.82515   0.21619   0.00000  Uiso   1.00
C152   C     0.90256   0.77282   0.39947   0.00000  Uiso   1.00
C153   C     0.01278   0.77208   0.40682   0.00000  Uiso   1.00
C154   C     0.10638   0.85395   0.42828   0.00000  Uiso   1.00
C155   C     0.19900   0.83784   0.43161   0.00000  Uiso   1.00
C156   C     0.80832   0.66106   0.41687   0.00000  Uiso   1.00
C157   C     0.72999   0.64959   0.44676   0.00000  Uiso   1.00
C158   C     0.65048   0.54003   0.45854   0.00000  Uiso   1.00
C159   C     0.88524   0.76597   0.35264   0.00000  Uiso   1.00
C160   C     0.87155   0.84268   0.32854   0.00000  Uiso   1.00
C161   C     0.85676   0.82142   0.28625   0.00000  Uiso   1.00
H162   H     0.89981   0.52499   0.35360   0.00000  Uiso   1.00
H163   H     0.10340   0.58801   0.37905   0.00000  Uiso   1.00
H164   H     0.72706   0.38370   0.39753   0.00000  Uiso   1.00
H165   H     0.86860   0.57676   0.27932   0.00000  Uiso   1.00
H166   H     0.32956   0.69959   0.41501   0.00000  Uiso   1.00
H167   H     0.53601   0.26877   0.45395   0.00000  Uiso   1.00
H168   H     0.83447   0.67587   0.20470   0.00000  Uiso   1.00
H169   H     0.90337   0.84647   0.41311   0.00000  Uiso   1.00
H170   H     0.10716   0.92714   0.44183   0.00000  Uiso   1.00
H171   H     0.73082   0.72282   0.46031   0.00000  Uiso   1.00
H172   H     0.87236   0.91588   0.34210   0.00000  Uiso   1.00
H173   H     0.33261   0.97483   0.46597   0.00000  Uiso   1.00
H174   H     0.53906   0.54401   0.50491   0.00000  Uiso   1.00
H175   H     0.83752   0.95112   0.25565   0.00000  Uiso   1.00
O176   O     0.46507   0.88445   0.45832   0.00000  Uiso   1.00
O177   O     0.42395   0.31924   0.50940   0.00000  Uiso   1.00
O178   O     0.81553   0.85335   0.18239   0.00000  Uiso   1.00
N179   N     0.30232   0.75331   0.42305   0.00000  Uiso   1.00
N180   N     0.56041   0.35052   0.45947   0.00000  Uiso   1.00
N181   N     0.83942   0.73111   0.22644   0.00000  Uiso   1.00
N182   N     0.30396   0.90142   0.45047   0.00000  Uiso   1.00
N183   N     0.56205   0.49862   0.48689   0.00000  Uiso   1.00
N184   N     0.84106   0.87922   0.25385   0.00000  Uiso   1.00
C185   C     0.69802   0.09937   0.03390   0.00000  Uiso   1.00
C186   C     0.66573   0.98826   0.05598   0.00000  Uiso   1.00
C187   C     0.55700   0.89575   0.05927   0.00000  Uiso   1.00
C188   C     0.54511   0.80205   0.08073   0.00000  Uiso   1.00
C189   C     0.48074   0.62970   0.11237   0.00000  Uiso   1.00
C190   C     0.75919   0.19272   0.06602   0.00000  Uiso   1.00
C191   C     0.72903   0.27214   0.07775   0.00000  Uiso   1.00
C192   C     0.79583   0.35057   0.10766   0.00000  Uiso   1.00
C193   C     0.87660   0.49571   0.15487   0.00000  Uiso   1.00
C194   C     0.78717   0.11581   0.00180   0.00000  Uiso   1.00
C195   C     0.78057   0.13059   0.95953   0.00000  Uiso   1.00
C196   C     0.87094   0.14429   0.93537   0.00000  Uiso   1.00
C197   C     0.99515   0.17001   0.88286   0.00000  Uiso   1.00
C198   C     0.87026   0.09744   0.06614   0.00000  Uiso   1.00
C199   C     0.75929   0.98722   0.07349   0.00000  Uiso   1.00
C200   C     0.74757   0.89362   0.09495   0.00000  Uiso   1.00
C201   C     0.63883   0.80100   0.09827   0.00000  Uiso   1.00
C202   C     0.85274   0.19168   0.08353   0.00000  Uiso   1.00
C203   C     0.91960   0.27001   0.11343   0.00000  Uiso   1.00
C204   C     0.88955   0.34952   0.12521   0.00000  Uiso   1.00
C205   C     0.88073   0.11476   0.01931   0.00000  Uiso   1.00
C206   C     0.97113   0.12845   0.99521   0.00000  Uiso   1.00
C207   C     0.96466   0.14324   0.95291   0.00000  Uiso   1.00
H208   H     0.62518   0.10019   0.02026   0.00000  Uiso   1.00
H209   H     0.48462   0.89660   0.04572   0.00000  Uiso   1.00
H210   H     0.65664   0.27294   0.06419   0.00000  Uiso   1.00
H211   H     0.70816   0.13140   0.94599   0.00000  Uiso   1.00
H212   H     0.37002   0.67044   0.08168   0.00000  Uiso   1.00
H213   H     0.73276   0.46399   0.12062   0.00000  Uiso   1.00
H214   H     0.84140   0.16553   0.87136   0.00000  Uiso   1.00
H215   H     0.94311   0.09663   0.07978   0.00000  Uiso   1.00
H216   H     0.81998   0.89284   0.10850   0.00000  Uiso   1.00
H217   H     0.99200   0.26918   0.12697   0.00000  Uiso   1.00
H218   H     0.04352   0.12764   0.00877   0.00000  Uiso   1.00
H219   H     0.64222   0.66739   0.13263   0.00000  Uiso   1.00
H220   H     0.00495   0.46094   0.17157   0.00000  Uiso   1.00
H221   H     0.11359   0.16248   0.92232   0.00000  Uiso   1.00
O222   O     0.41939   0.53493   0.12499   0.00000  Uiso   1.00
O223   O     0.89529   0.57605   0.17607   0.00000  Uiso   1.00
O224   O     0.03782   0.18447   0.84905   0.00000  Uiso   1.00
N225   N     0.45099   0.69768   0.08972   0.00000  Uiso   1.00
N226   N     0.79011   0.43959   0.12614   0.00000  Uiso   1.00
N227   N     0.89169   0.16058   0.89310   0.00000  Uiso   1.00
N228   N     0.59745   0.69604   0.11714   0.00000  Uiso   1.00
N229   N     0.93657   0.43795   0.15355   0.00000  Uiso   1.00
N230   N     0.03816   0.15894   0.92052   0.00000  Uiso   1.00
C231   C     0.40135   0.30198   0.70056   0.00000  Uiso   1.00
C232   C     0.32252   0.33427   0.72264   0.00000  Uiso   1.00
C233   C     0.33876   0.44300   0.72594   0.00000  Uiso   1.00
C234   C     0.25694   0.45489   0.74740   0.00000  Uiso   1.00
C235   C     0.14896   0.51926   0.77904   0.00000  Uiso   1.00
C236   C     0.43354   0.24081   0.73269   0.00000  Uiso   1.00
C237   C     0.54311   0.27097   0.74442   0.00000  Uiso   1.00
C238   C     0.55474   0.20417   0.77433   0.00000  Uiso   1.00
C239   C     0.61912   0.12340   0.82153   0.00000  Uiso   1.00
C240   C     0.32864   0.21283   0.66846   0.00000  Uiso   1.00
C241   C     0.35002   0.21943   0.62620   0.00000  Uiso   1.00
C242   C     0.27335   0.12906   0.60203   0.00000  Uiso   1.00
C243   C     0.17485   0.00485   0.54952   0.00000  Uiso   1.00
C244   C     0.22718   0.12974   0.73281   0.00000  Uiso   1.00
C245   C     0.22792   0.24071   0.74016   0.00000  Uiso   1.00
C246   C     0.14605   0.25243   0.76161   0.00000  Uiso   1.00
C247   C     0.16216   0.36117   0.76494   0.00000  Uiso   1.00
C248   C     0.33894   0.14726   0.75020   0.00000  Uiso   1.00
C249   C     0.35041   0.08040   0.78009   0.00000  Uiso   1.00
C250   C     0.45997   0.11045   0.79187   0.00000  Uiso   1.00
C251   C     0.23403   0.11927   0.68597   0.00000  Uiso   1.00
C252   C     0.15732   0.02887   0.66187   0.00000  Uiso   1.00
C253   C     0.17858   0.03534   0.61958   0.00000  Uiso   1.00
H254   H     0.47501   0.37482   0.68693   0.00000  Uiso   1.00
H255   H     0.41199   0.51538   0.71239   0.00000  Uiso   1.00
H256   H     0.61630   0.34336   0.73086   0.00000  Uiso   1.00
H257   H     0.42324   0.29184   0.61266   0.00000  Uiso   1.00
H258   H     0.30041   0.62998   0.74834   0.00000  Uiso   1.00
H259   H     0.73123   0.26724   0.78729   0.00000  Uiso   1.00
H260   H     0.32413   0.15860   0.53803   0.00000  Uiso   1.00
H261   H     0.15353   0.05689   0.74644   0.00000  Uiso   1.00
H262   H     0.07286   0.18002   0.77516   0.00000  Uiso   1.00
H263   H     0.27718   0.00800   0.79364   0.00000  Uiso   1.00
H264   H     0.08412   0.95648   0.67543   0.00000  Uiso   1.00
H265   H     0.02517   0.35778   0.79930   0.00000  Uiso   1.00
H266   H     0.45599   0.99505   0.83824   0.00000  Uiso   1.00
H267   H     0.04888   0.88641   0.58898   0.00000  Uiso   1.00
O268   O     0.11555   0.58061   0.79165   0.00000  Uiso   1.00
O269   O     0.68076   0.10471   0.84274   0.00000  Uiso   1.00
O270   O     0.14665   0.96218   0.51572   0.00000  Uiso   1.00
N271   N     0.24669   0.54901   0.75639   0.00000  Uiso   1.00
N272   N     0.64948   0.20989   0.79280   0.00000  Uiso   1.00
N273   N     0.26889   0.10831   0.55977   0.00000  Uiso   1.00
N274   N     0.09858   0.40255   0.78381   0.00000  Uiso   1.00
N275   N     0.50138   0.06343   0.82022   0.00000  Uiso   1.00
N276   N     0.12078   0.96184   0.58719   0.00000  Uiso   1.00
