data_job_06948
_audit_creation_date              2018-12-19
_audit_creation_method            'Materials Studio'
_symmetry_space_group_name_H-M    'P1'
_symmetry_Int_Tables_number       1
_symmetry_cell_setting            triclinic
loop_
_symmetry_equiv_pos_as_xyz
  x,y,z
_cell_length_a                    19.9835
_cell_length_b                    21.8480
_cell_length_c                    20.9399
_cell_angle_alpha                 104.6630
_cell_angle_beta                  83.8334
_cell_angle_gamma                 80.0135
loop_
_atom_site_label
_atom_site_type_symbol
_atom_site_fract_x
_atom_site_fract_y
_atom_site_fract_z
_atom_site_U_iso_or_equiv
_atom_site_adp_type
_atom_site_occupancy
C1     C     0.85423   0.60368   0.44303   0.00000  Uiso   1.00
C2     C     0.90074   0.56346   0.37809   0.00000  Uiso   1.00
C3     C     0.88491   0.51302   0.33096   0.00000  Uiso   1.00
C4     C     0.93437   0.48227   0.27489   0.00000  Uiso   1.00
C5     C     0.99701   0.41689   0.17538   0.00000  Uiso   1.00
C6     C     0.89576   0.59769   0.49895   0.00000  Uiso   1.00
C7     C     0.87574   0.57604   0.55343   0.00000  Uiso   1.00
C8     C     0.92100   0.57410   0.59910   0.00000  Uiso   1.00
C9     C     0.97589   0.56191   0.68724   0.00000  Uiso   1.00
C10    C     0.84568   0.67393   0.44127   0.00000  Uiso   1.00
C11    C     0.78355   0.71640   0.44727   0.00000  Uiso   1.00
C12    C     0.78665   0.77866   0.44440   0.00000  Uiso   1.00
C13    C     0.76379   0.88485   0.44298   0.00000  Uiso   1.00
C14    C     0.97022   0.63875   0.42728   0.00000  Uiso   1.00
C15    C     0.96374   0.58251   0.36954   0.00000  Uiso   1.00
C16    C     0.01323   0.55182   0.31353   0.00000  Uiso   1.00
C17    C     0.99748   0.50135   0.26632   0.00000  Uiso   1.00
C18    C     0.95876   0.61673   0.49039   0.00000  Uiso   1.00
C19    C     0.00406   0.61484   0.53600   0.00000  Uiso   1.00
C20    C     0.98412   0.59318   0.59053   0.00000  Uiso   1.00
C21    C     0.90868   0.69298   0.43271   0.00000  Uiso   1.00
C22    C     0.91188   0.75519   0.42984   0.00000  Uiso   1.00
C23    C     0.84977   0.79774   0.43583   0.00000  Uiso   1.00
H24    H     0.80519   0.58885   0.44970   0.00000  Uiso   1.00
H25    H     0.83615   0.49829   0.33760   0.00000  Uiso   1.00
H26    H     0.82698   0.56130   0.56004   0.00000  Uiso   1.00
H27    H     0.73481   0.70164   0.45389   0.00000  Uiso   1.00
H28    H     0.89828   0.40627   0.20956   0.00000  Uiso   1.00
H29    H     0.87892   0.53916   0.67859   0.00000  Uiso   1.00
H30    H     0.68457   0.83508   0.45477   0.00000  Uiso   1.00
H31    H     0.01927   0.65358   0.42062   0.00000  Uiso   1.00
H32    H     0.06198   0.56657   0.30692   0.00000  Uiso   1.00
H33    H     0.05281   0.62958   0.52936   0.00000  Uiso   1.00
H34    H     0.96064   0.76992   0.42322   0.00000  Uiso   1.00
H35    H     0.08157   0.46169   0.18466   0.00000  Uiso   1.00
H36    H     0.06221   0.59458   0.65370   0.00000  Uiso   1.00
H37    H     0.86786   0.89050   0.42987   0.00000  Uiso   1.00
O38    O     0.01417   0.37556   0.12285   0.00000  Uiso   1.00
O39    O     0.98877   0.54991   0.73821   0.00000  Uiso   1.00
O40    O     0.73378   0.93816   0.44456   0.00000  Uiso   1.00
N41    N     0.93555   0.43126   0.21930   0.00000  Uiso   1.00
N42    N     0.91746   0.55549   0.65781   0.00000  Uiso   1.00
N43    N     0.73575   0.83216   0.44857   0.00000  Uiso   1.00
N44    N     0.03417   0.46108   0.20590   0.00000  Uiso   1.00
N45    N     0.01609   0.58531   0.64441   0.00000  Uiso   1.00
N46    N     0.83438   0.86198   0.43517   0.00000  Uiso   1.00
C47    C     0.55314   0.84786   0.65576   0.00000  Uiso   1.00
C48    C     0.51656   0.85606   0.59725   0.00000  Uiso   1.00
C49    C     0.48849   0.80951   0.55696   0.00000  Uiso   1.00
C50    C     0.45721   0.82642   0.50602   0.00000  Uiso   1.00
C51    C     0.40092   0.82981   0.41670   0.00000  Uiso   1.00
C52    C     0.62416   0.86242   0.64080   0.00000  Uiso   1.00
C53    C     0.68656   0.82123   0.63714   0.00000  Uiso   1.00
C54    C     0.74586   0.84350   0.62287   0.00000  Uiso   1.00
C55    C     0.85662   0.85679   0.60122   0.00000  Uiso   1.00
C56    C     0.51482   0.90242   0.71633   0.00000  Uiso   1.00
C57    C     0.48530   0.89485   0.77619   0.00000  Uiso   1.00
C58    C     0.45255   0.95081   0.82552   0.00000  Uiso   1.00
C59    C     0.39354   0.02619   0.92115   0.00000  Uiso   1.00
C60    C     0.54749   0.96068   0.63695   0.00000  Uiso   1.00
C61    C     0.51350   0.91734   0.58703   0.00000  Uiso   1.00
C62    C     0.48225   0.93433   0.53615   0.00000  Uiso   1.00
C63    C     0.45414   0.88781   0.49579   0.00000  Uiso   1.00
C64    C     0.62110   0.92370   0.63058   0.00000  Uiso   1.00
C65    C     0.68032   0.94604   0.61633   0.00000  Uiso   1.00
C66    C     0.74279   0.90489   0.61264   0.00000  Uiso   1.00
C67    C     0.51175   0.96370   0.70612   0.00000  Uiso   1.00
C68    C     0.47905   0.01967   0.75537   0.00000  Uiso   1.00
C69    C     0.44948   0.01219   0.81529   0.00000  Uiso   1.00
H70    H     0.55553   0.80016   0.66371   0.00000  Uiso   1.00
H71    H     0.49088   0.76209   0.56487   0.00000  Uiso   1.00
H72    H     0.68892   0.77381   0.64505   0.00000  Uiso   1.00
H73    H     0.48768   0.84743   0.78407   0.00000  Uiso   1.00
H74    H     0.41788   0.74690   0.45077   0.00000  Uiso   1.00
H75    H     0.83545   0.77162   0.61985   0.00000  Uiso   1.00
H76    H     0.41111   0.92686   0.91302   0.00000  Uiso   1.00
H77    H     0.54510   0.00839   0.62900   0.00000  Uiso   1.00
H78    H     0.47988   0.98175   0.52825   0.00000  Uiso   1.00
H79    H     0.67792   0.99347   0.60843   0.00000  Uiso   1.00
H80    H     0.47669   0.06708   0.74745   0.00000  Uiso   1.00
H81    H     0.40896   0.92518   0.42105   0.00000  Uiso   1.00
H82    H     0.82653   0.94991   0.59013   0.00000  Uiso   1.00
H83    H     0.40218   0.10514   0.88329   0.00000  Uiso   1.00
O84    O     0.37072   0.81475   0.37025   0.00000  Uiso   1.00
O85    O     0.91856   0.84719   0.59209   0.00000  Uiso   1.00
O86    O     0.36183   0.05085   0.97671   0.00000  Uiso   1.00
N87    N     0.42472   0.79252   0.45761   0.00000  Uiso   1.00
N88    N     0.81512   0.81563   0.61568   0.00000  Uiso   1.00
N89    N     0.41842   0.96076   0.88977   0.00000  Uiso   1.00
N90    N     0.41992   0.88845   0.44162   0.00000  Uiso   1.00
N91    N     0.81032   0.91156   0.59969   0.00000  Uiso   1.00
N92    N     0.41361   0.05669   0.87377   0.00000  Uiso   1.00
C93    C     0.76507   0.37209   0.61018   0.00000  Uiso   1.00
C94    C     0.73197   0.36189   0.67473   0.00000  Uiso   1.00
C95    C     0.69231   0.31644   0.67906   0.00000  Uiso   1.00
C96    C     0.66665   0.31477   0.74276   0.00000  Uiso   1.00
C97    C     0.61317   0.29253   0.83428   0.00000  Uiso   1.00
C98    C     0.73858   0.44300   0.61436   0.00000  Uiso   1.00
C99    C     0.70448   0.46575   0.56793   0.00000  Uiso   1.00
C100   C     0.68440   0.53237   0.58082   0.00000  Uiso   1.00
C101   C     0.64122   0.63606   0.57859   0.00000  Uiso   1.00
C102   C     0.84177   0.36474   0.61370   0.00000  Uiso   1.00
C103   C     0.89443   0.32169   0.56671   0.00000  Uiso   1.00
C104   C     0.96122   0.32242   0.57904   0.00000  Uiso   1.00
C105   C     0.07825   0.30458   0.57578   0.00000  Uiso   1.00
C106   C     0.79005   0.44996   0.71561   0.00000  Uiso   1.00
C107   C     0.74554   0.40419   0.73199   0.00000  Uiso   1.00
C108   C     0.71994   0.40259   0.79571   0.00000  Uiso   1.00
C109   C     0.68025   0.35714   0.80013   0.00000  Uiso   1.00
C110   C     0.75215   0.48530   0.67163   0.00000  Uiso   1.00
C111   C     0.73212   0.55190   0.68458   0.00000  Uiso   1.00
C112   C     0.69799   0.57474   0.63819   0.00000  Uiso   1.00
C113   C     0.85534   0.40703   0.67097   0.00000  Uiso   1.00
C114   C     0.92206   0.40784   0.68337   0.00000  Uiso   1.00
C115   C     0.97481   0.36479   0.63640   0.00000  Uiso   1.00
H116   H     0.75450   0.33916   0.56560   0.00000  Uiso   1.00
H117   H     0.68181   0.28372   0.63473   0.00000  Uiso   1.00
H118   H     0.69399   0.43301   0.52362   0.00000  Uiso   1.00
H119   H     0.88391   0.28896   0.52240   0.00000  Uiso   1.00
H120   H     0.60718   0.24091   0.73663   0.00000  Uiso   1.00
H121   H     0.63288   0.55570   0.50233   0.00000  Uiso   1.00
H122   H     0.03336   0.25196   0.49977   0.00000  Uiso   1.00
H123   H     0.80061   0.48289   0.76020   0.00000  Uiso   1.00
H124   H     0.73045   0.43533   0.84002   0.00000  Uiso   1.00
H125   H     0.74263   0.58462   0.72890   0.00000  Uiso   1.00
H126   H     0.93254   0.44058   0.72769   0.00000  Uiso   1.00
H127   H     0.64666   0.36397   0.90325   0.00000  Uiso   1.00
H128   H     0.67236   0.67876   0.66895   0.00000  Uiso   1.00
H129   H     0.07283   0.37501   0.66639   0.00000  Uiso   1.00
O130   O     0.57991   0.26858   0.86893   0.00000  Uiso   1.00
O131   O     0.61365   0.68156   0.56154   0.00000  Uiso   1.00
O132   O     0.13906   0.28306   0.55818   0.00000  Uiso   1.00
N133   N     0.62611   0.27639   0.76489   0.00000  Uiso   1.00
N134   N     0.65013   0.57070   0.54584   0.00000  Uiso   1.00
N135   N     0.02454   0.28674   0.54344   0.00000  Uiso   1.00
N136   N     0.64735   0.34261   0.85455   0.00000  Uiso   1.00
N137   N     0.67137   0.63691   0.63550   0.00000  Uiso   1.00
N138   N     0.04579   0.35295   0.63309   0.00000  Uiso   1.00
C139   C     0.39025   0.80110   0.00660   0.00000  Uiso   1.00
C140   C     0.45765   0.79484   0.96139   0.00000  Uiso   1.00
C141   C     0.47362   0.76219   0.89381   0.00000  Uiso   1.00
C142   C     0.53798   0.76206   0.86129   0.00000  Uiso   1.00
C143   C     0.63552   0.74758   0.78592   0.00000  Uiso   1.00
C144   C     0.36207   0.87347   0.03686   0.00000  Uiso   1.00
C145   C     0.29769   0.90691   0.03276   0.00000  Uiso   1.00
C146   C     0.28160   0.97297   0.06378   0.00000  Uiso   1.00
C147   C     0.23074   0.08055   0.10563   0.00000  Uiso   1.00
C148   C     0.40989   0.77465   0.06431   0.00000  Uiso   1.00
C149   C     0.38570   0.72502   0.08330   0.00000  Uiso   1.00
C150   C     0.40985   0.70789   0.13744   0.00000  Uiso   1.00
C151   C     0.43324   0.66204   0.22190   0.00000  Uiso   1.00
C152   C     0.47614   0.85894   0.06900   0.00000  Uiso   1.00
C153   C     0.50429   0.82626   0.99528   0.00000  Uiso   1.00
C154   C     0.56865   0.82617   0.96284   0.00000  Uiso   1.00
C155   C     0.58472   0.79353   0.89524   0.00000  Uiso   1.00
C156   C     0.40872   0.90488   0.07075   0.00000  Uiso   1.00
C157   C     0.39272   0.97090   0.10179   0.00000  Uiso   1.00
C158   C     0.32833   0.00444   0.09773   0.00000  Uiso   1.00
C159   C     0.45654   0.80606   0.09820   0.00000  Uiso   1.00
C160   C     0.48073   0.78901   0.15232   0.00000  Uiso   1.00
C161   C     0.45659   0.73936   0.17139   0.00000  Uiso   1.00
H162   H     0.35393   0.77665   0.98022   0.00000  Uiso   1.00
H163   H     0.43750   0.73789   0.86760   0.00000  Uiso   1.00
H164   H     0.26160   0.88259   0.00654   0.00000  Uiso   1.00
H165   H     0.34960   0.70072   0.05706   0.00000  Uiso   1.00
H166   H     0.55072   0.70878   0.75769   0.00000  Uiso   1.00
H167   H     0.17981   0.01389   0.05065   0.00000  Uiso   1.00
H168   H     0.36538   0.63039   0.15720   0.00000  Uiso   1.00
H169   H     0.51246   0.88340   0.09538   0.00000  Uiso   1.00
H170   H     0.60474   0.85049   0.98908   0.00000  Uiso   1.00
H171   H     0.42883   0.99520   0.12801   0.00000  Uiso   1.00
H172   H     0.51683   0.81333   0.17854   0.00000  Uiso   1.00
H173   H     0.68646   0.80018   0.85628   0.00000  Uiso   1.00
H174   H     0.31554   0.10529   0.14925   0.00000  Uiso   1.00
H175   H     0.50111   0.72179   0.25579   0.00000  Uiso   1.00
O176   O     0.67642   0.73092   0.73498   0.00000  Uiso   1.00
O177   O     0.18980   0.13121   0.11935   0.00000  Uiso   1.00
O178   O     0.43325   0.62807   0.25912   0.00000  Uiso   1.00
N179   N     0.57001   0.73480   0.79548   0.00000  Uiso   1.00
N180   N     0.22324   0.02006   0.06938   0.00000  Uiso   1.00
N181   N     0.39671   0.66153   0.16900   0.00000  Uiso   1.00
N182   N     0.64305   0.78398   0.84854   0.00000  Uiso   1.00
N183   N     0.29627   0.06924   0.12243   0.00000  Uiso   1.00
N184   N     0.46974   0.71071   0.22205   0.00000  Uiso   1.00
C185   C     0.80451   0.17411   0.29697   0.00000  Uiso   1.00
C186   C     0.82294   0.14845   0.35550   0.00000  Uiso   1.00
C187   C     0.79313   0.10382   0.37888   0.00000  Uiso   1.00
C188   C     0.81714   0.08652   0.43298   0.00000  Uiso   1.00
C189   C     0.83788   0.04262   0.51934   0.00000  Uiso   1.00
C190   C     0.87142   0.15969   0.24826   0.00000  Uiso   1.00
C191   C     0.88236   0.12451   0.18148   0.00000  Uiso   1.00
C192   C     0.94719   0.11669   0.14531   0.00000  Uiso   1.00
C193   C     0.04317   0.09028   0.06517   0.00000  Uiso   1.00
C194   C     0.78474   0.24754   0.32451   0.00000  Uiso   1.00
C195   C     0.72280   0.28625   0.32182   0.00000  Uiso   1.00
C196   C     0.71465   0.35239   0.34983   0.00000  Uiso   1.00
C197   C     0.67605   0.46239   0.38807   0.00000  Uiso   1.00
C198   C     0.90017   0.22277   0.35150   0.00000  Uiso   1.00
C199   C     0.87490   0.17487   0.38511   0.00000  Uiso   1.00
C200   C     0.89897   0.15764   0.43920   0.00000  Uiso   1.00
C201   C     0.86920   0.11299   0.46266   0.00000  Uiso   1.00
C202   C     0.92338   0.18611   0.27788   0.00000  Uiso   1.00
C203   C     0.98820   0.17834   0.24181   0.00000  Uiso   1.00
C204   C     0.99924   0.14316   0.17498   0.00000  Uiso   1.00
C205   C     0.83670   0.27397   0.35413   0.00000  Uiso   1.00
C206   C     0.82865   0.34007   0.38215   0.00000  Uiso   1.00
C207   C     0.76671   0.37887   0.37950   0.00000  Uiso   1.00
H208   H     0.76406   0.15354   0.27391   0.00000  Uiso   1.00
H209   H     0.75292   0.08337   0.35594   0.00000  Uiso   1.00
H210   H     0.84214   0.10407   0.15857   0.00000  Uiso   1.00
H211   H     0.68260   0.26578   0.29889   0.00000  Uiso   1.00
H212   H     0.76350   0.01721   0.45993   0.00000  Uiso   1.00
H213   H     0.95162   0.06088   0.04376   0.00000  Uiso   1.00
H214   H     0.61521   0.40187   0.33965   0.00000  Uiso   1.00
H215   H     0.94063   0.24334   0.37455   0.00000  Uiso   1.00
H216   H     0.93918   0.17810   0.46211   0.00000  Uiso   1.00
H217   H     0.02840   0.19880   0.26474   0.00000  Uiso   1.00
H218   H     0.86887   0.36051   0.40506   0.00000  Uiso   1.00
H219   H     0.91468   0.09410   0.54610   0.00000  Uiso   1.00
H220   H     0.10280   0.13777   0.12993   0.00000  Uiso   1.00
H221   H     0.76639   0.47875   0.42583   0.00000  Uiso   1.00
O222   O     0.83497   0.01110   0.55878   0.00000  Uiso   1.00
O223   O     0.08176   0.06841   0.01278   0.00000  Uiso   1.00
O224   O     0.64040   0.51577   0.40099   0.00000  Uiso   1.00
N225   N     0.79927   0.04427   0.46820   0.00000  Uiso   1.00
N226   N     0.97515   0.08509   0.07911   0.00000  Uiso   1.00
N227   N     0.66064   0.40389   0.35573   0.00000  Uiso   1.00
N228   N     0.88062   0.08564   0.51457   0.00000  Uiso   1.00
N229   N     0.05650   0.12646   0.12548   0.00000  Uiso   1.00
N230   N     0.74199   0.44526   0.40210   0.00000  Uiso   1.00
C231   C     0.22319   0.27226   0.72425   0.00000  Uiso   1.00
C232   C     0.20985   0.34510   0.73369   0.00000  Uiso   1.00
C233   C     0.19043   0.37621   0.68638   0.00000  Uiso   1.00
C234   C     0.18072   0.44319   0.70469   0.00000  Uiso   1.00
C235   C     0.15854   0.55104   0.70972   0.00000  Uiso   1.00
C236   C     0.17546   0.26195   0.78072   0.00000  Uiso   1.00
C237   C     0.12714   0.22314   0.77294   0.00000  Uiso   1.00
C238   C     0.08849   0.22012   0.83084   0.00000  Uiso   1.00
C239   C     0.01295   0.19885   0.90888   0.00000  Uiso   1.00
C240   C     0.29611   0.25333   0.73829   0.00000  Uiso   1.00
C241   C     0.34922   0.20724   0.69484   0.00000  Uiso   1.00
C242   C     0.41215   0.19694   0.71702   0.00000  Uiso   1.00
C243   C     0.52394   0.16227   0.72918   0.00000  Uiso   1.00
C244   C     0.24049   0.33590   0.84090   0.00000  Uiso   1.00
C245   C     0.21924   0.37967   0.79705   0.00000  Uiso   1.00
C246   C     0.20957   0.44662   0.81544   0.00000  Uiso   1.00
C247   C     0.19014   0.47782   0.76816   0.00000  Uiso   1.00
C248   C     0.18485   0.29652   0.84408   0.00000  Uiso   1.00
C249   C     0.14627   0.29355   0.90200   0.00000  Uiso   1.00
C250   C     0.09790   0.25475   0.89432   0.00000  Uiso   1.00
C251   C     0.30551   0.28789   0.80164   0.00000  Uiso   1.00
C252   C     0.36836   0.27766   0.82390   0.00000  Uiso   1.00
C253   C     0.42156   0.23157   0.78049   0.00000  Uiso   1.00
H254   H     0.21587   0.24534   0.67493   0.00000  Uiso   1.00
H255   H     0.18316   0.34944   0.63736   0.00000  Uiso   1.00
H256   H     0.11988   0.19639   0.72391   0.00000  Uiso   1.00
H257   H     0.34193   0.18050   0.64582   0.00000  Uiso   1.00
H258   H     0.15101   0.48010   0.62365   0.00000  Uiso   1.00
H259   H     0.01760   0.15737   0.80615   0.00000  Uiso   1.00
H260   H     0.48584   0.12386   0.64148   0.00000  Uiso   1.00
H261   H     0.24780   0.36281   0.89023   0.00000  Uiso   1.00
H262   H     0.21684   0.47336   0.86447   0.00000  Uiso   1.00
H263   H     0.15356   0.32030   0.95102   0.00000  Uiso   1.00
H264   H     0.37561   0.30442   0.87293   0.00000  Uiso   1.00
H265   H     0.17834   0.58067   0.80799   0.00000  Uiso   1.00
H266   H     0.04493   0.25794   0.99048   0.00000  Uiso   1.00
H267   H     0.51318   0.22443   0.82581   0.00000  Uiso   1.00
O268   O     0.14371   0.60099   0.69500   0.00000  Uiso   1.00
O269   O     0.96869   0.17757   0.93442   0.00000  Uiso   1.00
O270   O     0.58301   0.13361   0.71838   0.00000  Uiso   1.00
N271   N     0.16170   0.48860   0.67056   0.00000  Uiso   1.00
N272   N     0.03696   0.18687   0.84119   0.00000  Uiso   1.00
N273   N     0.47473   0.15553   0.68724   0.00000  Uiso   1.00
N274   N     0.17641   0.54271   0.76975   0.00000  Uiso   1.00
N275   N     0.05167   0.24099   0.94038   0.00000  Uiso   1.00
N276   N     0.48944   0.20965   0.78643   0.00000  Uiso   1.00
C277   C     0.37264   0.30256   0.29191   0.00000  Uiso   1.00
C278   C     0.31508   0.36211   0.32228   0.00000  Uiso   1.00
C279   C     0.32356   0.42305   0.35589   0.00000  Uiso   1.00
C280   C     0.26444   0.47115   0.37994   0.00000  Uiso   1.00
C281   C     0.18499   0.56553   0.42849   0.00000  Uiso   1.00
C282   C     0.36577   0.27932   0.21831   0.00000  Uiso   1.00
C283   C     0.41688   0.27063   0.16449   0.00000  Uiso   1.00
C284   C     0.40043   0.24903   0.10101   0.00000  Uiso   1.00
C285   C     0.39969   0.21483   0.98814   0.00000  Uiso   1.00
C286   C     0.35477   0.25054   0.32344   0.00000  Uiso   1.00
C287   C     0.39665   0.21763   0.35801   0.00000  Uiso   1.00
C288   C     0.37095   0.17178   0.38303   0.00000  Uiso   1.00
C289   C     0.35314   0.09288   0.43338   0.00000  Uiso   1.00
C290   C     0.25255   0.27964   0.27485   0.00000  Uiso   1.00
C291   C     0.24985   0.34966   0.31302   0.00000  Uiso   1.00
C292   C     0.19070   0.39769   0.33702   0.00000  Uiso   1.00
C293   C     0.19909   0.45868   0.37066   0.00000  Uiso   1.00
C294   C     0.30054   0.26687   0.20904   0.00000  Uiso   1.00
C295   C     0.28401   0.24527   0.14563   0.00000  Uiso   1.00
C296   C     0.33508   0.23656   0.09173   0.00000  Uiso   1.00
C297   C     0.28955   0.23809   0.31418   0.00000  Uiso   1.00
C298   C     0.26378   0.19228   0.33914   0.00000  Uiso   1.00
C299   C     0.30561   0.15931   0.37375   0.00000  Uiso   1.00
H300   H     0.42342   0.31225   0.29911   0.00000  Uiso   1.00
H301   H     0.37405   0.43266   0.36305   0.00000  Uiso   1.00
H302   H     0.46735   0.28027   0.17168   0.00000  Uiso   1.00
H303   H     0.44712   0.22728   0.36517   0.00000  Uiso   1.00
H304   H     0.29055   0.56068   0.42982   0.00000  Uiso   1.00
H305   H     0.48729   0.23932   0.02631   0.00000  Uiso   1.00
H306   H     0.44463   0.12758   0.43432   0.00000  Uiso   1.00
H307   H     0.20177   0.26994   0.26764   0.00000  Uiso   1.00
H308   H     0.14023   0.38804   0.32985   0.00000  Uiso   1.00
H309   H     0.23353   0.23564   0.13848   0.00000  Uiso   1.00
H310   H     0.21330   0.18265   0.33196   0.00000  Uiso   1.00
H311   H     0.10077   0.52446   0.40287   0.00000  Uiso   1.00
H312   H     0.29752   0.20310   0.99936   0.00000  Uiso   1.00
H313   H     0.25486   0.09136   0.40737   0.00000  Uiso   1.00
O314   O     0.15918   0.62102   0.45782   0.00000  Uiso   1.00
O315   O     0.41730   0.19941   0.92843   0.00000  Uiso   1.00
O316   O     0.36134   0.05281   0.46372   0.00000  Uiso   1.00
N317   N     0.25433   0.53594   0.41495   0.00000  Uiso   1.00
N318   N     0.43827   0.23551   0.03770   0.00000  Uiso   1.00
N319   N     0.39839   0.13103   0.41913   0.00000  Uiso   1.00
N320   N     0.15221   0.51646   0.40045   0.00000  Uiso   1.00
N321   N     0.33615   0.21602   0.02320   0.00000  Uiso   1.00
N322   N     0.29628   0.11154   0.40463   0.00000  Uiso   1.00
C323   C     0.57189   0.07245   0.30655   0.00000  Uiso   1.00
C324   C     0.57716   0.09470   0.38064   0.00000  Uiso   1.00
C325   C     0.56387   0.15844   0.41961   0.00000  Uiso   1.00
C326   C     0.57162   0.16873   0.48636   0.00000  Uiso   1.00
C327   C     0.57668   0.21114   0.59735   0.00000  Uiso   1.00
C328   C     0.52198   0.02657   0.30074   0.00000  Uiso   1.00
C329   C     0.46230   0.03302   0.27253   0.00000  Uiso   1.00
C330   C     0.42361   0.98595   0.27202   0.00000  Uiso   1.00
C331   C     0.34303   0.92256   0.25892   0.00000  Uiso   1.00
C332   C     0.64215   0.03092   0.27200   0.00000  Uiso   1.00
C333   C     0.68350   0.04102   0.21962   0.00000  Uiso   1.00
C334   C     0.74596   0.99761   0.19489   0.00000  Uiso   1.00
C335   C     0.85196   0.94097   0.13717   0.00000  Uiso   1.00
C336   C     0.60928   0.97737   0.35578   0.00000  Uiso   1.00
C337   C     0.59747   0.04305   0.40738   0.00000  Uiso   1.00
C338   C     0.60524   0.05325   0.47408   0.00000  Uiso   1.00
C339   C     0.59197   0.11700   0.51315   0.00000  Uiso   1.00
C340   C     0.54229   0.97492   0.32748   0.00000  Uiso   1.00
C341   C     0.50367   0.92783   0.32700   0.00000  Uiso   1.00
C342   C     0.44395   0.93422   0.29881   0.00000  Uiso   1.00
C343   C     0.66246   0.97928   0.29874   0.00000  Uiso   1.00
C344   C     0.72487   0.93583   0.27409   0.00000  Uiso   1.00
C345   C     0.76631   0.94587   0.22168   0.00000  Uiso   1.00
H346   H     0.55608   0.11265   0.28573   0.00000  Uiso   1.00
H347   H     0.54815   0.19839   0.39890   0.00000  Uiso   1.00
H348   H     0.44661   0.07299   0.25184   0.00000  Uiso   1.00
H349   H     0.66777   0.08099   0.19894   0.00000  Uiso   1.00
H350   H     0.54830   0.27068   0.53618   0.00000  Uiso   1.00
H351   H     0.33419   0.00625   0.22607   0.00000  Uiso   1.00
H352   H     0.80055   0.02312   0.11450   0.00000  Uiso   1.00
H353   H     0.62509   0.93716   0.37660   0.00000  Uiso   1.00
H354   H     0.62096   0.01327   0.49476   0.00000  Uiso   1.00
H355   H     0.51941   0.88787   0.34770   0.00000  Uiso   1.00
H356   H     0.74057   0.89587   0.29480   0.00000  Uiso   1.00
H357   H     0.60738   0.12043   0.61398   0.00000  Uiso   1.00
H358   H     0.39328   0.85600   0.30387   0.00000  Uiso   1.00
H359   H     0.85964   0.87287   0.19231   0.00000  Uiso   1.00
O360   O     0.57385   0.24879   0.65118   0.00000  Uiso   1.00
O361   O     0.29296   0.90186   0.24431   0.00000  Uiso   1.00
O362   O     0.90481   0.92400   0.09795   0.00000  Uiso   1.00
N363   N     0.56278   0.22487   0.53827   0.00000  Uiso   1.00
N364   N     0.36260   0.97765   0.24834   0.00000  Uiso   1.00
N365   N     0.79860   0.99342   0.14403   0.00000  Uiso   1.00
N366   N     0.59458   0.14402   0.58014   0.00000  Uiso   1.00
N367   N     0.39440   0.89680   0.29021   0.00000  Uiso   1.00
N368   N     0.83040   0.91257   0.18590   0.00000  Uiso   1.00
C369   C     0.53098   0.46603   0.13875   0.00000  Uiso   1.00
C370   C     0.55049   0.49522   0.08228   0.00000  Uiso   1.00
C371   C     0.57686   0.55084   0.08895   0.00000  Uiso   1.00
C372   C     0.59144   0.56957   0.03126   0.00000  Uiso   1.00
C373   C     0.62351   0.62029   0.95302   0.00000  Uiso   1.00
C374   C     0.57223   0.39659   0.11770   0.00000  Uiso   1.00
C375   C     0.61687   0.36928   0.15414   0.00000  Uiso   1.00
C376   C     0.64974   0.30499   0.12626   0.00000  Uiso   1.00
C377   C     0.71552   0.20257   0.10303   0.00000  Uiso   1.00
C378   C     0.45581   0.46131   0.13794   0.00000  Uiso   1.00
C379   C     0.40257   0.48841   0.19140   0.00000  Uiso   1.00
C380   C     0.33742   0.47860   0.18058   0.00000  Uiso   1.00
C381   C     0.22245   0.47668   0.18877   0.00000  Uiso   1.00
C382   C     0.50996   0.40040   0.02446   0.00000  Uiso   1.00
C383   C     0.53908   0.45957   0.02021   0.00000  Uiso   1.00
C384   C     0.55361   0.47823   0.96249   0.00000  Uiso   1.00
C385   C     0.58000   0.53386   0.96907   0.00000  Uiso   1.00
C386   C     0.56082   0.36094   0.05562   0.00000  Uiso   1.00
C387   C     0.59362   0.29667   0.02769   0.00000  Uiso   1.00
C388   C     0.63830   0.26928   0.06407   0.00000  Uiso   1.00
C389   C     0.44440   0.42567   0.07586   0.00000  Uiso   1.00
C390   C     0.37932   0.41580   0.06495   0.00000  Uiso   1.00
C391   C     0.32599   0.44289   0.11839   0.00000  Uiso   1.00
H392   H     0.53987   0.49378   0.18708   0.00000  Uiso   1.00
H393   H     0.58569   0.57841   0.13700   0.00000  Uiso   1.00
H394   H     0.62569   0.39688   0.20218   0.00000  Uiso   1.00
H395   H     0.41142   0.51600   0.23944   0.00000  Uiso   1.00
H396   H     0.63149   0.65650   0.05409   0.00000  Uiso   1.00
H397   H     0.71581   0.27373   0.19154   0.00000  Uiso   1.00
H398   H     0.26399   0.52490   0.27011   0.00000  Uiso   1.00
H399   H     0.50108   0.37265   0.97612   0.00000  Uiso   1.00
H400   H     0.54477   0.45063   0.91446   0.00000  Uiso   1.00
H401   H     0.58477   0.26910   0.97965   0.00000  Uiso   1.00
H402   H     0.37051   0.38821   0.01690   0.00000  Uiso   1.00
H403   H     0.59829   0.55278   0.87347   0.00000  Uiso   1.00
H404   H     0.68260   0.17001   0.01093   0.00000  Uiso   1.00
H405   H     0.23078   0.42119   0.08949   0.00000  Uiso   1.00
O406   O     0.64436   0.65811   0.92702   0.00000  Uiso   1.00
O407   O     0.75496   0.15594   0.10736   0.00000  Uiso   1.00
O408   O     0.16219   0.48547   0.21044   0.00000  Uiso   1.00
N409   N     0.61767   0.62139   0.02004   0.00000  Uiso   1.00
N410   N     0.69650   0.26353   0.14855   0.00000  Uiso   1.00
N411   N     0.27409   0.49835   0.22201   0.00000  Uiso   1.00
N412   N     0.59980   0.56559   0.92285   0.00000  Uiso   1.00
N413   N     0.67863   0.20773   0.05136   0.00000  Uiso   1.00
N414   N     0.25622   0.44254   0.12482   0.00000  Uiso   1.00
C415   C     0.75204   0.02936   0.95749   0.00000  Uiso   1.00
C416   C     0.67558   0.04561   0.98596   0.00000  Uiso   1.00
C417   C     0.64782   0.06398   0.05331   0.00000  Uiso   1.00
C418   C     0.57660   0.07677   0.06914   0.00000  Uiso   1.00
C419   C     0.46424   0.10279   0.12092   0.00000  Uiso   1.00
C420   C     0.76604   0.96131   0.90997   0.00000  Uiso   1.00
C421   C     0.81436   0.90881   0.91344   0.00000  Uiso   1.00
C422   C     0.81929   0.85064   0.86529   0.00000  Uiso   1.00
C423   C     0.84742   0.74581   0.79908   0.00000  Uiso   1.00
C424   C     0.76165   0.07432   0.91372   0.00000  Uiso   1.00
C425   C     0.80629   0.11683   0.92032   0.00000  Uiso   1.00
C426   C     0.80753   0.15379   0.87532   0.00000  Uiso   1.00
C427   C     0.82884   0.22442   0.81492   0.00000  Uiso   1.00
C428   C     0.67491   0.01940   0.86583   0.00000  Uiso   1.00
C429   C     0.63368   0.04020   0.93617   0.00000  Uiso   1.00
C430   C     0.56248   0.05296   0.95190   0.00000  Uiso   1.00
C431   C     0.53462   0.07135   0.01927   0.00000  Uiso   1.00
C432   C     0.72415   0.95590   0.86019   0.00000  Uiso   1.00
C433   C     0.72902   0.89780   0.81203   0.00000  Uiso   1.00
C434   C     0.77732   0.84522   0.81542   0.00000  Uiso   1.00
C435   C     0.71975   0.06891   0.86394   0.00000  Uiso   1.00
C436   C     0.72094   0.10581   0.81892   0.00000  Uiso   1.00
C437   C     0.76556   0.14837   0.82545   0.00000  Uiso   1.00
H438   H     0.78467   0.03356   0.99625   0.00000  Uiso   1.00
H439   H     0.68026   0.06815   0.09182   0.00000  Uiso   1.00
H440   H     0.84678   0.91301   0.95196   0.00000  Uiso   1.00
H441   H     0.83870   0.12100   0.95885   0.00000  Uiso   1.00
H442   H     0.54604   0.10409   0.17583   0.00000  Uiso   1.00
H443   H     0.89716   0.77698   0.88092   0.00000  Uiso   1.00
H444   H     0.88013   0.21556   0.89544   0.00000  Uiso   1.00
H445   H     0.64229   0.01519   0.82707   0.00000  Uiso   1.00
H446   H     0.53007   0.04877   0.91337   0.00000  Uiso   1.00
H447   H     0.69659   0.89363   0.77351   0.00000  Uiso   1.00
H448   H     0.68851   0.10162   0.78040   0.00000  Uiso   1.00
H449   H     0.42414   0.08836   0.03099   0.00000  Uiso   1.00
H450   H     0.77526   0.76125   0.73608   0.00000  Uiso   1.00
H451   H     0.75823   0.19983   0.75060   0.00000  Uiso   1.00
O452   O     0.41384   0.11863   0.16323   0.00000  Uiso   1.00
O453   O     0.87451   0.68947   0.77631   0.00000  Uiso   1.00
O454   O     0.85216   0.26488   0.79537   0.00000  Uiso   1.00
N455   N     0.53275   0.09579   0.12990   0.00000  Uiso   1.00
N456   N     0.86102   0.78996   0.85418   0.00000  Uiso   1.00
N457   N     0.84511   0.19998   0.86775   0.00000  Uiso   1.00
N458   N     0.46715   0.08733   0.05196   0.00000  Uiso   1.00
N459   N     0.79543   0.78149   0.77624   0.00000  Uiso   1.00
N460   N     0.77952   0.19152   0.78981   0.00000  Uiso   1.00
C461   C     0.16523   0.96483   0.66159   0.00000  Uiso   1.00
C462   C     0.13526   0.99957   0.61317   0.00000  Uiso   1.00
C463   C     0.15794   0.05012   0.59475   0.00000  Uiso   1.00
C464   C     0.12373   0.07537   0.54981   0.00000  Uiso   1.00
C465   C     0.08553   0.13306   0.47853   0.00000  Uiso   1.00
C466   C     0.10540   0.97073   0.71605   0.00000  Uiso   1.00
C467   C     0.10298   0.99704   0.78414   0.00000  Uiso   1.00
C468   C     0.04363   0.99801   0.82580   0.00000  Uiso   1.00
C469   C     0.95909   0.01089   0.91425   0.00000  Uiso   1.00
C470   C     0.18574   0.89331   0.62332   0.00000  Uiso   1.00
C471   C     0.25087   0.85451   0.61345   0.00000  Uiso   1.00
C472   C     0.25916   0.79029   0.57705   0.00000  Uiso   1.00
C473   C     0.29937   0.68295   0.52152   0.00000  Uiso   1.00
C474   C     0.06414   0.91977   0.61452   0.00000  Uiso   1.00
C475   C     0.08035   0.97509   0.58760   0.00000  Uiso   1.00
C476   C     0.04610   0.00027   0.54267   0.00000  Uiso   1.00
C477   C     0.06873   0.05085   0.52419   0.00000  Uiso   1.00
C478   C     0.05049   0.94626   0.69048   0.00000  Uiso   1.00
C479   C     0.99114   0.94719   0.73206   0.00000  Uiso   1.00
C480   C     0.98862   0.97349   0.80019   0.00000  Uiso   1.00
C481   C     0.13084   0.86883   0.59775   0.00000  Uiso   1.00
C482   C     0.13903   0.80466   0.56136   0.00000  Uiso   1.00
C483   C     0.20416   0.76577   0.55144   0.00000  Uiso   1.00
H484   H     0.20797   0.98388   0.68150   0.00000  Uiso   1.00
H485   H     0.20043   0.06905   0.61456   0.00000  Uiso   1.00
H486   H     0.14548   0.01597   0.80391   0.00000  Uiso   1.00
H487   H     0.29335   0.87346   0.63324   0.00000  Uiso   1.00
H488   H     0.16784   0.15270   0.52907   0.00000  Uiso   1.00
H489   H     0.05198   0.04076   0.92834   0.00000  Uiso   1.00
H490   H     0.36379   0.74025   0.56845   0.00000  Uiso   1.00
H491   H     0.02139   0.90071   0.59462   0.00000  Uiso   1.00
H492   H     0.00361   0.98132   0.52290   0.00000  Uiso   1.00
H493   H     0.94866   0.92824   0.71225   0.00000  Uiso   1.00
H494   H     0.09653   0.78573   0.54159   0.00000  Uiso   1.00
H495   H     0.00810   0.08150   0.45468   0.00000  Uiso   1.00
H496   H     0.89223   0.96955   0.85395   0.00000  Uiso   1.00
H497   H     0.20404   0.66905   0.49406   0.00000  Uiso   1.00
O498   O     0.07963   0.17164   0.44628   0.00000  Uiso   1.00
O499   O     0.92762   0.02476   0.97010   0.00000  Uiso   1.00
O500   O     0.33671   0.63051   0.49794   0.00000  Uiso   1.00
N501   N     0.13269   0.12488   0.52140   0.00000  Uiso   1.00
N502   N     0.02436   0.02022   0.89469   0.00000  Uiso   1.00
N503   N     0.31588   0.73927   0.55824   0.00000  Uiso   1.00
N504   N     0.04674   0.08656   0.48137   0.00000  Uiso   1.00
N505   N     0.93841   0.98190   0.85466   0.00000  Uiso   1.00
N506   N     0.22992   0.70095   0.51821   0.00000  Uiso   1.00
C507   C     0.00314   0.72064   0.00856   0.00000  Uiso   1.00
C508   C     0.03383   0.64949   0.99965   0.00000  Uiso   1.00
C509   C     0.07332   0.62535   0.04191   0.00000  Uiso   1.00
C510   C     0.09660   0.55876   0.02509   0.00000  Uiso   1.00
C511   C     0.14666   0.45451   0.01992   0.00000  Uiso   1.00
C512   C     0.02988   0.73526   0.94421   0.00000  Uiso   1.00
C513   C     0.06604   0.78323   0.93985   0.00000  Uiso   1.00
C514   C     0.08599   0.78885   0.87635   0.00000  Uiso   1.00
C515   C     0.12988   0.81778   0.78511   0.00000  Uiso   1.00
C516   C     0.92593   0.72556   0.00983   0.00000  Uiso   1.00
C517   C     0.87468   0.76539   0.06064   0.00000  Uiso   1.00
C518   C     0.80711   0.76285   0.05238   0.00000  Uiso   1.00
C519   C     0.68960   0.77672   0.06302   0.00000  Uiso   1.00
C520   C     0.97426   0.64532   0.90353   0.00000  Uiso   1.00
C521   C     0.01814   0.60858   0.94261   0.00000  Uiso   1.00
C522   C     0.04136   0.54201   0.92572   0.00000  Uiso   1.00
C523   C     0.08088   0.51777   0.96794   0.00000  Uiso   1.00
C524   C     0.01419   0.69435   0.88716   0.00000  Uiso   1.00
C525   C     0.03409   0.69990   0.82366   0.00000  Uiso   1.00
C526   C     0.07027   0.74786   0.81920   0.00000  Uiso   1.00
C527   C     0.91024   0.68464   0.95279   0.00000  Uiso   1.00
C528   C     0.84273   0.68205   0.94444   0.00000  Uiso   1.00
C529   C     0.79139   0.72187   0.99523   0.00000  Uiso   1.00
H530   H     0.01536   0.75250   0.05296   0.00000  Uiso   1.00
H531   H     0.08545   0.65703   0.08605   0.00000  Uiso   1.00
H532   H     0.07817   0.81489   0.98400   0.00000  Uiso   1.00
H533   H     0.88684   0.79705   0.10477   0.00000  Uiso   1.00
H534   H     0.15627   0.53314   0.09756   0.00000  Uiso   1.00
H535   H     0.14089   0.86602   0.88240   0.00000  Uiso   1.00
H536   H     0.73744   0.82839   0.13706   0.00000  Uiso   1.00
H537   H     0.96204   0.61347   0.85912   0.00000  Uiso   1.00
H538   H     0.02921   0.51036   0.88157   0.00000  Uiso   1.00
H539   H     0.02193   0.66823   0.77952   0.00000  Uiso   1.00
H540   H     0.83061   0.65038   0.90029   0.00000  Uiso   1.00
H541   H     0.11063   0.41410   0.93159   0.00000  Uiso   1.00
H542   H     0.09525   0.74699   0.71643   0.00000  Uiso   1.00
H543   H     0.69180   0.70935   0.97109   0.00000  Uiso   1.00
O544   O     0.17862   0.40830   0.03283   0.00000  Uiso   1.00
O545   O     0.15843   0.84504   0.75055   0.00000  Uiso   1.00
O546   O     0.62912   0.79567   0.08466   0.00000  Uiso   1.00
N547   N     0.13630   0.51927   0.05543   0.00000  Uiso   1.00
N548   N     0.12193   0.83049   0.85426   0.00000  Uiso   1.00
N549   N     0.74474   0.79532   0.09234   0.00000  Uiso   1.00
N550   N     0.11174   0.45522   0.96612   0.00000  Uiso   1.00
N551   N     0.09737   0.76644   0.76495   0.00000  Uiso   1.00
N552   N     0.72018   0.73127   0.00304   0.00000  Uiso   1.00
