data_job_02520
_audit_creation_date              2018-12-19
_audit_creation_method            'Materials Studio'
_symmetry_space_group_name_H-M    'P1'
_symmetry_Int_Tables_number       1
_symmetry_cell_setting            triclinic
loop_
_symmetry_equiv_pos_as_xyz
  x,y,z
_cell_length_a                    32.5869
_cell_length_b                    10.8719
_cell_length_c                    18.6470
_cell_angle_alpha                 90.0000
_cell_angle_beta                  85.2282
_cell_angle_gamma                 90.0000
loop_
_atom_site_label
_atom_site_type_symbol
_atom_site_fract_x
_atom_site_fract_y
_atom_site_fract_z
_atom_site_U_iso_or_equiv
_atom_site_adp_type
_atom_site_occupancy
C1     C     0.36707   0.43439   0.69822   0.00000  Uiso   1.00
C2     C     0.39755   0.52896   0.66496   0.00000  Uiso   1.00
C3     C     0.40190   0.56304   0.59301   0.00000  Uiso   1.00
C4     C     0.43155   0.65114   0.57324   0.00000  Uiso   1.00
C5     C     0.47517   0.79001   0.51391   0.00000  Uiso   1.00
C6     C     0.39273   0.33908   0.73453   0.00000  Uiso   1.00
C7     C     0.39302   0.21351   0.72109   0.00000  Uiso   1.00
C8     C     0.41861   0.14178   0.75990   0.00000  Uiso   1.00
C9     C     0.45473   0.98585   0.80863   0.00000  Uiso   1.00
C10    C     0.34172   0.50084   0.75881   0.00000  Uiso   1.00
C11    C     0.29913   0.51126   0.76578   0.00000  Uiso   1.00
C12    C     0.28177   0.57569   0.82505   0.00000  Uiso   1.00
C13    C     0.23869   0.67091   0.91146   0.00000  Uiso   1.00
C14    C     0.41198   0.53026   0.79108   0.00000  Uiso   1.00
C15    C     0.42194   0.58102   0.71539   0.00000  Uiso   1.00
C16    C     0.45159   0.66911   0.69574   0.00000  Uiso   1.00
C17    C     0.45599   0.70332   0.62377   0.00000  Uiso   1.00
C18    C     0.41712   0.39115   0.78497   0.00000  Uiso   1.00
C19    C     0.44271   0.31958   0.82382   0.00000  Uiso   1.00
C20    C     0.44305   0.19395   0.81043   0.00000  Uiso   1.00
C21    C     0.36611   0.55291   0.80924   0.00000  Uiso   1.00
C22    C     0.34882   0.61733   0.86851   0.00000  Uiso   1.00
C23    C     0.30621   0.62786   0.87557   0.00000  Uiso   1.00
H24    H     0.34808   0.39385   0.65896   0.00000  Uiso   1.00
H25    H     0.38302   0.52271   0.55399   0.00000  Uiso   1.00
H26    H     0.37414   0.17324   0.68206   0.00000  Uiso   1.00
H27    H     0.28026   0.47095   0.72674   0.00000  Uiso   1.00
H28    H     0.43252   0.68851   0.45985   0.00000  Uiso   1.00
H29    H     0.41379   0.95164   0.72991   0.00000  Uiso   1.00
H30    H     0.21583   0.57940   0.82413   0.00000  Uiso   1.00
H31    H     0.43097   0.57080   0.83034   0.00000  Uiso   1.00
H32    H     0.47046   0.70939   0.73478   0.00000  Uiso   1.00
H33    H     0.46158   0.35991   0.86284   0.00000  Uiso   1.00
H34    H     0.36770   0.65762   0.90753   0.00000  Uiso   1.00
H35    H     0.50350   0.84002   0.60658   0.00000  Uiso   1.00
H36    H     0.48476   0.10314   0.87664   0.00000  Uiso   1.00
H37    H     0.28680   0.73091   0.97086   0.00000  Uiso   1.00
O38    O     0.49250   0.85220   0.46725   0.00000  Uiso   1.00
O39    O     0.46791   0.88545   0.82156   0.00000  Uiso   1.00
O40    O     0.20820   0.70906   0.94518   0.00000  Uiso   1.00
N41    N     0.44380   0.70517   0.50750   0.00000  Uiso   1.00
N42    N     0.42629   0.01623   0.75998   0.00000  Uiso   1.00
N43    N     0.24121   0.60311   0.84808   0.00000  Uiso   1.00
N44    N     0.48199   0.78669   0.58646   0.00000  Uiso   1.00
N45    N     0.46448   0.09776   0.83893   0.00000  Uiso   1.00
N46    N     0.27940   0.68464   0.92704   0.00000  Uiso   1.00
C47    C     0.86707   0.93439   0.69822   0.00000  Uiso   1.00
C48    C     0.89755   0.02896   0.66496   0.00000  Uiso   1.00
C49    C     0.90190   0.06304   0.59301   0.00000  Uiso   1.00
C50    C     0.93155   0.15114   0.57324   0.00000  Uiso   1.00
C51    C     0.97517   0.29001   0.51391   0.00000  Uiso   1.00
C52    C     0.89273   0.83908   0.73453   0.00000  Uiso   1.00
C53    C     0.89302   0.71351   0.72109   0.00000  Uiso   1.00
C54    C     0.91861   0.64178   0.75990   0.00000  Uiso   1.00
C55    C     0.95473   0.48585   0.80863   0.00000  Uiso   1.00
C56    C     0.84172   0.00084   0.75881   0.00000  Uiso   1.00
C57    C     0.79913   0.01126   0.76578   0.00000  Uiso   1.00
C58    C     0.78177   0.07569   0.82505   0.00000  Uiso   1.00
C59    C     0.73869   0.17091   0.91146   0.00000  Uiso   1.00
C60    C     0.91198   0.03026   0.79108   0.00000  Uiso   1.00
C61    C     0.92194   0.08102   0.71539   0.00000  Uiso   1.00
C62    C     0.95159   0.16911   0.69574   0.00000  Uiso   1.00
C63    C     0.95599   0.20332   0.62377   0.00000  Uiso   1.00
C64    C     0.91712   0.89115   0.78497   0.00000  Uiso   1.00
C65    C     0.94271   0.81958   0.82382   0.00000  Uiso   1.00
C66    C     0.94305   0.69395   0.81043   0.00000  Uiso   1.00
C67    C     0.86611   0.05291   0.80924   0.00000  Uiso   1.00
C68    C     0.84882   0.11733   0.86851   0.00000  Uiso   1.00
C69    C     0.80621   0.12786   0.87557   0.00000  Uiso   1.00
H70    H     0.84808   0.89385   0.65896   0.00000  Uiso   1.00
H71    H     0.88302   0.02271   0.55399   0.00000  Uiso   1.00
H72    H     0.87414   0.67324   0.68206   0.00000  Uiso   1.00
H73    H     0.78026   0.97095   0.72674   0.00000  Uiso   1.00
H74    H     0.93252   0.18851   0.45985   0.00000  Uiso   1.00
H75    H     0.91379   0.45164   0.72991   0.00000  Uiso   1.00
H76    H     0.71583   0.07940   0.82413   0.00000  Uiso   1.00
H77    H     0.93097   0.07080   0.83034   0.00000  Uiso   1.00
H78    H     0.97046   0.20939   0.73478   0.00000  Uiso   1.00
H79    H     0.96158   0.85991   0.86284   0.00000  Uiso   1.00
H80    H     0.86770   0.15762   0.90753   0.00000  Uiso   1.00
H81    H     0.00350   0.34002   0.60658   0.00000  Uiso   1.00
H82    H     0.98476   0.60314   0.87664   0.00000  Uiso   1.00
H83    H     0.78680   0.23091   0.97086   0.00000  Uiso   1.00
O84    O     0.99250   0.35220   0.46725   0.00000  Uiso   1.00
O85    O     0.96791   0.38545   0.82156   0.00000  Uiso   1.00
O86    O     0.70820   0.20906   0.94518   0.00000  Uiso   1.00
N87    N     0.94380   0.20517   0.50750   0.00000  Uiso   1.00
N88    N     0.92629   0.51623   0.75998   0.00000  Uiso   1.00
N89    N     0.74121   0.10311   0.84808   0.00000  Uiso   1.00
N90    N     0.98199   0.28669   0.58646   0.00000  Uiso   1.00
N91    N     0.96448   0.59776   0.83893   0.00000  Uiso   1.00
N92    N     0.77940   0.18464   0.92704   0.00000  Uiso   1.00
C93    C     0.63293   0.43439   0.80178   0.00000  Uiso   1.00
C94    C     0.60245   0.52896   0.83504   0.00000  Uiso   1.00
C95    C     0.59810   0.56304   0.90699   0.00000  Uiso   1.00
C96    C     0.56845   0.65114   0.92676   0.00000  Uiso   1.00
C97    C     0.52483   0.79001   0.98609   0.00000  Uiso   1.00
C98    C     0.60727   0.33908   0.76547   0.00000  Uiso   1.00
C99    C     0.60698   0.21351   0.77891   0.00000  Uiso   1.00
C100   C     0.58139   0.14178   0.74010   0.00000  Uiso   1.00
C101   C     0.54527   0.98585   0.69137   0.00000  Uiso   1.00
C102   C     0.65828   0.50084   0.74119   0.00000  Uiso   1.00
C103   C     0.70087   0.51126   0.73422   0.00000  Uiso   1.00
C104   C     0.71823   0.57569   0.67495   0.00000  Uiso   1.00
C105   C     0.76131   0.67091   0.58854   0.00000  Uiso   1.00
C106   C     0.58802   0.53026   0.70892   0.00000  Uiso   1.00
C107   C     0.57806   0.58102   0.78461   0.00000  Uiso   1.00
C108   C     0.54841   0.66911   0.80426   0.00000  Uiso   1.00
C109   C     0.54401   0.70332   0.87623   0.00000  Uiso   1.00
C110   C     0.58288   0.39115   0.71503   0.00000  Uiso   1.00
C111   C     0.55729   0.31958   0.67618   0.00000  Uiso   1.00
C112   C     0.55695   0.19395   0.68957   0.00000  Uiso   1.00
C113   C     0.63389   0.55291   0.69076   0.00000  Uiso   1.00
C114   C     0.65118   0.61733   0.63149   0.00000  Uiso   1.00
C115   C     0.69379   0.62786   0.62443   0.00000  Uiso   1.00
H116   H     0.65192   0.39385   0.84104   0.00000  Uiso   1.00
H117   H     0.61698   0.52271   0.94601   0.00000  Uiso   1.00
H118   H     0.62586   0.17324   0.81794   0.00000  Uiso   1.00
H119   H     0.71974   0.47095   0.77326   0.00000  Uiso   1.00
H120   H     0.56748   0.68851   0.04015   0.00000  Uiso   1.00
H121   H     0.58621   0.95164   0.77009   0.00000  Uiso   1.00
H122   H     0.78417   0.57940   0.67587   0.00000  Uiso   1.00
H123   H     0.56903   0.57080   0.66966   0.00000  Uiso   1.00
H124   H     0.52954   0.70939   0.76522   0.00000  Uiso   1.00
H125   H     0.53842   0.35991   0.63716   0.00000  Uiso   1.00
H126   H     0.63230   0.65762   0.59247   0.00000  Uiso   1.00
H127   H     0.49650   0.84002   0.89342   0.00000  Uiso   1.00
H128   H     0.51524   0.10314   0.62336   0.00000  Uiso   1.00
H129   H     0.71320   0.73091   0.52914   0.00000  Uiso   1.00
O130   O     0.50750   0.85220   0.03275   0.00000  Uiso   1.00
O131   O     0.53209   0.88545   0.67844   0.00000  Uiso   1.00
O132   O     0.79180   0.70906   0.55482   0.00000  Uiso   1.00
N133   N     0.55620   0.70517   0.99250   0.00000  Uiso   1.00
N134   N     0.57371   0.01623   0.74002   0.00000  Uiso   1.00
N135   N     0.75879   0.60311   0.65192   0.00000  Uiso   1.00
N136   N     0.51801   0.78669   0.91354   0.00000  Uiso   1.00
N137   N     0.53552   0.09776   0.66107   0.00000  Uiso   1.00
N138   N     0.72060   0.68464   0.57296   0.00000  Uiso   1.00
C139   C     0.13293   0.93439   0.80178   0.00000  Uiso   1.00
C140   C     0.10245   0.02896   0.83504   0.00000  Uiso   1.00
C141   C     0.09810   0.06304   0.90699   0.00000  Uiso   1.00
C142   C     0.06845   0.15114   0.92676   0.00000  Uiso   1.00
C143   C     0.02483   0.29001   0.98609   0.00000  Uiso   1.00
C144   C     0.10727   0.83908   0.76547   0.00000  Uiso   1.00
C145   C     0.10698   0.71351   0.77891   0.00000  Uiso   1.00
C146   C     0.08139   0.64178   0.74010   0.00000  Uiso   1.00
C147   C     0.04527   0.48585   0.69137   0.00000  Uiso   1.00
C148   C     0.15828   0.00084   0.74119   0.00000  Uiso   1.00
C149   C     0.20087   0.01126   0.73422   0.00000  Uiso   1.00
C150   C     0.21823   0.07569   0.67495   0.00000  Uiso   1.00
C151   C     0.26131   0.17091   0.58854   0.00000  Uiso   1.00
C152   C     0.08802   0.03026   0.70892   0.00000  Uiso   1.00
C153   C     0.07806   0.08102   0.78461   0.00000  Uiso   1.00
C154   C     0.04841   0.16911   0.80426   0.00000  Uiso   1.00
C155   C     0.04401   0.20332   0.87623   0.00000  Uiso   1.00
C156   C     0.08288   0.89115   0.71503   0.00000  Uiso   1.00
C157   C     0.05729   0.81958   0.67618   0.00000  Uiso   1.00
C158   C     0.05695   0.69395   0.68957   0.00000  Uiso   1.00
C159   C     0.13389   0.05291   0.69076   0.00000  Uiso   1.00
C160   C     0.15118   0.11733   0.63149   0.00000  Uiso   1.00
C161   C     0.19379   0.12786   0.62443   0.00000  Uiso   1.00
H162   H     0.15192   0.89385   0.84104   0.00000  Uiso   1.00
H163   H     0.11698   0.02271   0.94601   0.00000  Uiso   1.00
H164   H     0.12586   0.67324   0.81794   0.00000  Uiso   1.00
H165   H     0.21974   0.97095   0.77326   0.00000  Uiso   1.00
H166   H     0.06748   0.18851   0.04015   0.00000  Uiso   1.00
H167   H     0.08621   0.45164   0.77009   0.00000  Uiso   1.00
H168   H     0.28417   0.07940   0.67587   0.00000  Uiso   1.00
H169   H     0.06903   0.07080   0.66966   0.00000  Uiso   1.00
H170   H     0.02954   0.20939   0.76522   0.00000  Uiso   1.00
H171   H     0.03842   0.85991   0.63716   0.00000  Uiso   1.00
H172   H     0.13230   0.15762   0.59247   0.00000  Uiso   1.00
H173   H     0.99650   0.34002   0.89342   0.00000  Uiso   1.00
H174   H     0.01524   0.60314   0.62336   0.00000  Uiso   1.00
H175   H     0.21320   0.23091   0.52914   0.00000  Uiso   1.00
O176   O     0.00750   0.35220   0.03275   0.00000  Uiso   1.00
O177   O     0.03209   0.38545   0.67844   0.00000  Uiso   1.00
O178   O     0.29180   0.20906   0.55482   0.00000  Uiso   1.00
N179   N     0.05620   0.20517   0.99250   0.00000  Uiso   1.00
N180   N     0.07371   0.51623   0.74002   0.00000  Uiso   1.00
N181   N     0.25879   0.10311   0.65192   0.00000  Uiso   1.00
N182   N     0.01801   0.28669   0.91354   0.00000  Uiso   1.00
N183   N     0.03552   0.59776   0.66107   0.00000  Uiso   1.00
N184   N     0.22060   0.18464   0.57296   0.00000  Uiso   1.00
C185   C     0.63293   0.56561   0.30178   0.00000  Uiso   1.00
C186   C     0.60245   0.47104   0.33504   0.00000  Uiso   1.00
C187   C     0.59810   0.43696   0.40699   0.00000  Uiso   1.00
C188   C     0.56845   0.34886   0.42676   0.00000  Uiso   1.00
C189   C     0.52483   0.20999   0.48609   0.00000  Uiso   1.00
C190   C     0.60727   0.66092   0.26547   0.00000  Uiso   1.00
C191   C     0.60698   0.78649   0.27891   0.00000  Uiso   1.00
C192   C     0.58139   0.85822   0.24010   0.00000  Uiso   1.00
C193   C     0.54527   0.01415   0.19137   0.00000  Uiso   1.00
C194   C     0.65828   0.49916   0.24119   0.00000  Uiso   1.00
C195   C     0.70087   0.48874   0.23422   0.00000  Uiso   1.00
C196   C     0.71823   0.42431   0.17495   0.00000  Uiso   1.00
C197   C     0.76131   0.32909   0.08854   0.00000  Uiso   1.00
C198   C     0.58802   0.46974   0.20892   0.00000  Uiso   1.00
C199   C     0.57806   0.41898   0.28461   0.00000  Uiso   1.00
C200   C     0.54841   0.33089   0.30426   0.00000  Uiso   1.00
C201   C     0.54401   0.29668   0.37623   0.00000  Uiso   1.00
C202   C     0.58288   0.60885   0.21503   0.00000  Uiso   1.00
C203   C     0.55729   0.68042   0.17618   0.00000  Uiso   1.00
C204   C     0.55695   0.80605   0.18957   0.00000  Uiso   1.00
C205   C     0.63389   0.44709   0.19076   0.00000  Uiso   1.00
C206   C     0.65118   0.38267   0.13149   0.00000  Uiso   1.00
C207   C     0.69379   0.37214   0.12443   0.00000  Uiso   1.00
H208   H     0.65192   0.60615   0.34104   0.00000  Uiso   1.00
H209   H     0.61698   0.47729   0.44601   0.00000  Uiso   1.00
H210   H     0.62586   0.82676   0.31794   0.00000  Uiso   1.00
H211   H     0.71974   0.52905   0.27326   0.00000  Uiso   1.00
H212   H     0.56748   0.31149   0.54015   0.00000  Uiso   1.00
H213   H     0.58621   0.04836   0.27009   0.00000  Uiso   1.00
H214   H     0.78417   0.42060   0.17587   0.00000  Uiso   1.00
H215   H     0.56903   0.42920   0.16966   0.00000  Uiso   1.00
H216   H     0.52954   0.29061   0.26522   0.00000  Uiso   1.00
H217   H     0.53842   0.64009   0.13716   0.00000  Uiso   1.00
H218   H     0.63230   0.34238   0.09247   0.00000  Uiso   1.00
H219   H     0.49650   0.15998   0.39342   0.00000  Uiso   1.00
H220   H     0.51524   0.89686   0.12336   0.00000  Uiso   1.00
H221   H     0.71320   0.26909   0.02914   0.00000  Uiso   1.00
O222   O     0.50750   0.14780   0.53275   0.00000  Uiso   1.00
O223   O     0.53209   0.11455   0.17844   0.00000  Uiso   1.00
O224   O     0.79180   0.29094   0.05482   0.00000  Uiso   1.00
N225   N     0.55620   0.29483   0.49250   0.00000  Uiso   1.00
N226   N     0.57371   0.98377   0.24002   0.00000  Uiso   1.00
N227   N     0.75879   0.39689   0.15192   0.00000  Uiso   1.00
N228   N     0.51801   0.21331   0.41354   0.00000  Uiso   1.00
N229   N     0.53552   0.90224   0.16107   0.00000  Uiso   1.00
N230   N     0.72060   0.31536   0.07296   0.00000  Uiso   1.00
C231   C     0.13293   0.06561   0.30178   0.00000  Uiso   1.00
C232   C     0.10245   0.97104   0.33504   0.00000  Uiso   1.00
C233   C     0.09810   0.93696   0.40699   0.00000  Uiso   1.00
C234   C     0.06845   0.84886   0.42676   0.00000  Uiso   1.00
C235   C     0.02483   0.70999   0.48609   0.00000  Uiso   1.00
C236   C     0.10727   0.16092   0.26547   0.00000  Uiso   1.00
C237   C     0.10698   0.28649   0.27891   0.00000  Uiso   1.00
C238   C     0.08139   0.35822   0.24010   0.00000  Uiso   1.00
C239   C     0.04527   0.51415   0.19137   0.00000  Uiso   1.00
C240   C     0.15828   0.99916   0.24119   0.00000  Uiso   1.00
C241   C     0.20087   0.98874   0.23422   0.00000  Uiso   1.00
C242   C     0.21823   0.92431   0.17495   0.00000  Uiso   1.00
C243   C     0.26131   0.82909   0.08854   0.00000  Uiso   1.00
C244   C     0.08802   0.96974   0.20892   0.00000  Uiso   1.00
C245   C     0.07806   0.91898   0.28461   0.00000  Uiso   1.00
C246   C     0.04841   0.83089   0.30426   0.00000  Uiso   1.00
C247   C     0.04401   0.79668   0.37623   0.00000  Uiso   1.00
C248   C     0.08288   0.10885   0.21503   0.00000  Uiso   1.00
C249   C     0.05729   0.18042   0.17618   0.00000  Uiso   1.00
C250   C     0.05695   0.30605   0.18957   0.00000  Uiso   1.00
C251   C     0.13389   0.94709   0.19076   0.00000  Uiso   1.00
C252   C     0.15118   0.88267   0.13149   0.00000  Uiso   1.00
C253   C     0.19379   0.87214   0.12443   0.00000  Uiso   1.00
H254   H     0.15192   0.10615   0.34104   0.00000  Uiso   1.00
H255   H     0.11698   0.97729   0.44601   0.00000  Uiso   1.00
H256   H     0.12586   0.32676   0.31794   0.00000  Uiso   1.00
H257   H     0.21974   0.02905   0.27326   0.00000  Uiso   1.00
H258   H     0.06748   0.81149   0.54015   0.00000  Uiso   1.00
H259   H     0.08621   0.54836   0.27009   0.00000  Uiso   1.00
H260   H     0.28417   0.92060   0.17587   0.00000  Uiso   1.00
H261   H     0.06903   0.92920   0.16966   0.00000  Uiso   1.00
H262   H     0.02954   0.79061   0.26522   0.00000  Uiso   1.00
H263   H     0.03842   0.14009   0.13716   0.00000  Uiso   1.00
H264   H     0.13230   0.84238   0.09247   0.00000  Uiso   1.00
H265   H     0.99650   0.65998   0.39342   0.00000  Uiso   1.00
H266   H     0.01524   0.39686   0.12336   0.00000  Uiso   1.00
H267   H     0.21320   0.76909   0.02914   0.00000  Uiso   1.00
O268   O     0.00750   0.64780   0.53275   0.00000  Uiso   1.00
O269   O     0.03209   0.61455   0.17844   0.00000  Uiso   1.00
O270   O     0.29180   0.79094   0.05482   0.00000  Uiso   1.00
N271   N     0.05620   0.79483   0.49250   0.00000  Uiso   1.00
N272   N     0.07371   0.48377   0.24002   0.00000  Uiso   1.00
N273   N     0.25879   0.89689   0.15192   0.00000  Uiso   1.00
N274   N     0.01801   0.71331   0.41354   0.00000  Uiso   1.00
N275   N     0.03552   0.40224   0.16107   0.00000  Uiso   1.00
N276   N     0.22060   0.81536   0.07296   0.00000  Uiso   1.00
C277   C     0.36707   0.56561   0.19822   0.00000  Uiso   1.00
C278   C     0.39755   0.47104   0.16496   0.00000  Uiso   1.00
C279   C     0.40190   0.43696   0.09301   0.00000  Uiso   1.00
C280   C     0.43155   0.34886   0.07324   0.00000  Uiso   1.00
C281   C     0.47517   0.20999   0.01391   0.00000  Uiso   1.00
C282   C     0.39273   0.66092   0.23453   0.00000  Uiso   1.00
C283   C     0.39302   0.78649   0.22109   0.00000  Uiso   1.00
C284   C     0.41861   0.85822   0.25990   0.00000  Uiso   1.00
C285   C     0.45473   0.01415   0.30863   0.00000  Uiso   1.00
C286   C     0.34172   0.49916   0.25881   0.00000  Uiso   1.00
C287   C     0.29913   0.48874   0.26578   0.00000  Uiso   1.00
C288   C     0.28177   0.42431   0.32505   0.00000  Uiso   1.00
C289   C     0.23869   0.32909   0.41146   0.00000  Uiso   1.00
C290   C     0.41198   0.46974   0.29108   0.00000  Uiso   1.00
C291   C     0.42194   0.41898   0.21539   0.00000  Uiso   1.00
C292   C     0.45159   0.33089   0.19574   0.00000  Uiso   1.00
C293   C     0.45599   0.29668   0.12377   0.00000  Uiso   1.00
C294   C     0.41712   0.60885   0.28497   0.00000  Uiso   1.00
C295   C     0.44271   0.68042   0.32382   0.00000  Uiso   1.00
C296   C     0.44305   0.80605   0.31043   0.00000  Uiso   1.00
C297   C     0.36611   0.44709   0.30924   0.00000  Uiso   1.00
C298   C     0.34882   0.38267   0.36851   0.00000  Uiso   1.00
C299   C     0.30621   0.37214   0.37557   0.00000  Uiso   1.00
H300   H     0.34808   0.60615   0.15896   0.00000  Uiso   1.00
H301   H     0.38302   0.47729   0.05399   0.00000  Uiso   1.00
H302   H     0.37414   0.82676   0.18206   0.00000  Uiso   1.00
H303   H     0.28026   0.52905   0.22674   0.00000  Uiso   1.00
H304   H     0.43252   0.31149   0.95985   0.00000  Uiso   1.00
H305   H     0.41379   0.04836   0.22991   0.00000  Uiso   1.00
H306   H     0.21583   0.42060   0.32413   0.00000  Uiso   1.00
H307   H     0.43097   0.42920   0.33034   0.00000  Uiso   1.00
H308   H     0.47046   0.29061   0.23478   0.00000  Uiso   1.00
H309   H     0.46158   0.64009   0.36284   0.00000  Uiso   1.00
H310   H     0.36770   0.34238   0.40753   0.00000  Uiso   1.00
H311   H     0.50350   0.15998   0.10658   0.00000  Uiso   1.00
H312   H     0.48476   0.89686   0.37664   0.00000  Uiso   1.00
H313   H     0.28680   0.26909   0.47086   0.00000  Uiso   1.00
O314   O     0.49250   0.14780   0.96725   0.00000  Uiso   1.00
O315   O     0.46791   0.11455   0.32156   0.00000  Uiso   1.00
O316   O     0.20820   0.29094   0.44518   0.00000  Uiso   1.00
N317   N     0.44380   0.29483   0.00750   0.00000  Uiso   1.00
N318   N     0.42629   0.98377   0.25998   0.00000  Uiso   1.00
N319   N     0.24121   0.39689   0.34808   0.00000  Uiso   1.00
N320   N     0.48199   0.21331   0.08646   0.00000  Uiso   1.00
N321   N     0.46448   0.90224   0.33893   0.00000  Uiso   1.00
N322   N     0.27940   0.31536   0.42704   0.00000  Uiso   1.00
C323   C     0.86707   0.06561   0.19822   0.00000  Uiso   1.00
C324   C     0.89755   0.97104   0.16496   0.00000  Uiso   1.00
C325   C     0.90190   0.93696   0.09301   0.00000  Uiso   1.00
C326   C     0.93155   0.84886   0.07324   0.00000  Uiso   1.00
C327   C     0.97517   0.70999   0.01391   0.00000  Uiso   1.00
C328   C     0.89273   0.16092   0.23453   0.00000  Uiso   1.00
C329   C     0.89302   0.28649   0.22109   0.00000  Uiso   1.00
C330   C     0.91861   0.35822   0.25990   0.00000  Uiso   1.00
C331   C     0.95473   0.51415   0.30863   0.00000  Uiso   1.00
C332   C     0.84172   0.99916   0.25881   0.00000  Uiso   1.00
C333   C     0.79913   0.98874   0.26578   0.00000  Uiso   1.00
C334   C     0.78177   0.92431   0.32505   0.00000  Uiso   1.00
C335   C     0.73869   0.82909   0.41146   0.00000  Uiso   1.00
C336   C     0.91198   0.96974   0.29108   0.00000  Uiso   1.00
C337   C     0.92194   0.91898   0.21539   0.00000  Uiso   1.00
C338   C     0.95159   0.83089   0.19574   0.00000  Uiso   1.00
C339   C     0.95599   0.79668   0.12377   0.00000  Uiso   1.00
C340   C     0.91712   0.10885   0.28497   0.00000  Uiso   1.00
C341   C     0.94271   0.18042   0.32382   0.00000  Uiso   1.00
C342   C     0.94305   0.30605   0.31043   0.00000  Uiso   1.00
C343   C     0.86611   0.94709   0.30924   0.00000  Uiso   1.00
C344   C     0.84882   0.88267   0.36851   0.00000  Uiso   1.00
C345   C     0.80621   0.87214   0.37557   0.00000  Uiso   1.00
H346   H     0.84808   0.10615   0.15896   0.00000  Uiso   1.00
H347   H     0.88302   0.97729   0.05399   0.00000  Uiso   1.00
H348   H     0.87414   0.32676   0.18206   0.00000  Uiso   1.00
H349   H     0.78026   0.02905   0.22674   0.00000  Uiso   1.00
H350   H     0.93252   0.81149   0.95985   0.00000  Uiso   1.00
H351   H     0.91379   0.54836   0.22991   0.00000  Uiso   1.00
H352   H     0.71583   0.92060   0.32413   0.00000  Uiso   1.00
H353   H     0.93097   0.92920   0.33034   0.00000  Uiso   1.00
H354   H     0.97046   0.79061   0.23478   0.00000  Uiso   1.00
H355   H     0.96158   0.14009   0.36284   0.00000  Uiso   1.00
H356   H     0.86770   0.84238   0.40753   0.00000  Uiso   1.00
H357   H     0.00350   0.65998   0.10658   0.00000  Uiso   1.00
H358   H     0.98476   0.39686   0.37664   0.00000  Uiso   1.00
H359   H     0.78680   0.76909   0.47086   0.00000  Uiso   1.00
O360   O     0.99250   0.64780   0.96725   0.00000  Uiso   1.00
O361   O     0.96791   0.61455   0.32156   0.00000  Uiso   1.00
O362   O     0.70820   0.79094   0.44518   0.00000  Uiso   1.00
N363   N     0.94380   0.79483   0.00750   0.00000  Uiso   1.00
N364   N     0.92629   0.48377   0.25998   0.00000  Uiso   1.00
N365   N     0.74121   0.89689   0.34808   0.00000  Uiso   1.00
N366   N     0.98199   0.71331   0.08646   0.00000  Uiso   1.00
N367   N     0.96448   0.40224   0.33893   0.00000  Uiso   1.00
N368   N     0.77940   0.81536   0.42704   0.00000  Uiso   1.00
