data_job_01218
_audit_creation_date              2018-12-19
_audit_creation_method            'Materials Studio'
_symmetry_space_group_name_H-M    'P1'
_symmetry_Int_Tables_number       1
_symmetry_cell_setting            triclinic
loop_
_symmetry_equiv_pos_as_xyz
  x,y,z
_cell_length_a                    14.8059
_cell_length_b                    12.4676
_cell_length_c                    12.5367
_cell_angle_alpha                 90.0000
_cell_angle_beta                  77.6196
_cell_angle_gamma                 90.0000
loop_
_atom_site_label
_atom_site_type_symbol
_atom_site_fract_x
_atom_site_fract_y
_atom_site_fract_z
_atom_site_U_iso_or_equiv
_atom_site_adp_type
_atom_site_occupancy
C1     C     0.19682   0.18604   0.60095   0.00000  Uiso   1.00
C2     C     0.26239   0.26947   0.63115   0.00000  Uiso   1.00
C3     C     0.28662   0.36604   0.57760   0.00000  Uiso   1.00
C4     C     0.34763   0.43132   0.61780   0.00000  Uiso   1.00
C5     C     0.44409   0.56545   0.65089   0.00000  Uiso   1.00
C6     C     0.25136   0.08146   0.58253   0.00000  Uiso   1.00
C7     C     0.26630   0.01995   0.48810   0.00000  Uiso   1.00
C8     C     0.31801   0.92695   0.48738   0.00000  Uiso   1.00
C9     C     0.39728   0.76915   0.44501   0.00000  Uiso   1.00
C10    C     0.12144   0.16894   0.70337   0.00000  Uiso   1.00
C11    C     0.02714   0.18095   0.71054   0.00000  Uiso   1.00
C12    C     0.96947   0.16158   0.81157   0.00000  Uiso   1.00
C13    C     0.84702   0.13960   0.95682   0.00000  Uiso   1.00
C14    C     0.26208   0.13023   0.76759   0.00000  Uiso   1.00
C15    C     0.29784   0.23915   0.72166   0.00000  Uiso   1.00
C16    C     0.35882   0.30430   0.76197   0.00000  Uiso   1.00
C17    C     0.38314   0.40095   0.70848   0.00000  Uiso   1.00
C18    C     0.28680   0.05114   0.67303   0.00000  Uiso   1.00
C19    C     0.33850   0.95821   0.67247   0.00000  Uiso   1.00
C20    C     0.35352   0.89658   0.57806   0.00000  Uiso   1.00
C21    C     0.15688   0.13863   0.79389   0.00000  Uiso   1.00
C22    C     0.09934   0.11922   0.89492   0.00000  Uiso   1.00
C23    C     0.00497   0.13121   0.90224   0.00000  Uiso   1.00
H24    H     0.16923   0.20963   0.53048   0.00000  Uiso   1.00
H25    H     0.25919   0.38947   0.50754   0.00000  Uiso   1.00
H26    H     0.23885   0.04342   0.41807   0.00000  Uiso   1.00
H27    H     0.99974   0.20441   0.64048   0.00000  Uiso   1.00
H28    H     0.37458   0.57546   0.52201   0.00000  Uiso   1.00
H29    H     0.33168   0.84580   0.33336   0.00000  Uiso   1.00
H30    H     0.82745   0.18526   0.80236   0.00000  Uiso   1.00
H31    H     0.28967   0.10663   0.83806   0.00000  Uiso   1.00
H32    H     0.38624   0.28082   0.83201   0.00000  Uiso   1.00
H33    H     0.36591   0.93477   0.74253   0.00000  Uiso   1.00
H34    H     0.12679   0.09576   0.96494   0.00000  Uiso   1.00
H35    H     0.47771   0.48728   0.78535   0.00000  Uiso   1.00
H36    H     0.43480   0.75761   0.59670   0.00000  Uiso   1.00
H37    H     0.93058   0.09708   0.06570   0.00000  Uiso   1.00
O38    O     0.48752   0.64780   0.64413   0.00000  Uiso   1.00
O39    O     0.43122   0.69050   0.39663   0.00000  Uiso   1.00
O40    O     0.76969   0.13587   0.01195   0.00000  Uiso   1.00
N41    N     0.38558   0.53081   0.58483   0.00000  Uiso   1.00
N42    N     0.34549   0.84863   0.40844   0.00000  Uiso   1.00
N43    N     0.87407   0.16597   0.84691   0.00000  Uiso   1.00
N44    N     0.44107   0.48336   0.72654   0.00000  Uiso   1.00
N45    N     0.40098   0.80118   0.55015   0.00000  Uiso   1.00
N46    N     0.92957   0.11852   0.98862   0.00000  Uiso   1.00
C47    C     0.80318   0.68604   0.89905   0.00000  Uiso   1.00
C48    C     0.73761   0.76947   0.86885   0.00000  Uiso   1.00
C49    C     0.71338   0.86604   0.92240   0.00000  Uiso   1.00
C50    C     0.65237   0.93132   0.88220   0.00000  Uiso   1.00
C51    C     0.55591   0.06545   0.84911   0.00000  Uiso   1.00
C52    C     0.74864   0.58146   0.91747   0.00000  Uiso   1.00
C53    C     0.73370   0.51995   0.01190   0.00000  Uiso   1.00
C54    C     0.68199   0.42695   0.01262   0.00000  Uiso   1.00
C55    C     0.60272   0.26915   0.05499   0.00000  Uiso   1.00
C56    C     0.87856   0.66894   0.79663   0.00000  Uiso   1.00
C57    C     0.97286   0.68095   0.78946   0.00000  Uiso   1.00
C58    C     0.03053   0.66158   0.68843   0.00000  Uiso   1.00
C59    C     0.15298   0.63960   0.54318   0.00000  Uiso   1.00
C60    C     0.73792   0.63023   0.73241   0.00000  Uiso   1.00
C61    C     0.70216   0.73915   0.77834   0.00000  Uiso   1.00
C62    C     0.64118   0.80430   0.73803   0.00000  Uiso   1.00
C63    C     0.61686   0.90095   0.79152   0.00000  Uiso   1.00
C64    C     0.71320   0.55114   0.82697   0.00000  Uiso   1.00
C65    C     0.66150   0.45821   0.82753   0.00000  Uiso   1.00
C66    C     0.64648   0.39658   0.92194   0.00000  Uiso   1.00
C67    C     0.84312   0.63863   0.70611   0.00000  Uiso   1.00
C68    C     0.90066   0.61922   0.60508   0.00000  Uiso   1.00
C69    C     0.99503   0.63121   0.59776   0.00000  Uiso   1.00
H70    H     0.83077   0.70963   0.96952   0.00000  Uiso   1.00
H71    H     0.74081   0.88947   0.99246   0.00000  Uiso   1.00
H72    H     0.76115   0.54342   0.08193   0.00000  Uiso   1.00
H73    H     0.00026   0.70441   0.85952   0.00000  Uiso   1.00
H74    H     0.62542   0.07546   0.97799   0.00000  Uiso   1.00
H75    H     0.66832   0.34580   0.16664   0.00000  Uiso   1.00
H76    H     0.17255   0.68526   0.69764   0.00000  Uiso   1.00
H77    H     0.71033   0.60663   0.66194   0.00000  Uiso   1.00
H78    H     0.61376   0.78082   0.66799   0.00000  Uiso   1.00
H79    H     0.63409   0.43477   0.75747   0.00000  Uiso   1.00
H80    H     0.87321   0.59576   0.53506   0.00000  Uiso   1.00
H81    H     0.52229   0.98728   0.71465   0.00000  Uiso   1.00
H82    H     0.56520   0.25761   0.90330   0.00000  Uiso   1.00
H83    H     0.06942   0.59708   0.43430   0.00000  Uiso   1.00
O84    O     0.51248   0.14780   0.85587   0.00000  Uiso   1.00
O85    O     0.56878   0.19050   0.10337   0.00000  Uiso   1.00
O86    O     0.23031   0.63587   0.48805   0.00000  Uiso   1.00
N87    N     0.61442   0.03081   0.91517   0.00000  Uiso   1.00
N88    N     0.65451   0.34863   0.09156   0.00000  Uiso   1.00
N89    N     0.12593   0.66597   0.65309   0.00000  Uiso   1.00
N90    N     0.55893   0.98336   0.77346   0.00000  Uiso   1.00
N91    N     0.59902   0.30118   0.94985   0.00000  Uiso   1.00
N92    N     0.07043   0.61852   0.51138   0.00000  Uiso   1.00
C93    C     0.80318   0.81396   0.39905   0.00000  Uiso   1.00
C94    C     0.73761   0.73053   0.36885   0.00000  Uiso   1.00
C95    C     0.71338   0.63396   0.42240   0.00000  Uiso   1.00
C96    C     0.65237   0.56868   0.38220   0.00000  Uiso   1.00
C97    C     0.55591   0.43455   0.34911   0.00000  Uiso   1.00
C98    C     0.74864   0.91854   0.41747   0.00000  Uiso   1.00
C99    C     0.73370   0.98005   0.51190   0.00000  Uiso   1.00
C100   C     0.68199   0.07305   0.51262   0.00000  Uiso   1.00
C101   C     0.60272   0.23085   0.55499   0.00000  Uiso   1.00
C102   C     0.87856   0.83106   0.29663   0.00000  Uiso   1.00
C103   C     0.97286   0.81905   0.28946   0.00000  Uiso   1.00
C104   C     0.03053   0.83842   0.18843   0.00000  Uiso   1.00
C105   C     0.15298   0.86040   0.04318   0.00000  Uiso   1.00
C106   C     0.73792   0.86977   0.23241   0.00000  Uiso   1.00
C107   C     0.70216   0.76085   0.27834   0.00000  Uiso   1.00
C108   C     0.64118   0.69570   0.23803   0.00000  Uiso   1.00
C109   C     0.61686   0.59905   0.29152   0.00000  Uiso   1.00
C110   C     0.71320   0.94886   0.32697   0.00000  Uiso   1.00
C111   C     0.66150   0.04179   0.32753   0.00000  Uiso   1.00
C112   C     0.64648   0.10342   0.42194   0.00000  Uiso   1.00
C113   C     0.84312   0.86137   0.20611   0.00000  Uiso   1.00
C114   C     0.90066   0.88078   0.10508   0.00000  Uiso   1.00
C115   C     0.99503   0.86879   0.09776   0.00000  Uiso   1.00
H116   H     0.83077   0.79037   0.46952   0.00000  Uiso   1.00
H117   H     0.74081   0.61053   0.49246   0.00000  Uiso   1.00
H118   H     0.76115   0.95658   0.58193   0.00000  Uiso   1.00
H119   H     0.00026   0.79559   0.35952   0.00000  Uiso   1.00
H120   H     0.62542   0.42454   0.47799   0.00000  Uiso   1.00
H121   H     0.66832   0.15420   0.66664   0.00000  Uiso   1.00
H122   H     0.17255   0.81474   0.19764   0.00000  Uiso   1.00
H123   H     0.71033   0.89337   0.16194   0.00000  Uiso   1.00
H124   H     0.61376   0.71918   0.16799   0.00000  Uiso   1.00
H125   H     0.63409   0.06523   0.25747   0.00000  Uiso   1.00
H126   H     0.87321   0.90424   0.03506   0.00000  Uiso   1.00
H127   H     0.52229   0.51272   0.21465   0.00000  Uiso   1.00
H128   H     0.56520   0.24239   0.40330   0.00000  Uiso   1.00
H129   H     0.06942   0.90292   0.93430   0.00000  Uiso   1.00
O130   O     0.51248   0.35220   0.35587   0.00000  Uiso   1.00
O131   O     0.56878   0.30950   0.60337   0.00000  Uiso   1.00
O132   O     0.23031   0.86413   0.98805   0.00000  Uiso   1.00
N133   N     0.61442   0.46919   0.41517   0.00000  Uiso   1.00
N134   N     0.65451   0.15137   0.59156   0.00000  Uiso   1.00
N135   N     0.12593   0.83403   0.15309   0.00000  Uiso   1.00
N136   N     0.55893   0.51664   0.27346   0.00000  Uiso   1.00
N137   N     0.59902   0.19882   0.44985   0.00000  Uiso   1.00
N138   N     0.07043   0.88148   0.01138   0.00000  Uiso   1.00
C139   C     0.19682   0.31396   0.10095   0.00000  Uiso   1.00
C140   C     0.26239   0.23053   0.13115   0.00000  Uiso   1.00
C141   C     0.28662   0.13396   0.07760   0.00000  Uiso   1.00
C142   C     0.34763   0.06868   0.11780   0.00000  Uiso   1.00
C143   C     0.44409   0.93455   0.15089   0.00000  Uiso   1.00
C144   C     0.25136   0.41854   0.08253   0.00000  Uiso   1.00
C145   C     0.26630   0.48005   0.98810   0.00000  Uiso   1.00
C146   C     0.31801   0.57305   0.98738   0.00000  Uiso   1.00
C147   C     0.39728   0.73085   0.94501   0.00000  Uiso   1.00
C148   C     0.12144   0.33106   0.20337   0.00000  Uiso   1.00
C149   C     0.02714   0.31905   0.21054   0.00000  Uiso   1.00
C150   C     0.96947   0.33842   0.31157   0.00000  Uiso   1.00
C151   C     0.84702   0.36040   0.45682   0.00000  Uiso   1.00
C152   C     0.26208   0.36977   0.26759   0.00000  Uiso   1.00
C153   C     0.29784   0.26085   0.22166   0.00000  Uiso   1.00
C154   C     0.35882   0.19570   0.26197   0.00000  Uiso   1.00
C155   C     0.38314   0.09905   0.20848   0.00000  Uiso   1.00
C156   C     0.28680   0.44886   0.17303   0.00000  Uiso   1.00
C157   C     0.33850   0.54179   0.17247   0.00000  Uiso   1.00
C158   C     0.35352   0.60342   0.07806   0.00000  Uiso   1.00
C159   C     0.15688   0.36137   0.29389   0.00000  Uiso   1.00
C160   C     0.09934   0.38078   0.39492   0.00000  Uiso   1.00
C161   C     0.00497   0.36879   0.40224   0.00000  Uiso   1.00
H162   H     0.16923   0.29037   0.03048   0.00000  Uiso   1.00
H163   H     0.25919   0.11053   0.00754   0.00000  Uiso   1.00
H164   H     0.23885   0.45658   0.91807   0.00000  Uiso   1.00
H165   H     0.99974   0.29559   0.14048   0.00000  Uiso   1.00
H166   H     0.37458   0.92454   0.02201   0.00000  Uiso   1.00
H167   H     0.33168   0.65420   0.83336   0.00000  Uiso   1.00
H168   H     0.82745   0.31474   0.30236   0.00000  Uiso   1.00
H169   H     0.28967   0.39337   0.33806   0.00000  Uiso   1.00
H170   H     0.38624   0.21918   0.33201   0.00000  Uiso   1.00
H171   H     0.36591   0.56523   0.24253   0.00000  Uiso   1.00
H172   H     0.12679   0.40424   0.46494   0.00000  Uiso   1.00
H173   H     0.47771   0.01272   0.28535   0.00000  Uiso   1.00
H174   H     0.43480   0.74239   0.09670   0.00000  Uiso   1.00
H175   H     0.93058   0.40292   0.56570   0.00000  Uiso   1.00
O176   O     0.48752   0.85220   0.14413   0.00000  Uiso   1.00
O177   O     0.43122   0.80950   0.89663   0.00000  Uiso   1.00
O178   O     0.76969   0.36413   0.51195   0.00000  Uiso   1.00
N179   N     0.38558   0.96919   0.08483   0.00000  Uiso   1.00
N180   N     0.34549   0.65137   0.90844   0.00000  Uiso   1.00
N181   N     0.87407   0.33403   0.34691   0.00000  Uiso   1.00
N182   N     0.44107   0.01664   0.22654   0.00000  Uiso   1.00
N183   N     0.40098   0.69882   0.05015   0.00000  Uiso   1.00
N184   N     0.92957   0.38148   0.48862   0.00000  Uiso   1.00
