data_job_04494
_audit_creation_date              2018-12-19
_audit_creation_method            'Materials Studio'
_symmetry_space_group_name_H-M    'P1'
_symmetry_Int_Tables_number       1
_symmetry_cell_setting            triclinic
loop_
_symmetry_equiv_pos_as_xyz
  x,y,z
_cell_length_a                    21.4075
_cell_length_b                    11.8539
_cell_length_c                    32.8366
_cell_angle_alpha                 90.0000
_cell_angle_beta                  147.0397
_cell_angle_gamma                 90.0000
loop_
_atom_site_label
_atom_site_type_symbol
_atom_site_fract_x
_atom_site_fract_y
_atom_site_fract_z
_atom_site_U_iso_or_equiv
_atom_site_adp_type
_atom_site_occupancy
C1     C     0.26606   0.33077   0.68157   0.00000  Uiso   1.00
C2     C     0.34501   0.23110   0.73360   0.00000  Uiso   1.00
C3     C     0.41103   0.21704   0.80453   0.00000  Uiso   1.00
C4     C     0.47757   0.12008   0.84324   0.00000  Uiso   1.00
C5     C     0.60012   0.97751   0.92878   0.00000  Uiso   1.00
C6     C     0.30615   0.37968   0.66297   0.00000  Uiso   1.00
C7     C     0.33948   0.49054   0.67450   0.00000  Uiso   1.00
C8     C     0.37330   0.51864   0.65374   0.00000  Uiso   1.00
C9     C     0.43545   0.60676   0.62957   0.00000  Uiso   1.00
C10    C     0.14758   0.28065   0.60883   0.00000  Uiso   1.00
C11    C     0.04757   0.30827   0.57483   0.00000  Uiso   1.00
C12    C     0.94787   0.25301   0.50847   0.00000  Uiso   1.00
C13    C     0.76381   0.18738   0.40025   0.00000  Uiso   1.00
C14    C     0.26683   0.18356   0.62419   0.00000  Uiso   1.00
C15    C     0.34542   0.15115   0.70243   0.00000  Uiso   1.00
C16    C     0.41188   0.05417   0.74104   0.00000  Uiso   1.00
C17    C     0.47798   0.03997   0.81201   0.00000  Uiso   1.00
C18    C     0.30657   0.29972   0.63180   0.00000  Uiso   1.00
C19    C     0.34033   0.32767   0.61101   0.00000  Uiso   1.00
C20    C     0.37372   0.43854   0.62252   0.00000  Uiso   1.00
C21    C     0.14799   0.20069   0.57766   0.00000  Uiso   1.00
C22    C     0.04842   0.14539   0.51134   0.00000  Uiso   1.00
C23    C     0.94829   0.17291   0.47725   0.00000  Uiso   1.00
H24    H     0.26574   0.39302   0.70583   0.00000  Uiso   1.00
H25    H     0.41069   0.27895   0.82863   0.00000  Uiso   1.00
H26    H     0.33914   0.55240   0.69861   0.00000  Uiso   1.00
H27    H     0.04728   0.37015   0.59896   0.00000  Uiso   1.00
H28    H     0.57160   0.11723   0.95104   0.00000  Uiso   1.00
H29    H     0.42071   0.69383   0.67687   0.00000  Uiso   1.00
H30    H     0.80525   0.30952   0.46673   0.00000  Uiso   1.00
H31    H     0.26716   0.12131   0.59992   0.00000  Uiso   1.00
H32    H     0.41218   0.99231   0.71690   0.00000  Uiso   1.00
H33    H     0.34064   0.26577   0.58689   0.00000  Uiso   1.00
H34    H     0.04878   0.08352   0.48724   0.00000  Uiso   1.00
H35    H     0.57282   0.88459   0.86036   0.00000  Uiso   1.00
H36    H     0.42192   0.46120   0.58619   0.00000  Uiso   1.00
H37    H     0.80647   0.07689   0.37605   0.00000  Uiso   1.00
O38    O     0.66762   0.92097   0.98457   0.00000  Uiso   1.00
O39    O     0.46963   0.67746   0.62486   0.00000  Uiso   1.00
O40    O     0.66217   0.17325   0.34917   0.00000  Uiso   1.00
N41    N     0.55197   0.08017   0.91363   0.00000  Uiso   1.00
N42    N     0.41091   0.61925   0.65732   0.00000  Uiso   1.00
N43    N     0.83550   0.25998   0.46084   0.00000  Uiso   1.00
N44    N     0.55262   0.95499   0.86484   0.00000  Uiso   1.00
N45    N     0.41157   0.49407   0.60852   0.00000  Uiso   1.00
N46    N     0.83616   0.13480   0.41205   0.00000  Uiso   1.00
C47    C     0.76606   0.83077   0.68157   0.00000  Uiso   1.00
C48    C     0.84501   0.73110   0.73360   0.00000  Uiso   1.00
C49    C     0.91103   0.71704   0.80453   0.00000  Uiso   1.00
C50    C     0.97757   0.62008   0.84324   0.00000  Uiso   1.00
C51    C     0.10012   0.47751   0.92878   0.00000  Uiso   1.00
C52    C     0.80615   0.87968   0.66297   0.00000  Uiso   1.00
C53    C     0.83948   0.99054   0.67450   0.00000  Uiso   1.00
C54    C     0.87330   0.01864   0.65374   0.00000  Uiso   1.00
C55    C     0.93545   0.10676   0.62957   0.00000  Uiso   1.00
C56    C     0.64758   0.78065   0.60883   0.00000  Uiso   1.00
C57    C     0.54757   0.80827   0.57483   0.00000  Uiso   1.00
C58    C     0.44787   0.75301   0.50847   0.00000  Uiso   1.00
C59    C     0.26381   0.68738   0.40025   0.00000  Uiso   1.00
C60    C     0.76683   0.68356   0.62419   0.00000  Uiso   1.00
C61    C     0.84542   0.65115   0.70243   0.00000  Uiso   1.00
C62    C     0.91188   0.55417   0.74104   0.00000  Uiso   1.00
C63    C     0.97798   0.53997   0.81201   0.00000  Uiso   1.00
C64    C     0.80657   0.79972   0.63180   0.00000  Uiso   1.00
C65    C     0.84033   0.82767   0.61101   0.00000  Uiso   1.00
C66    C     0.87372   0.93854   0.62252   0.00000  Uiso   1.00
C67    C     0.64799   0.70069   0.57766   0.00000  Uiso   1.00
C68    C     0.54842   0.64539   0.51134   0.00000  Uiso   1.00
C69    C     0.44829   0.67291   0.47725   0.00000  Uiso   1.00
H70    H     0.76574   0.89302   0.70583   0.00000  Uiso   1.00
H71    H     0.91069   0.77895   0.82863   0.00000  Uiso   1.00
H72    H     0.83914   0.05240   0.69861   0.00000  Uiso   1.00
H73    H     0.54728   0.87015   0.59896   0.00000  Uiso   1.00
H74    H     0.07160   0.61723   0.95104   0.00000  Uiso   1.00
H75    H     0.92071   0.19383   0.67687   0.00000  Uiso   1.00
H76    H     0.30525   0.80952   0.46673   0.00000  Uiso   1.00
H77    H     0.76716   0.62131   0.59992   0.00000  Uiso   1.00
H78    H     0.91218   0.49231   0.71690   0.00000  Uiso   1.00
H79    H     0.84064   0.76577   0.58689   0.00000  Uiso   1.00
H80    H     0.54878   0.58352   0.48724   0.00000  Uiso   1.00
H81    H     0.07282   0.38459   0.86036   0.00000  Uiso   1.00
H82    H     0.92192   0.96120   0.58619   0.00000  Uiso   1.00
H83    H     0.30647   0.57689   0.37605   0.00000  Uiso   1.00
O84    O     0.16762   0.42097   0.98457   0.00000  Uiso   1.00
O85    O     0.96963   0.17746   0.62486   0.00000  Uiso   1.00
O86    O     0.16217   0.67325   0.34917   0.00000  Uiso   1.00
N87    N     0.05197   0.58017   0.91363   0.00000  Uiso   1.00
N88    N     0.91091   0.11925   0.65732   0.00000  Uiso   1.00
N89    N     0.33550   0.75998   0.46084   0.00000  Uiso   1.00
N90    N     0.05262   0.45499   0.86484   0.00000  Uiso   1.00
N91    N     0.91157   0.99407   0.60852   0.00000  Uiso   1.00
N92    N     0.33616   0.63480   0.41205   0.00000  Uiso   1.00
C93    C     0.73394   0.33077   0.81843   0.00000  Uiso   1.00
C94    C     0.65499   0.23110   0.76640   0.00000  Uiso   1.00
C95    C     0.58897   0.21704   0.69547   0.00000  Uiso   1.00
C96    C     0.52243   0.12008   0.65676   0.00000  Uiso   1.00
C97    C     0.39988   0.97751   0.57122   0.00000  Uiso   1.00
C98    C     0.69385   0.37968   0.83703   0.00000  Uiso   1.00
C99    C     0.66052   0.49054   0.82550   0.00000  Uiso   1.00
C100   C     0.62670   0.51864   0.84626   0.00000  Uiso   1.00
C101   C     0.56455   0.60676   0.87043   0.00000  Uiso   1.00
C102   C     0.85242   0.28065   0.89117   0.00000  Uiso   1.00
C103   C     0.95243   0.30827   0.92517   0.00000  Uiso   1.00
C104   C     0.05213   0.25301   0.99153   0.00000  Uiso   1.00
C105   C     0.23619   0.18738   0.09975   0.00000  Uiso   1.00
C106   C     0.73317   0.18356   0.87581   0.00000  Uiso   1.00
C107   C     0.65458   0.15115   0.79757   0.00000  Uiso   1.00
C108   C     0.58812   0.05417   0.75896   0.00000  Uiso   1.00
C109   C     0.52202   0.03997   0.68799   0.00000  Uiso   1.00
C110   C     0.69343   0.29972   0.86820   0.00000  Uiso   1.00
C111   C     0.65967   0.32767   0.88899   0.00000  Uiso   1.00
C112   C     0.62628   0.43854   0.87748   0.00000  Uiso   1.00
C113   C     0.85201   0.20069   0.92234   0.00000  Uiso   1.00
C114   C     0.95158   0.14539   0.98866   0.00000  Uiso   1.00
C115   C     0.05171   0.17291   0.02275   0.00000  Uiso   1.00
H116   H     0.73426   0.39302   0.79417   0.00000  Uiso   1.00
H117   H     0.58931   0.27895   0.67137   0.00000  Uiso   1.00
H118   H     0.66086   0.55240   0.80139   0.00000  Uiso   1.00
H119   H     0.95272   0.37015   0.90104   0.00000  Uiso   1.00
H120   H     0.42840   0.11723   0.54896   0.00000  Uiso   1.00
H121   H     0.57929   0.69383   0.82313   0.00000  Uiso   1.00
H122   H     0.19475   0.30952   0.03327   0.00000  Uiso   1.00
H123   H     0.73284   0.12131   0.90008   0.00000  Uiso   1.00
H124   H     0.58782   0.99231   0.78310   0.00000  Uiso   1.00
H125   H     0.65936   0.26577   0.91311   0.00000  Uiso   1.00
H126   H     0.95122   0.08352   0.01276   0.00000  Uiso   1.00
H127   H     0.42718   0.88459   0.63964   0.00000  Uiso   1.00
H128   H     0.57808   0.46120   0.91381   0.00000  Uiso   1.00
H129   H     0.19353   0.07689   0.12395   0.00000  Uiso   1.00
O130   O     0.33238   0.92097   0.51543   0.00000  Uiso   1.00
O131   O     0.53037   0.67746   0.87514   0.00000  Uiso   1.00
O132   O     0.33783   0.17325   0.15083   0.00000  Uiso   1.00
N133   N     0.44803   0.08017   0.58637   0.00000  Uiso   1.00
N134   N     0.58909   0.61925   0.84268   0.00000  Uiso   1.00
N135   N     0.16450   0.25998   0.03916   0.00000  Uiso   1.00
N136   N     0.44738   0.95499   0.63516   0.00000  Uiso   1.00
N137   N     0.58843   0.49407   0.89148   0.00000  Uiso   1.00
N138   N     0.16384   0.13480   0.08795   0.00000  Uiso   1.00
C139   C     0.23394   0.83077   0.81843   0.00000  Uiso   1.00
C140   C     0.15499   0.73110   0.76640   0.00000  Uiso   1.00
C141   C     0.08897   0.71704   0.69547   0.00000  Uiso   1.00
C142   C     0.02243   0.62008   0.65676   0.00000  Uiso   1.00
C143   C     0.89988   0.47751   0.57122   0.00000  Uiso   1.00
C144   C     0.19385   0.87968   0.83703   0.00000  Uiso   1.00
C145   C     0.16052   0.99054   0.82550   0.00000  Uiso   1.00
C146   C     0.12670   0.01864   0.84626   0.00000  Uiso   1.00
C147   C     0.06455   0.10676   0.87043   0.00000  Uiso   1.00
C148   C     0.35242   0.78065   0.89117   0.00000  Uiso   1.00
C149   C     0.45243   0.80827   0.92517   0.00000  Uiso   1.00
C150   C     0.55213   0.75301   0.99153   0.00000  Uiso   1.00
C151   C     0.73619   0.68738   0.09975   0.00000  Uiso   1.00
C152   C     0.23317   0.68356   0.87581   0.00000  Uiso   1.00
C153   C     0.15458   0.65115   0.79757   0.00000  Uiso   1.00
C154   C     0.08812   0.55417   0.75896   0.00000  Uiso   1.00
C155   C     0.02202   0.53997   0.68799   0.00000  Uiso   1.00
C156   C     0.19343   0.79972   0.86820   0.00000  Uiso   1.00
C157   C     0.15967   0.82767   0.88899   0.00000  Uiso   1.00
C158   C     0.12628   0.93854   0.87748   0.00000  Uiso   1.00
C159   C     0.35201   0.70069   0.92234   0.00000  Uiso   1.00
C160   C     0.45158   0.64539   0.98866   0.00000  Uiso   1.00
C161   C     0.55171   0.67291   0.02275   0.00000  Uiso   1.00
H162   H     0.23426   0.89302   0.79417   0.00000  Uiso   1.00
H163   H     0.08931   0.77895   0.67137   0.00000  Uiso   1.00
H164   H     0.16086   0.05240   0.80139   0.00000  Uiso   1.00
H165   H     0.45272   0.87015   0.90104   0.00000  Uiso   1.00
H166   H     0.92840   0.61723   0.54896   0.00000  Uiso   1.00
H167   H     0.07929   0.19383   0.82313   0.00000  Uiso   1.00
H168   H     0.69475   0.80952   0.03327   0.00000  Uiso   1.00
H169   H     0.23284   0.62131   0.90008   0.00000  Uiso   1.00
H170   H     0.08782   0.49231   0.78310   0.00000  Uiso   1.00
H171   H     0.15936   0.76577   0.91311   0.00000  Uiso   1.00
H172   H     0.45122   0.58352   0.01276   0.00000  Uiso   1.00
H173   H     0.92718   0.38459   0.63964   0.00000  Uiso   1.00
H174   H     0.07808   0.96120   0.91381   0.00000  Uiso   1.00
H175   H     0.69353   0.57689   0.12395   0.00000  Uiso   1.00
O176   O     0.83238   0.42097   0.51543   0.00000  Uiso   1.00
O177   O     0.03037   0.17746   0.87514   0.00000  Uiso   1.00
O178   O     0.83783   0.67325   0.15083   0.00000  Uiso   1.00
N179   N     0.94803   0.58017   0.58637   0.00000  Uiso   1.00
N180   N     0.08909   0.11925   0.84268   0.00000  Uiso   1.00
N181   N     0.66450   0.75998   0.03916   0.00000  Uiso   1.00
N182   N     0.94738   0.45499   0.63516   0.00000  Uiso   1.00
N183   N     0.08843   0.99407   0.89148   0.00000  Uiso   1.00
N184   N     0.66384   0.63480   0.08795   0.00000  Uiso   1.00
C185   C     0.73394   0.66923   0.31843   0.00000  Uiso   1.00
C186   C     0.65499   0.76890   0.26640   0.00000  Uiso   1.00
C187   C     0.58897   0.78296   0.19547   0.00000  Uiso   1.00
C188   C     0.52243   0.87992   0.15676   0.00000  Uiso   1.00
C189   C     0.39988   0.02249   0.07122   0.00000  Uiso   1.00
C190   C     0.69385   0.62032   0.33703   0.00000  Uiso   1.00
C191   C     0.66052   0.50946   0.32550   0.00000  Uiso   1.00
C192   C     0.62670   0.48136   0.34626   0.00000  Uiso   1.00
C193   C     0.56455   0.39324   0.37043   0.00000  Uiso   1.00
C194   C     0.85242   0.71935   0.39117   0.00000  Uiso   1.00
C195   C     0.95243   0.69173   0.42517   0.00000  Uiso   1.00
C196   C     0.05213   0.74699   0.49153   0.00000  Uiso   1.00
C197   C     0.23619   0.81262   0.59975   0.00000  Uiso   1.00
C198   C     0.73317   0.81644   0.37581   0.00000  Uiso   1.00
C199   C     0.65458   0.84885   0.29757   0.00000  Uiso   1.00
C200   C     0.58812   0.94583   0.25896   0.00000  Uiso   1.00
C201   C     0.52202   0.96003   0.18799   0.00000  Uiso   1.00
C202   C     0.69343   0.70028   0.36820   0.00000  Uiso   1.00
C203   C     0.65967   0.67233   0.38899   0.00000  Uiso   1.00
C204   C     0.62628   0.56146   0.37748   0.00000  Uiso   1.00
C205   C     0.85201   0.79931   0.42234   0.00000  Uiso   1.00
C206   C     0.95158   0.85461   0.48866   0.00000  Uiso   1.00
C207   C     0.05171   0.82709   0.52275   0.00000  Uiso   1.00
H208   H     0.73426   0.60698   0.29417   0.00000  Uiso   1.00
H209   H     0.58931   0.72105   0.17137   0.00000  Uiso   1.00
H210   H     0.66086   0.44760   0.30139   0.00000  Uiso   1.00
H211   H     0.95272   0.62985   0.40104   0.00000  Uiso   1.00
H212   H     0.42840   0.88277   0.04896   0.00000  Uiso   1.00
H213   H     0.57929   0.30617   0.32313   0.00000  Uiso   1.00
H214   H     0.19475   0.69048   0.53327   0.00000  Uiso   1.00
H215   H     0.73284   0.87869   0.40008   0.00000  Uiso   1.00
H216   H     0.58782   0.00769   0.28310   0.00000  Uiso   1.00
H217   H     0.65936   0.73423   0.41311   0.00000  Uiso   1.00
H218   H     0.95122   0.91648   0.51276   0.00000  Uiso   1.00
H219   H     0.42718   0.11541   0.13964   0.00000  Uiso   1.00
H220   H     0.57808   0.53880   0.41381   0.00000  Uiso   1.00
H221   H     0.19353   0.92311   0.62395   0.00000  Uiso   1.00
O222   O     0.33238   0.07903   0.01543   0.00000  Uiso   1.00
O223   O     0.53037   0.32254   0.37514   0.00000  Uiso   1.00
O224   O     0.33783   0.82675   0.65083   0.00000  Uiso   1.00
N225   N     0.44803   0.91983   0.08637   0.00000  Uiso   1.00
N226   N     0.58909   0.38075   0.34268   0.00000  Uiso   1.00
N227   N     0.16450   0.74002   0.53916   0.00000  Uiso   1.00
N228   N     0.44738   0.04501   0.13516   0.00000  Uiso   1.00
N229   N     0.58843   0.50593   0.39148   0.00000  Uiso   1.00
N230   N     0.16384   0.86520   0.58795   0.00000  Uiso   1.00
C231   C     0.23394   0.16923   0.31843   0.00000  Uiso   1.00
C232   C     0.15499   0.26890   0.26640   0.00000  Uiso   1.00
C233   C     0.08897   0.28296   0.19547   0.00000  Uiso   1.00
C234   C     0.02243   0.37992   0.15676   0.00000  Uiso   1.00
C235   C     0.89988   0.52249   0.07122   0.00000  Uiso   1.00
C236   C     0.19385   0.12032   0.33703   0.00000  Uiso   1.00
C237   C     0.16052   0.00946   0.32550   0.00000  Uiso   1.00
C238   C     0.12670   0.98136   0.34626   0.00000  Uiso   1.00
C239   C     0.06455   0.89324   0.37043   0.00000  Uiso   1.00
C240   C     0.35242   0.21935   0.39117   0.00000  Uiso   1.00
C241   C     0.45243   0.19173   0.42517   0.00000  Uiso   1.00
C242   C     0.55213   0.24699   0.49153   0.00000  Uiso   1.00
C243   C     0.73619   0.31262   0.59975   0.00000  Uiso   1.00
C244   C     0.23317   0.31644   0.37581   0.00000  Uiso   1.00
C245   C     0.15458   0.34885   0.29757   0.00000  Uiso   1.00
C246   C     0.08812   0.44583   0.25896   0.00000  Uiso   1.00
C247   C     0.02202   0.46003   0.18799   0.00000  Uiso   1.00
C248   C     0.19343   0.20028   0.36820   0.00000  Uiso   1.00
C249   C     0.15967   0.17233   0.38899   0.00000  Uiso   1.00
C250   C     0.12628   0.06146   0.37748   0.00000  Uiso   1.00
C251   C     0.35201   0.29931   0.42234   0.00000  Uiso   1.00
C252   C     0.45158   0.35461   0.48866   0.00000  Uiso   1.00
C253   C     0.55171   0.32709   0.52275   0.00000  Uiso   1.00
H254   H     0.23426   0.10698   0.29417   0.00000  Uiso   1.00
H255   H     0.08931   0.22105   0.17137   0.00000  Uiso   1.00
H256   H     0.16086   0.94760   0.30139   0.00000  Uiso   1.00
H257   H     0.45272   0.12985   0.40104   0.00000  Uiso   1.00
H258   H     0.92840   0.38277   0.04896   0.00000  Uiso   1.00
H259   H     0.07929   0.80617   0.32313   0.00000  Uiso   1.00
H260   H     0.69475   0.19048   0.53327   0.00000  Uiso   1.00
H261   H     0.23284   0.37869   0.40008   0.00000  Uiso   1.00
H262   H     0.08782   0.50769   0.28310   0.00000  Uiso   1.00
H263   H     0.15936   0.23423   0.41311   0.00000  Uiso   1.00
H264   H     0.45122   0.41648   0.51276   0.00000  Uiso   1.00
H265   H     0.92718   0.61541   0.13964   0.00000  Uiso   1.00
H266   H     0.07808   0.03880   0.41381   0.00000  Uiso   1.00
H267   H     0.69353   0.42311   0.62395   0.00000  Uiso   1.00
O268   O     0.83238   0.57903   0.01543   0.00000  Uiso   1.00
O269   O     0.03037   0.82254   0.37514   0.00000  Uiso   1.00
O270   O     0.83783   0.32675   0.65083   0.00000  Uiso   1.00
N271   N     0.94803   0.41983   0.08637   0.00000  Uiso   1.00
N272   N     0.08909   0.88075   0.34268   0.00000  Uiso   1.00
N273   N     0.66450   0.24002   0.53916   0.00000  Uiso   1.00
N274   N     0.94738   0.54501   0.13516   0.00000  Uiso   1.00
N275   N     0.08843   0.00593   0.39148   0.00000  Uiso   1.00
N276   N     0.66384   0.36520   0.58795   0.00000  Uiso   1.00
C277   C     0.26606   0.66923   0.18157   0.00000  Uiso   1.00
C278   C     0.34501   0.76890   0.23360   0.00000  Uiso   1.00
C279   C     0.41103   0.78296   0.30453   0.00000  Uiso   1.00
C280   C     0.47757   0.87992   0.34324   0.00000  Uiso   1.00
C281   C     0.60012   0.02249   0.42878   0.00000  Uiso   1.00
C282   C     0.30615   0.62032   0.16297   0.00000  Uiso   1.00
C283   C     0.33948   0.50946   0.17450   0.00000  Uiso   1.00
C284   C     0.37330   0.48136   0.15374   0.00000  Uiso   1.00
C285   C     0.43545   0.39324   0.12957   0.00000  Uiso   1.00
C286   C     0.14758   0.71935   0.10883   0.00000  Uiso   1.00
C287   C     0.04757   0.69173   0.07483   0.00000  Uiso   1.00
C288   C     0.94787   0.74699   0.00847   0.00000  Uiso   1.00
C289   C     0.76381   0.81262   0.90025   0.00000  Uiso   1.00
C290   C     0.26683   0.81644   0.12419   0.00000  Uiso   1.00
C291   C     0.34542   0.84885   0.20243   0.00000  Uiso   1.00
C292   C     0.41188   0.94583   0.24104   0.00000  Uiso   1.00
C293   C     0.47798   0.96003   0.31201   0.00000  Uiso   1.00
C294   C     0.30657   0.70028   0.13180   0.00000  Uiso   1.00
C295   C     0.34033   0.67233   0.11101   0.00000  Uiso   1.00
C296   C     0.37372   0.56146   0.12252   0.00000  Uiso   1.00
C297   C     0.14799   0.79931   0.07766   0.00000  Uiso   1.00
C298   C     0.04842   0.85461   0.01134   0.00000  Uiso   1.00
C299   C     0.94829   0.82709   0.97725   0.00000  Uiso   1.00
H300   H     0.26574   0.60698   0.20583   0.00000  Uiso   1.00
H301   H     0.41069   0.72105   0.32863   0.00000  Uiso   1.00
H302   H     0.33914   0.44760   0.19861   0.00000  Uiso   1.00
H303   H     0.04728   0.62985   0.09896   0.00000  Uiso   1.00
H304   H     0.57160   0.88277   0.45104   0.00000  Uiso   1.00
H305   H     0.42071   0.30617   0.17687   0.00000  Uiso   1.00
H306   H     0.80525   0.69048   0.96673   0.00000  Uiso   1.00
H307   H     0.26716   0.87869   0.09992   0.00000  Uiso   1.00
H308   H     0.41218   0.00769   0.21690   0.00000  Uiso   1.00
H309   H     0.34064   0.73423   0.08689   0.00000  Uiso   1.00
H310   H     0.04878   0.91648   0.98724   0.00000  Uiso   1.00
H311   H     0.57282   0.11541   0.36036   0.00000  Uiso   1.00
H312   H     0.42192   0.53880   0.08619   0.00000  Uiso   1.00
H313   H     0.80647   0.92311   0.87605   0.00000  Uiso   1.00
O314   O     0.66762   0.07903   0.48457   0.00000  Uiso   1.00
O315   O     0.46963   0.32254   0.12486   0.00000  Uiso   1.00
O316   O     0.66217   0.82675   0.84917   0.00000  Uiso   1.00
N317   N     0.55197   0.91983   0.41363   0.00000  Uiso   1.00
N318   N     0.41091   0.38075   0.15732   0.00000  Uiso   1.00
N319   N     0.83550   0.74002   0.96084   0.00000  Uiso   1.00
N320   N     0.55262   0.04501   0.36484   0.00000  Uiso   1.00
N321   N     0.41157   0.50593   0.10852   0.00000  Uiso   1.00
N322   N     0.83616   0.86520   0.91205   0.00000  Uiso   1.00
C323   C     0.76606   0.16923   0.18157   0.00000  Uiso   1.00
C324   C     0.84501   0.26890   0.23360   0.00000  Uiso   1.00
C325   C     0.91103   0.28296   0.30453   0.00000  Uiso   1.00
C326   C     0.97757   0.37992   0.34324   0.00000  Uiso   1.00
C327   C     0.10012   0.52249   0.42878   0.00000  Uiso   1.00
C328   C     0.80615   0.12032   0.16297   0.00000  Uiso   1.00
C329   C     0.83948   0.00946   0.17450   0.00000  Uiso   1.00
C330   C     0.87330   0.98136   0.15374   0.00000  Uiso   1.00
C331   C     0.93545   0.89324   0.12957   0.00000  Uiso   1.00
C332   C     0.64758   0.21935   0.10883   0.00000  Uiso   1.00
C333   C     0.54757   0.19173   0.07483   0.00000  Uiso   1.00
C334   C     0.44787   0.24699   0.00847   0.00000  Uiso   1.00
C335   C     0.26381   0.31262   0.90025   0.00000  Uiso   1.00
C336   C     0.76683   0.31644   0.12419   0.00000  Uiso   1.00
C337   C     0.84542   0.34885   0.20243   0.00000  Uiso   1.00
C338   C     0.91188   0.44583   0.24104   0.00000  Uiso   1.00
C339   C     0.97798   0.46003   0.31201   0.00000  Uiso   1.00
C340   C     0.80657   0.20028   0.13180   0.00000  Uiso   1.00
C341   C     0.84033   0.17233   0.11101   0.00000  Uiso   1.00
C342   C     0.87372   0.06146   0.12252   0.00000  Uiso   1.00
C343   C     0.64799   0.29931   0.07766   0.00000  Uiso   1.00
C344   C     0.54842   0.35461   0.01134   0.00000  Uiso   1.00
C345   C     0.44829   0.32709   0.97725   0.00000  Uiso   1.00
H346   H     0.76574   0.10698   0.20583   0.00000  Uiso   1.00
H347   H     0.91069   0.22105   0.32863   0.00000  Uiso   1.00
H348   H     0.83914   0.94760   0.19861   0.00000  Uiso   1.00
H349   H     0.54728   0.12985   0.09896   0.00000  Uiso   1.00
H350   H     0.07160   0.38277   0.45104   0.00000  Uiso   1.00
H351   H     0.92071   0.80617   0.17687   0.00000  Uiso   1.00
H352   H     0.30525   0.19048   0.96673   0.00000  Uiso   1.00
H353   H     0.76716   0.37869   0.09992   0.00000  Uiso   1.00
H354   H     0.91218   0.50769   0.21690   0.00000  Uiso   1.00
H355   H     0.84064   0.23423   0.08689   0.00000  Uiso   1.00
H356   H     0.54878   0.41648   0.98724   0.00000  Uiso   1.00
H357   H     0.07282   0.61541   0.36036   0.00000  Uiso   1.00
H358   H     0.92192   0.03880   0.08619   0.00000  Uiso   1.00
H359   H     0.30647   0.42311   0.87605   0.00000  Uiso   1.00
O360   O     0.16762   0.57903   0.48457   0.00000  Uiso   1.00
O361   O     0.96963   0.82254   0.12486   0.00000  Uiso   1.00
O362   O     0.16217   0.32675   0.84917   0.00000  Uiso   1.00
N363   N     0.05197   0.41983   0.41363   0.00000  Uiso   1.00
N364   N     0.91091   0.88075   0.15732   0.00000  Uiso   1.00
N365   N     0.33550   0.24002   0.96084   0.00000  Uiso   1.00
N366   N     0.05262   0.54501   0.36484   0.00000  Uiso   1.00
N367   N     0.91157   0.00593   0.10852   0.00000  Uiso   1.00
N368   N     0.33616   0.36520   0.91205   0.00000  Uiso   1.00
