data_job_01280
_audit_creation_date              2018-12-19
_audit_creation_method            'Materials Studio'
_symmetry_space_group_name_H-M    'P1'
_symmetry_Int_Tables_number       1
_symmetry_cell_setting            triclinic
loop_
_symmetry_equiv_pos_as_xyz
  x,y,z
_cell_length_a                    12.3802
_cell_length_b                    16.3991
_cell_length_c                    11.3293
_cell_angle_alpha                 90.0000
_cell_angle_beta                  90.0000
_cell_angle_gamma                 90.0000
loop_
_atom_site_label
_atom_site_type_symbol
_atom_site_fract_x
_atom_site_fract_y
_atom_site_fract_z
_atom_site_U_iso_or_equiv
_atom_site_adp_type
_atom_site_occupancy
C1     C     0.69317   0.92775   0.36844   0.00000  Uiso   1.00
C2     C     0.71587   0.98576   0.26621   0.00000  Uiso   1.00
C3     C     0.67066   0.06251   0.25127   0.00000  Uiso   1.00
C4     C     0.70180   0.10609   0.15188   0.00000  Uiso   1.00
C5     C     0.72580   0.20103   0.00549   0.00000  Uiso   1.00
C6     C     0.65402   0.84843   0.31271   0.00000  Uiso   1.00
C7     C     0.55683   0.80971   0.33690   0.00000  Uiso   1.00
C8     C     0.53593   0.73769   0.27666   0.00000  Uiso   1.00
C9     C     0.46395   0.61939   0.20255   0.00000  Uiso   1.00
C10    C     0.80260   0.90858   0.42363   0.00000  Uiso   1.00
C11    C     0.83032   0.92041   0.54108   0.00000  Uiso   1.00
C12    C     0.93450   0.89901   0.57423   0.00000  Uiso   1.00
C13    C     0.09320   0.87409   0.67233   0.00000  Uiso   1.00
C14    C     0.82887   0.86868   0.21848   0.00000  Uiso   1.00
C15    C     0.78957   0.95367   0.18475   0.00000  Uiso   1.00
C16    C     0.82080   0.99715   0.08536   0.00000  Uiso   1.00
C17    C     0.77565   0.07395   0.07028   0.00000  Uiso   1.00
C18    C     0.72773   0.81635   0.23126   0.00000  Uiso   1.00
C19    C     0.70697   0.74436   0.17099   0.00000  Uiso   1.00
C20    C     0.60977   0.70554   0.19506   0.00000  Uiso   1.00
C21    C     0.87631   0.87649   0.34218   0.00000  Uiso   1.00
C22    C     0.98047   0.85506   0.37516   0.00000  Uiso   1.00
C23    C     0.00834   0.86686   0.49263   0.00000  Uiso   1.00
H24    H     0.63578   0.95273   0.43185   0.00000  Uiso   1.00
H25    H     0.61361   0.08731   0.31432   0.00000  Uiso   1.00
H26    H     0.49981   0.83456   0.39995   0.00000  Uiso   1.00
H27    H     0.77326   0.94524   0.60409   0.00000  Uiso   1.00
H28    H     0.62151   0.22237   0.14807   0.00000  Uiso   1.00
H29    H     0.38157   0.68940   0.32864   0.00000  Uiso   1.00
H30    H     0.95819   0.92279   0.75912   0.00000  Uiso   1.00
H31    H     0.88626   0.84370   0.15506   0.00000  Uiso   1.00
H32    H     0.87785   0.97230   0.02234   0.00000  Uiso   1.00
H33    H     0.76404   0.71954   0.10796   0.00000  Uiso   1.00
H34    H     0.03749   0.83023   0.31210   0.00000  Uiso   1.00
H35    H     0.83597   0.12902   0.91108   0.00000  Uiso   1.00
H36    H     0.59603   0.59604   0.09166   0.00000  Uiso   1.00
H37    H     0.17265   0.82945   0.52213   0.00000  Uiso   1.00
O38    O     0.71866   0.26225   0.94724   0.00000  Uiso   1.00
O39    O     0.40387   0.56301   0.18417   0.00000  Uiso   1.00
O40    O     0.16038   0.86923   0.74893   0.00000  Uiso   1.00
N41    N     0.67316   0.18275   0.11052   0.00000  Uiso   1.00
N42    N     0.44882   0.68446   0.27933   0.00000  Uiso   1.00
N43    N     0.98790   0.90265   0.68180   0.00000  Uiso   1.00
N44    N     0.78856   0.13252   0.98300   0.00000  Uiso   1.00
N45    N     0.56422   0.63424   0.15181   0.00000  Uiso   1.00
N46    N     0.10330   0.85242   0.55428   0.00000  Uiso   1.00
C47    C     0.30683   0.07225   0.36844   0.00000  Uiso   1.00
C48    C     0.28413   0.01424   0.26621   0.00000  Uiso   1.00
C49    C     0.32934   0.93749   0.25127   0.00000  Uiso   1.00
C50    C     0.29820   0.89391   0.15188   0.00000  Uiso   1.00
C51    C     0.27420   0.79897   0.00549   0.00000  Uiso   1.00
C52    C     0.34598   0.15157   0.31271   0.00000  Uiso   1.00
C53    C     0.44317   0.19029   0.33690   0.00000  Uiso   1.00
C54    C     0.46407   0.26231   0.27666   0.00000  Uiso   1.00
C55    C     0.53605   0.38061   0.20255   0.00000  Uiso   1.00
C56    C     0.19740   0.09142   0.42363   0.00000  Uiso   1.00
C57    C     0.16968   0.07959   0.54108   0.00000  Uiso   1.00
C58    C     0.06550   0.10099   0.57423   0.00000  Uiso   1.00
C59    C     0.90680   0.12591   0.67233   0.00000  Uiso   1.00
C60    C     0.17113   0.13132   0.21848   0.00000  Uiso   1.00
C61    C     0.21043   0.04633   0.18475   0.00000  Uiso   1.00
C62    C     0.17920   0.00285   0.08536   0.00000  Uiso   1.00
C63    C     0.22435   0.92605   0.07028   0.00000  Uiso   1.00
C64    C     0.27227   0.18365   0.23126   0.00000  Uiso   1.00
C65    C     0.29303   0.25564   0.17099   0.00000  Uiso   1.00
C66    C     0.39023   0.29446   0.19506   0.00000  Uiso   1.00
C67    C     0.12369   0.12351   0.34218   0.00000  Uiso   1.00
C68    C     0.01953   0.14494   0.37516   0.00000  Uiso   1.00
C69    C     0.99166   0.13314   0.49263   0.00000  Uiso   1.00
H70    H     0.36422   0.04727   0.43185   0.00000  Uiso   1.00
H71    H     0.38639   0.91269   0.31432   0.00000  Uiso   1.00
H72    H     0.50019   0.16544   0.39995   0.00000  Uiso   1.00
H73    H     0.22674   0.05476   0.60409   0.00000  Uiso   1.00
H74    H     0.37849   0.77763   0.14807   0.00000  Uiso   1.00
H75    H     0.61843   0.31060   0.32864   0.00000  Uiso   1.00
H76    H     0.04181   0.07721   0.75912   0.00000  Uiso   1.00
H77    H     0.11374   0.15630   0.15506   0.00000  Uiso   1.00
H78    H     0.12215   0.02770   0.02234   0.00000  Uiso   1.00
H79    H     0.23596   0.28046   0.10796   0.00000  Uiso   1.00
H80    H     0.96251   0.16977   0.31210   0.00000  Uiso   1.00
H81    H     0.16403   0.87098   0.91108   0.00000  Uiso   1.00
H82    H     0.40397   0.40396   0.09166   0.00000  Uiso   1.00
H83    H     0.82735   0.17055   0.52213   0.00000  Uiso   1.00
O84    O     0.28134   0.73775   0.94724   0.00000  Uiso   1.00
O85    O     0.59613   0.43699   0.18417   0.00000  Uiso   1.00
O86    O     0.83962   0.13077   0.74893   0.00000  Uiso   1.00
N87    N     0.32684   0.81725   0.11052   0.00000  Uiso   1.00
N88    N     0.55118   0.31554   0.27933   0.00000  Uiso   1.00
N89    N     0.01210   0.09735   0.68180   0.00000  Uiso   1.00
N90    N     0.21144   0.86748   0.98300   0.00000  Uiso   1.00
N91    N     0.43578   0.36576   0.15181   0.00000  Uiso   1.00
N92    N     0.89670   0.14758   0.55428   0.00000  Uiso   1.00
C93    C     0.69317   0.57225   0.86844   0.00000  Uiso   1.00
C94    C     0.71587   0.51424   0.76621   0.00000  Uiso   1.00
C95    C     0.67066   0.43749   0.75127   0.00000  Uiso   1.00
C96    C     0.70180   0.39391   0.65188   0.00000  Uiso   1.00
C97    C     0.72580   0.29897   0.50549   0.00000  Uiso   1.00
C98    C     0.65402   0.65157   0.81271   0.00000  Uiso   1.00
C99    C     0.55683   0.69029   0.83690   0.00000  Uiso   1.00
C100   C     0.53593   0.76231   0.77666   0.00000  Uiso   1.00
C101   C     0.46395   0.88061   0.70255   0.00000  Uiso   1.00
C102   C     0.80260   0.59142   0.92363   0.00000  Uiso   1.00
C103   C     0.83032   0.57959   0.04108   0.00000  Uiso   1.00
C104   C     0.93450   0.60099   0.07423   0.00000  Uiso   1.00
C105   C     0.09320   0.62591   0.17233   0.00000  Uiso   1.00
C106   C     0.82887   0.63132   0.71848   0.00000  Uiso   1.00
C107   C     0.78957   0.54633   0.68475   0.00000  Uiso   1.00
C108   C     0.82080   0.50285   0.58536   0.00000  Uiso   1.00
C109   C     0.77565   0.42605   0.57028   0.00000  Uiso   1.00
C110   C     0.72773   0.68365   0.73126   0.00000  Uiso   1.00
C111   C     0.70697   0.75564   0.67099   0.00000  Uiso   1.00
C112   C     0.60977   0.79446   0.69506   0.00000  Uiso   1.00
C113   C     0.87631   0.62351   0.84218   0.00000  Uiso   1.00
C114   C     0.98047   0.64494   0.87516   0.00000  Uiso   1.00
C115   C     0.00834   0.63314   0.99263   0.00000  Uiso   1.00
H116   H     0.63578   0.54727   0.93185   0.00000  Uiso   1.00
H117   H     0.61361   0.41269   0.81432   0.00000  Uiso   1.00
H118   H     0.49981   0.66544   0.89995   0.00000  Uiso   1.00
H119   H     0.77326   0.55476   0.10409   0.00000  Uiso   1.00
H120   H     0.62151   0.27763   0.64807   0.00000  Uiso   1.00
H121   H     0.38157   0.81060   0.82864   0.00000  Uiso   1.00
H122   H     0.95819   0.57721   0.25912   0.00000  Uiso   1.00
H123   H     0.88626   0.65630   0.65506   0.00000  Uiso   1.00
H124   H     0.87785   0.52770   0.52234   0.00000  Uiso   1.00
H125   H     0.76404   0.78046   0.60796   0.00000  Uiso   1.00
H126   H     0.03749   0.66977   0.81210   0.00000  Uiso   1.00
H127   H     0.83597   0.37098   0.41108   0.00000  Uiso   1.00
H128   H     0.59603   0.90396   0.59166   0.00000  Uiso   1.00
H129   H     0.17265   0.67055   0.02213   0.00000  Uiso   1.00
O130   O     0.71866   0.23775   0.44724   0.00000  Uiso   1.00
O131   O     0.40387   0.93699   0.68417   0.00000  Uiso   1.00
O132   O     0.16038   0.63077   0.24893   0.00000  Uiso   1.00
N133   N     0.67316   0.31725   0.61052   0.00000  Uiso   1.00
N134   N     0.44882   0.81554   0.77933   0.00000  Uiso   1.00
N135   N     0.98790   0.59735   0.18180   0.00000  Uiso   1.00
N136   N     0.78856   0.36748   0.48300   0.00000  Uiso   1.00
N137   N     0.56422   0.86576   0.65181   0.00000  Uiso   1.00
N138   N     0.10330   0.64758   0.05428   0.00000  Uiso   1.00
C139   C     0.30683   0.42775   0.86844   0.00000  Uiso   1.00
C140   C     0.28413   0.48576   0.76621   0.00000  Uiso   1.00
C141   C     0.32934   0.56251   0.75127   0.00000  Uiso   1.00
C142   C     0.29820   0.60609   0.65188   0.00000  Uiso   1.00
C143   C     0.27420   0.70103   0.50549   0.00000  Uiso   1.00
C144   C     0.34598   0.34843   0.81271   0.00000  Uiso   1.00
C145   C     0.44317   0.30971   0.83690   0.00000  Uiso   1.00
C146   C     0.46407   0.23769   0.77666   0.00000  Uiso   1.00
C147   C     0.53605   0.11939   0.70255   0.00000  Uiso   1.00
C148   C     0.19740   0.40858   0.92363   0.00000  Uiso   1.00
C149   C     0.16968   0.42041   0.04108   0.00000  Uiso   1.00
C150   C     0.06550   0.39901   0.07423   0.00000  Uiso   1.00
C151   C     0.90680   0.37409   0.17233   0.00000  Uiso   1.00
C152   C     0.17113   0.36868   0.71848   0.00000  Uiso   1.00
C153   C     0.21043   0.45367   0.68475   0.00000  Uiso   1.00
C154   C     0.17920   0.49715   0.58536   0.00000  Uiso   1.00
C155   C     0.22435   0.57395   0.57028   0.00000  Uiso   1.00
C156   C     0.27227   0.31635   0.73126   0.00000  Uiso   1.00
C157   C     0.29303   0.24436   0.67099   0.00000  Uiso   1.00
C158   C     0.39023   0.20554   0.69506   0.00000  Uiso   1.00
C159   C     0.12369   0.37649   0.84218   0.00000  Uiso   1.00
C160   C     0.01953   0.35506   0.87516   0.00000  Uiso   1.00
C161   C     0.99166   0.36686   0.99263   0.00000  Uiso   1.00
H162   H     0.36422   0.45273   0.93185   0.00000  Uiso   1.00
H163   H     0.38639   0.58731   0.81432   0.00000  Uiso   1.00
H164   H     0.50019   0.33456   0.89995   0.00000  Uiso   1.00
H165   H     0.22674   0.44524   0.10409   0.00000  Uiso   1.00
H166   H     0.37849   0.72237   0.64807   0.00000  Uiso   1.00
H167   H     0.61843   0.18940   0.82864   0.00000  Uiso   1.00
H168   H     0.04181   0.42279   0.25912   0.00000  Uiso   1.00
H169   H     0.11374   0.34370   0.65506   0.00000  Uiso   1.00
H170   H     0.12215   0.47230   0.52234   0.00000  Uiso   1.00
H171   H     0.23596   0.21954   0.60796   0.00000  Uiso   1.00
H172   H     0.96251   0.33023   0.81210   0.00000  Uiso   1.00
H173   H     0.16403   0.62902   0.41108   0.00000  Uiso   1.00
H174   H     0.40397   0.09604   0.59166   0.00000  Uiso   1.00
H175   H     0.82735   0.32945   0.02213   0.00000  Uiso   1.00
O176   O     0.28134   0.76225   0.44724   0.00000  Uiso   1.00
O177   O     0.59613   0.06301   0.68417   0.00000  Uiso   1.00
O178   O     0.83962   0.36923   0.24893   0.00000  Uiso   1.00
N179   N     0.32684   0.68275   0.61052   0.00000  Uiso   1.00
N180   N     0.55118   0.18446   0.77933   0.00000  Uiso   1.00
N181   N     0.01210   0.40265   0.18180   0.00000  Uiso   1.00
N182   N     0.21144   0.63252   0.48300   0.00000  Uiso   1.00
N183   N     0.43578   0.13424   0.65181   0.00000  Uiso   1.00
N184   N     0.89670   0.35242   0.05428   0.00000  Uiso   1.00
