data_job_03171
_audit_creation_date              2018-12-19
_audit_creation_method            'Materials Studio'
_symmetry_space_group_name_H-M    'P1'
_symmetry_Int_Tables_number       1
_symmetry_cell_setting            triclinic
loop_
_symmetry_equiv_pos_as_xyz
  x,y,z
_cell_length_a                    12.0372
_cell_length_b                    12.0372
_cell_length_c                    38.6741
_cell_angle_alpha                 90.0000
_cell_angle_beta                  90.0000
_cell_angle_gamma                 90.0000
loop_
_atom_site_label
_atom_site_type_symbol
_atom_site_fract_x
_atom_site_fract_y
_atom_site_fract_z
_atom_site_U_iso_or_equiv
_atom_site_adp_type
_atom_site_occupancy
C1     C     0.11177   0.75818   0.17203   0.00000  Uiso   1.00
C2     C     0.04136   0.67728   0.15104   0.00000  Uiso   1.00
C3     C     0.07434   0.62361   0.12099   0.00000  Uiso   1.00
C4     C     0.99777   0.55283   0.10564   0.00000  Uiso   1.00
C5     C     0.90449   0.42976   0.07088   0.00000  Uiso   1.00
C6     C     0.04451   0.86527   0.17436   0.00000  Uiso   1.00
C7     C     0.08015   0.96966   0.16392   0.00000  Uiso   1.00
C8     C     0.00624   0.05714   0.16821   0.00000  Uiso   1.00
C9     C     0.91789   0.22594   0.16967   0.00000  Uiso   1.00
C10    C     0.11607   0.71126   0.20863   0.00000  Uiso   1.00
C11    C     0.21187   0.68618   0.22700   0.00000  Uiso   1.00
C12    C     0.19820   0.64400   0.26014   0.00000  Uiso   1.00
C13    C     0.22096   0.57367   0.31481   0.00000  Uiso   1.00
C14    C     0.91714   0.72792   0.19822   0.00000  Uiso   1.00
C15    C     0.93564   0.66085   0.16527   0.00000  Uiso   1.00
C16    C     0.85900   0.59012   0.14996   0.00000  Uiso   1.00
C17    C     0.89186   0.53635   0.11989   0.00000  Uiso   1.00
C18    C     0.93880   0.84884   0.18858   0.00000  Uiso   1.00
C19    C     0.86482   0.93618   0.19289   0.00000  Uiso   1.00
C20    C     0.90033   0.04067   0.18246   0.00000  Uiso   1.00
C21    C     0.01035   0.69482   0.22285   0.00000  Uiso   1.00
C22    C     0.99653   0.65268   0.25598   0.00000  Uiso   1.00
C23    C     0.09230   0.62754   0.27440   0.00000  Uiso   1.00
H24    H     0.19408   0.77099   0.16095   0.00000  Uiso   1.00
H25    H     0.15616   0.63636   0.10998   0.00000  Uiso   1.00
H26    H     0.16197   0.98236   0.15291   0.00000  Uiso   1.00
H27    H     0.29367   0.69891   0.21598   0.00000  Uiso   1.00
H28    H     0.06748   0.47989   0.05974   0.00000  Uiso   1.00
H29    H     0.07976   0.20945   0.15027   0.00000  Uiso   1.00
H30    H     0.35747   0.61175   0.28327   0.00000  Uiso   1.00
H31    H     0.83483   0.71512   0.20929   0.00000  Uiso   1.00
H32    H     0.77720   0.57742   0.16098   0.00000  Uiso   1.00
H33    H     0.78301   0.92342   0.20391   0.00000  Uiso   1.00
H34    H     0.91471   0.63997   0.26698   0.00000  Uiso   1.00
H35    H     0.75990   0.43205   0.10113   0.00000  Uiso   1.00
H36    H     0.77218   0.16162   0.19166   0.00000  Uiso   1.00
H37    H     0.04989   0.56391   0.32466   0.00000  Uiso   1.00
O38    O     0.88224   0.36642   0.04778   0.00000  Uiso   1.00
O39    O     0.89836   0.32359   0.16655   0.00000  Uiso   1.00
O40    O     0.26271   0.53941   0.34104   0.00000  Uiso   1.00
N41    N     0.00301   0.48751   0.07612   0.00000  Uiso   1.00
N42    N     0.01448   0.16961   0.16075   0.00000  Uiso   1.00
N43    N     0.27412   0.61083   0.28510   0.00000  Uiso   1.00
N44    N     0.83750   0.46177   0.09839   0.00000  Uiso   1.00
N45    N     0.84897   0.14387   0.18302   0.00000  Uiso   1.00
N46    N     0.10861   0.58509   0.30737   0.00000  Uiso   1.00
C47    C     0.88823   0.24182   0.67203   0.00000  Uiso   1.00
C48    C     0.95864   0.32272   0.65104   0.00000  Uiso   1.00
C49    C     0.92566   0.37639   0.62099   0.00000  Uiso   1.00
C50    C     0.00223   0.44717   0.60564   0.00000  Uiso   1.00
C51    C     0.09551   0.57024   0.57088   0.00000  Uiso   1.00
C52    C     0.95549   0.13473   0.67436   0.00000  Uiso   1.00
C53    C     0.91985   0.03034   0.66392   0.00000  Uiso   1.00
C54    C     0.99376   0.94286   0.66821   0.00000  Uiso   1.00
C55    C     0.08211   0.77406   0.66967   0.00000  Uiso   1.00
C56    C     0.88393   0.28874   0.70863   0.00000  Uiso   1.00
C57    C     0.78813   0.31382   0.72700   0.00000  Uiso   1.00
C58    C     0.80180   0.35600   0.76014   0.00000  Uiso   1.00
C59    C     0.77904   0.42633   0.81481   0.00000  Uiso   1.00
C60    C     0.08286   0.27208   0.69822   0.00000  Uiso   1.00
C61    C     0.06436   0.33915   0.66527   0.00000  Uiso   1.00
C62    C     0.14100   0.40988   0.64996   0.00000  Uiso   1.00
C63    C     0.10814   0.46365   0.61989   0.00000  Uiso   1.00
C64    C     0.06120   0.15116   0.68858   0.00000  Uiso   1.00
C65    C     0.13518   0.06382   0.69289   0.00000  Uiso   1.00
C66    C     0.09967   0.95933   0.68246   0.00000  Uiso   1.00
C67    C     0.98965   0.30518   0.72285   0.00000  Uiso   1.00
C68    C     0.00347   0.34732   0.75598   0.00000  Uiso   1.00
C69    C     0.90770   0.37246   0.77440   0.00000  Uiso   1.00
H70    H     0.80592   0.22901   0.66095   0.00000  Uiso   1.00
H71    H     0.84384   0.36364   0.60998   0.00000  Uiso   1.00
H72    H     0.83803   0.01764   0.65291   0.00000  Uiso   1.00
H73    H     0.70633   0.30109   0.71598   0.00000  Uiso   1.00
H74    H     0.93252   0.52011   0.55974   0.00000  Uiso   1.00
H75    H     0.92024   0.79055   0.65027   0.00000  Uiso   1.00
H76    H     0.64253   0.38825   0.78327   0.00000  Uiso   1.00
H77    H     0.16517   0.28488   0.70929   0.00000  Uiso   1.00
H78    H     0.22280   0.42258   0.66098   0.00000  Uiso   1.00
H79    H     0.21699   0.07658   0.70391   0.00000  Uiso   1.00
H80    H     0.08529   0.36003   0.76698   0.00000  Uiso   1.00
H81    H     0.24010   0.56795   0.60113   0.00000  Uiso   1.00
H82    H     0.22782   0.83838   0.69166   0.00000  Uiso   1.00
H83    H     0.95011   0.43609   0.82466   0.00000  Uiso   1.00
O84    O     0.11776   0.63358   0.54778   0.00000  Uiso   1.00
O85    O     0.10164   0.67641   0.66655   0.00000  Uiso   1.00
O86    O     0.73729   0.46059   0.84104   0.00000  Uiso   1.00
N87    N     0.99699   0.51249   0.57612   0.00000  Uiso   1.00
N88    N     0.98552   0.83039   0.66075   0.00000  Uiso   1.00
N89    N     0.72588   0.38917   0.78510   0.00000  Uiso   1.00
N90    N     0.16250   0.53823   0.59839   0.00000  Uiso   1.00
N91    N     0.15103   0.85613   0.68302   0.00000  Uiso   1.00
N92    N     0.89139   0.41491   0.80737   0.00000  Uiso   1.00
C93    C     0.24182   0.11177   0.42203   0.00000  Uiso   1.00
C94    C     0.32272   0.04136   0.40104   0.00000  Uiso   1.00
C95    C     0.37639   0.07434   0.37099   0.00000  Uiso   1.00
C96    C     0.44717   0.99777   0.35564   0.00000  Uiso   1.00
C97    C     0.57024   0.90449   0.32088   0.00000  Uiso   1.00
C98    C     0.13473   0.04451   0.42436   0.00000  Uiso   1.00
C99    C     0.03034   0.08015   0.41392   0.00000  Uiso   1.00
C100   C     0.94286   0.00624   0.41821   0.00000  Uiso   1.00
C101   C     0.77406   0.91789   0.41967   0.00000  Uiso   1.00
C102   C     0.28874   0.11607   0.45863   0.00000  Uiso   1.00
C103   C     0.31382   0.21187   0.47700   0.00000  Uiso   1.00
C104   C     0.35600   0.19820   0.51014   0.00000  Uiso   1.00
C105   C     0.42633   0.22096   0.56481   0.00000  Uiso   1.00
C106   C     0.27208   0.91714   0.44822   0.00000  Uiso   1.00
C107   C     0.33915   0.93564   0.41527   0.00000  Uiso   1.00
C108   C     0.40988   0.85900   0.39996   0.00000  Uiso   1.00
C109   C     0.46365   0.89186   0.36989   0.00000  Uiso   1.00
C110   C     0.15116   0.93880   0.43858   0.00000  Uiso   1.00
C111   C     0.06382   0.86482   0.44289   0.00000  Uiso   1.00
C112   C     0.95933   0.90033   0.43246   0.00000  Uiso   1.00
C113   C     0.30518   0.01035   0.47285   0.00000  Uiso   1.00
C114   C     0.34732   0.99653   0.50598   0.00000  Uiso   1.00
C115   C     0.37246   0.09230   0.52440   0.00000  Uiso   1.00
H116   H     0.22901   0.19408   0.41095   0.00000  Uiso   1.00
H117   H     0.36364   0.15616   0.35998   0.00000  Uiso   1.00
H118   H     0.01764   0.16197   0.40291   0.00000  Uiso   1.00
H119   H     0.30109   0.29367   0.46598   0.00000  Uiso   1.00
H120   H     0.52011   0.06748   0.30974   0.00000  Uiso   1.00
H121   H     0.79055   0.07976   0.40027   0.00000  Uiso   1.00
H122   H     0.38825   0.35747   0.53327   0.00000  Uiso   1.00
H123   H     0.28488   0.83483   0.45929   0.00000  Uiso   1.00
H124   H     0.42258   0.77720   0.41098   0.00000  Uiso   1.00
H125   H     0.07658   0.78301   0.45391   0.00000  Uiso   1.00
H126   H     0.36003   0.91471   0.51698   0.00000  Uiso   1.00
H127   H     0.56795   0.75990   0.35113   0.00000  Uiso   1.00
H128   H     0.83838   0.77218   0.44166   0.00000  Uiso   1.00
H129   H     0.43609   0.04989   0.57466   0.00000  Uiso   1.00
O130   O     0.63358   0.88224   0.29778   0.00000  Uiso   1.00
O131   O     0.67641   0.89836   0.41655   0.00000  Uiso   1.00
O132   O     0.46059   0.26271   0.59104   0.00000  Uiso   1.00
N133   N     0.51249   0.00301   0.32612   0.00000  Uiso   1.00
N134   N     0.83039   0.01448   0.41075   0.00000  Uiso   1.00
N135   N     0.38917   0.27412   0.53510   0.00000  Uiso   1.00
N136   N     0.53823   0.83750   0.34839   0.00000  Uiso   1.00
N137   N     0.85613   0.84897   0.43302   0.00000  Uiso   1.00
N138   N     0.41491   0.10861   0.55737   0.00000  Uiso   1.00
C139   C     0.75818   0.88823   0.92203   0.00000  Uiso   1.00
C140   C     0.67728   0.95864   0.90104   0.00000  Uiso   1.00
C141   C     0.62361   0.92566   0.87099   0.00000  Uiso   1.00
C142   C     0.55283   0.00223   0.85564   0.00000  Uiso   1.00
C143   C     0.42976   0.09551   0.82088   0.00000  Uiso   1.00
C144   C     0.86527   0.95549   0.92436   0.00000  Uiso   1.00
C145   C     0.96966   0.91985   0.91392   0.00000  Uiso   1.00
C146   C     0.05714   0.99376   0.91821   0.00000  Uiso   1.00
C147   C     0.22594   0.08211   0.91967   0.00000  Uiso   1.00
C148   C     0.71126   0.88393   0.95863   0.00000  Uiso   1.00
C149   C     0.68618   0.78813   0.97700   0.00000  Uiso   1.00
C150   C     0.64400   0.80180   0.01014   0.00000  Uiso   1.00
C151   C     0.57367   0.77904   0.06481   0.00000  Uiso   1.00
C152   C     0.72792   0.08286   0.94822   0.00000  Uiso   1.00
C153   C     0.66085   0.06436   0.91527   0.00000  Uiso   1.00
C154   C     0.59012   0.14100   0.89996   0.00000  Uiso   1.00
C155   C     0.53635   0.10814   0.86989   0.00000  Uiso   1.00
C156   C     0.84884   0.06120   0.93858   0.00000  Uiso   1.00
C157   C     0.93618   0.13518   0.94289   0.00000  Uiso   1.00
C158   C     0.04067   0.09967   0.93246   0.00000  Uiso   1.00
C159   C     0.69482   0.98965   0.97285   0.00000  Uiso   1.00
C160   C     0.65268   0.00347   0.00598   0.00000  Uiso   1.00
C161   C     0.62754   0.90770   0.02440   0.00000  Uiso   1.00
H162   H     0.77099   0.80592   0.91095   0.00000  Uiso   1.00
H163   H     0.63636   0.84384   0.85998   0.00000  Uiso   1.00
H164   H     0.98236   0.83803   0.90291   0.00000  Uiso   1.00
H165   H     0.69891   0.70633   0.96598   0.00000  Uiso   1.00
H166   H     0.47989   0.93252   0.80974   0.00000  Uiso   1.00
H167   H     0.20945   0.92024   0.90027   0.00000  Uiso   1.00
H168   H     0.61175   0.64253   0.03327   0.00000  Uiso   1.00
H169   H     0.71512   0.16517   0.95929   0.00000  Uiso   1.00
H170   H     0.57742   0.22280   0.91098   0.00000  Uiso   1.00
H171   H     0.92342   0.21699   0.95391   0.00000  Uiso   1.00
H172   H     0.63997   0.08529   0.01698   0.00000  Uiso   1.00
H173   H     0.43205   0.24010   0.85113   0.00000  Uiso   1.00
H174   H     0.16162   0.22782   0.94166   0.00000  Uiso   1.00
H175   H     0.56391   0.95011   0.07466   0.00000  Uiso   1.00
O176   O     0.36642   0.11776   0.79778   0.00000  Uiso   1.00
O177   O     0.32359   0.10164   0.91655   0.00000  Uiso   1.00
O178   O     0.53941   0.73729   0.09104   0.00000  Uiso   1.00
N179   N     0.48751   0.99699   0.82612   0.00000  Uiso   1.00
N180   N     0.16961   0.98552   0.91075   0.00000  Uiso   1.00
N181   N     0.61083   0.72588   0.03510   0.00000  Uiso   1.00
N182   N     0.46177   0.16250   0.84839   0.00000  Uiso   1.00
N183   N     0.14387   0.15103   0.93302   0.00000  Uiso   1.00
N184   N     0.58509   0.89139   0.05737   0.00000  Uiso   1.00
C185   C     0.88823   0.75818   0.82797   0.00000  Uiso   1.00
C186   C     0.95864   0.67728   0.84896   0.00000  Uiso   1.00
C187   C     0.92566   0.62361   0.87901   0.00000  Uiso   1.00
C188   C     0.00223   0.55283   0.89436   0.00000  Uiso   1.00
C189   C     0.09551   0.42976   0.92912   0.00000  Uiso   1.00
C190   C     0.95549   0.86527   0.82564   0.00000  Uiso   1.00
C191   C     0.91985   0.96966   0.83608   0.00000  Uiso   1.00
C192   C     0.99376   0.05714   0.83179   0.00000  Uiso   1.00
C193   C     0.08211   0.22594   0.83033   0.00000  Uiso   1.00
C194   C     0.88393   0.71126   0.79137   0.00000  Uiso   1.00
C195   C     0.78813   0.68618   0.77300   0.00000  Uiso   1.00
C196   C     0.80180   0.64400   0.73986   0.00000  Uiso   1.00
C197   C     0.77904   0.57367   0.68519   0.00000  Uiso   1.00
C198   C     0.08286   0.72792   0.80178   0.00000  Uiso   1.00
C199   C     0.06436   0.66085   0.83473   0.00000  Uiso   1.00
C200   C     0.14100   0.59012   0.85004   0.00000  Uiso   1.00
C201   C     0.10814   0.53635   0.88011   0.00000  Uiso   1.00
C202   C     0.06120   0.84884   0.81142   0.00000  Uiso   1.00
C203   C     0.13518   0.93618   0.80711   0.00000  Uiso   1.00
C204   C     0.09967   0.04067   0.81754   0.00000  Uiso   1.00
C205   C     0.98965   0.69482   0.77715   0.00000  Uiso   1.00
C206   C     0.00347   0.65268   0.74402   0.00000  Uiso   1.00
C207   C     0.90770   0.62754   0.72560   0.00000  Uiso   1.00
H208   H     0.80592   0.77099   0.83905   0.00000  Uiso   1.00
H209   H     0.84384   0.63636   0.89002   0.00000  Uiso   1.00
H210   H     0.83803   0.98236   0.84709   0.00000  Uiso   1.00
H211   H     0.70633   0.69891   0.78402   0.00000  Uiso   1.00
H212   H     0.93252   0.47989   0.94026   0.00000  Uiso   1.00
H213   H     0.92024   0.20945   0.84973   0.00000  Uiso   1.00
H214   H     0.64253   0.61175   0.71673   0.00000  Uiso   1.00
H215   H     0.16517   0.71512   0.79071   0.00000  Uiso   1.00
H216   H     0.22280   0.57742   0.83902   0.00000  Uiso   1.00
H217   H     0.21699   0.92342   0.79609   0.00000  Uiso   1.00
H218   H     0.08529   0.63997   0.73302   0.00000  Uiso   1.00
H219   H     0.24010   0.43205   0.89887   0.00000  Uiso   1.00
H220   H     0.22782   0.16162   0.80834   0.00000  Uiso   1.00
H221   H     0.95011   0.56391   0.67534   0.00000  Uiso   1.00
O222   O     0.11776   0.36642   0.95222   0.00000  Uiso   1.00
O223   O     0.10164   0.32359   0.83345   0.00000  Uiso   1.00
O224   O     0.73729   0.53941   0.65896   0.00000  Uiso   1.00
N225   N     0.99699   0.48751   0.92388   0.00000  Uiso   1.00
N226   N     0.98552   0.16961   0.83925   0.00000  Uiso   1.00
N227   N     0.72588   0.61083   0.71490   0.00000  Uiso   1.00
N228   N     0.16250   0.46177   0.90161   0.00000  Uiso   1.00
N229   N     0.15103   0.14387   0.81698   0.00000  Uiso   1.00
N230   N     0.89139   0.58509   0.69263   0.00000  Uiso   1.00
C231   C     0.11177   0.24182   0.32797   0.00000  Uiso   1.00
C232   C     0.04136   0.32272   0.34896   0.00000  Uiso   1.00
C233   C     0.07434   0.37639   0.37901   0.00000  Uiso   1.00
C234   C     0.99777   0.44717   0.39436   0.00000  Uiso   1.00
C235   C     0.90449   0.57024   0.42912   0.00000  Uiso   1.00
C236   C     0.04451   0.13473   0.32564   0.00000  Uiso   1.00
C237   C     0.08015   0.03034   0.33608   0.00000  Uiso   1.00
C238   C     0.00624   0.94286   0.33179   0.00000  Uiso   1.00
C239   C     0.91789   0.77406   0.33033   0.00000  Uiso   1.00
C240   C     0.11607   0.28874   0.29137   0.00000  Uiso   1.00
C241   C     0.21187   0.31382   0.27300   0.00000  Uiso   1.00
C242   C     0.19820   0.35600   0.23986   0.00000  Uiso   1.00
C243   C     0.22096   0.42633   0.18519   0.00000  Uiso   1.00
C244   C     0.91714   0.27208   0.30178   0.00000  Uiso   1.00
C245   C     0.93564   0.33915   0.33473   0.00000  Uiso   1.00
C246   C     0.85900   0.40988   0.35004   0.00000  Uiso   1.00
C247   C     0.89186   0.46365   0.38011   0.00000  Uiso   1.00
C248   C     0.93880   0.15116   0.31142   0.00000  Uiso   1.00
C249   C     0.86482   0.06382   0.30711   0.00000  Uiso   1.00
C250   C     0.90033   0.95933   0.31754   0.00000  Uiso   1.00
C251   C     0.01035   0.30518   0.27715   0.00000  Uiso   1.00
C252   C     0.99653   0.34732   0.24402   0.00000  Uiso   1.00
C253   C     0.09230   0.37246   0.22560   0.00000  Uiso   1.00
H254   H     0.19408   0.22901   0.33905   0.00000  Uiso   1.00
H255   H     0.15616   0.36364   0.39002   0.00000  Uiso   1.00
H256   H     0.16197   0.01764   0.34709   0.00000  Uiso   1.00
H257   H     0.29367   0.30109   0.28402   0.00000  Uiso   1.00
H258   H     0.06748   0.52011   0.44026   0.00000  Uiso   1.00
H259   H     0.07976   0.79055   0.34973   0.00000  Uiso   1.00
H260   H     0.35747   0.38825   0.21673   0.00000  Uiso   1.00
H261   H     0.83483   0.28488   0.29071   0.00000  Uiso   1.00
H262   H     0.77720   0.42258   0.33902   0.00000  Uiso   1.00
H263   H     0.78301   0.07658   0.29609   0.00000  Uiso   1.00
H264   H     0.91471   0.36003   0.23302   0.00000  Uiso   1.00
H265   H     0.75990   0.56795   0.39887   0.00000  Uiso   1.00
H266   H     0.77218   0.83838   0.30834   0.00000  Uiso   1.00
H267   H     0.04989   0.43609   0.17534   0.00000  Uiso   1.00
O268   O     0.88224   0.63358   0.45222   0.00000  Uiso   1.00
O269   O     0.89836   0.67641   0.33345   0.00000  Uiso   1.00
O270   O     0.26271   0.46059   0.15896   0.00000  Uiso   1.00
N271   N     0.00301   0.51249   0.42388   0.00000  Uiso   1.00
N272   N     0.01448   0.83039   0.33925   0.00000  Uiso   1.00
N273   N     0.27412   0.38917   0.21490   0.00000  Uiso   1.00
N274   N     0.83750   0.53823   0.40161   0.00000  Uiso   1.00
N275   N     0.84897   0.85613   0.31698   0.00000  Uiso   1.00
N276   N     0.10861   0.41491   0.19263   0.00000  Uiso   1.00
C277   C     0.75818   0.11177   0.57797   0.00000  Uiso   1.00
C278   C     0.67728   0.04136   0.59896   0.00000  Uiso   1.00
C279   C     0.62361   0.07434   0.62901   0.00000  Uiso   1.00
C280   C     0.55283   0.99777   0.64436   0.00000  Uiso   1.00
C281   C     0.42976   0.90449   0.67912   0.00000  Uiso   1.00
C282   C     0.86527   0.04451   0.57564   0.00000  Uiso   1.00
C283   C     0.96966   0.08015   0.58608   0.00000  Uiso   1.00
C284   C     0.05714   0.00624   0.58179   0.00000  Uiso   1.00
C285   C     0.22594   0.91789   0.58033   0.00000  Uiso   1.00
C286   C     0.71126   0.11607   0.54137   0.00000  Uiso   1.00
C287   C     0.68618   0.21187   0.52300   0.00000  Uiso   1.00
C288   C     0.64400   0.19820   0.48986   0.00000  Uiso   1.00
C289   C     0.57367   0.22096   0.43519   0.00000  Uiso   1.00
C290   C     0.72792   0.91714   0.55178   0.00000  Uiso   1.00
C291   C     0.66085   0.93564   0.58473   0.00000  Uiso   1.00
C292   C     0.59012   0.85900   0.60004   0.00000  Uiso   1.00
C293   C     0.53635   0.89186   0.63011   0.00000  Uiso   1.00
C294   C     0.84884   0.93880   0.56142   0.00000  Uiso   1.00
C295   C     0.93618   0.86482   0.55711   0.00000  Uiso   1.00
C296   C     0.04067   0.90033   0.56754   0.00000  Uiso   1.00
C297   C     0.69482   0.01035   0.52715   0.00000  Uiso   1.00
C298   C     0.65268   0.99653   0.49402   0.00000  Uiso   1.00
C299   C     0.62754   0.09230   0.47560   0.00000  Uiso   1.00
H300   H     0.77099   0.19408   0.58905   0.00000  Uiso   1.00
H301   H     0.63636   0.15616   0.64002   0.00000  Uiso   1.00
H302   H     0.98236   0.16197   0.59709   0.00000  Uiso   1.00
H303   H     0.69891   0.29367   0.53402   0.00000  Uiso   1.00
H304   H     0.47989   0.06748   0.69026   0.00000  Uiso   1.00
H305   H     0.20945   0.07976   0.59973   0.00000  Uiso   1.00
H306   H     0.61175   0.35747   0.46673   0.00000  Uiso   1.00
H307   H     0.71512   0.83483   0.54071   0.00000  Uiso   1.00
H308   H     0.57742   0.77720   0.58902   0.00000  Uiso   1.00
H309   H     0.92342   0.78301   0.54609   0.00000  Uiso   1.00
H310   H     0.63997   0.91471   0.48302   0.00000  Uiso   1.00
H311   H     0.43205   0.75990   0.64887   0.00000  Uiso   1.00
H312   H     0.16162   0.77218   0.55834   0.00000  Uiso   1.00
H313   H     0.56391   0.04989   0.42534   0.00000  Uiso   1.00
O314   O     0.36642   0.88224   0.70222   0.00000  Uiso   1.00
O315   O     0.32359   0.89836   0.58345   0.00000  Uiso   1.00
O316   O     0.53941   0.26271   0.40896   0.00000  Uiso   1.00
N317   N     0.48751   0.00301   0.67388   0.00000  Uiso   1.00
N318   N     0.16961   0.01448   0.58925   0.00000  Uiso   1.00
N319   N     0.61083   0.27412   0.46490   0.00000  Uiso   1.00
N320   N     0.46177   0.83750   0.65161   0.00000  Uiso   1.00
N321   N     0.14387   0.84897   0.56698   0.00000  Uiso   1.00
N322   N     0.58509   0.10861   0.44263   0.00000  Uiso   1.00
C323   C     0.24182   0.88823   0.07797   0.00000  Uiso   1.00
C324   C     0.32272   0.95864   0.09896   0.00000  Uiso   1.00
C325   C     0.37639   0.92566   0.12901   0.00000  Uiso   1.00
C326   C     0.44717   0.00223   0.14436   0.00000  Uiso   1.00
C327   C     0.57024   0.09551   0.17912   0.00000  Uiso   1.00
C328   C     0.13473   0.95549   0.07564   0.00000  Uiso   1.00
C329   C     0.03034   0.91985   0.08608   0.00000  Uiso   1.00
C330   C     0.94286   0.99376   0.08179   0.00000  Uiso   1.00
C331   C     0.77406   0.08211   0.08033   0.00000  Uiso   1.00
C332   C     0.28874   0.88393   0.04137   0.00000  Uiso   1.00
C333   C     0.31382   0.78813   0.02300   0.00000  Uiso   1.00
C334   C     0.35600   0.80180   0.98986   0.00000  Uiso   1.00
C335   C     0.42633   0.77904   0.93519   0.00000  Uiso   1.00
C336   C     0.27208   0.08286   0.05178   0.00000  Uiso   1.00
C337   C     0.33915   0.06436   0.08473   0.00000  Uiso   1.00
C338   C     0.40988   0.14100   0.10004   0.00000  Uiso   1.00
C339   C     0.46365   0.10814   0.13011   0.00000  Uiso   1.00
C340   C     0.15116   0.06120   0.06142   0.00000  Uiso   1.00
C341   C     0.06382   0.13518   0.05711   0.00000  Uiso   1.00
C342   C     0.95933   0.09967   0.06754   0.00000  Uiso   1.00
C343   C     0.30518   0.98965   0.02715   0.00000  Uiso   1.00
C344   C     0.34732   0.00347   0.99402   0.00000  Uiso   1.00
C345   C     0.37246   0.90770   0.97560   0.00000  Uiso   1.00
H346   H     0.22901   0.80592   0.08905   0.00000  Uiso   1.00
H347   H     0.36364   0.84384   0.14002   0.00000  Uiso   1.00
H348   H     0.01764   0.83803   0.09709   0.00000  Uiso   1.00
H349   H     0.30109   0.70633   0.03402   0.00000  Uiso   1.00
H350   H     0.52011   0.93252   0.19026   0.00000  Uiso   1.00
H351   H     0.79055   0.92024   0.09973   0.00000  Uiso   1.00
H352   H     0.38825   0.64253   0.96673   0.00000  Uiso   1.00
H353   H     0.28488   0.16517   0.04071   0.00000  Uiso   1.00
H354   H     0.42258   0.22280   0.08902   0.00000  Uiso   1.00
H355   H     0.07658   0.21699   0.04609   0.00000  Uiso   1.00
H356   H     0.36003   0.08529   0.98302   0.00000  Uiso   1.00
H357   H     0.56795   0.24010   0.14887   0.00000  Uiso   1.00
H358   H     0.83838   0.22782   0.05834   0.00000  Uiso   1.00
H359   H     0.43609   0.95011   0.92534   0.00000  Uiso   1.00
O360   O     0.63358   0.11776   0.20222   0.00000  Uiso   1.00
O361   O     0.67641   0.10164   0.08345   0.00000  Uiso   1.00
O362   O     0.46059   0.73729   0.90896   0.00000  Uiso   1.00
N363   N     0.51249   0.99699   0.17388   0.00000  Uiso   1.00
N364   N     0.83039   0.98552   0.08925   0.00000  Uiso   1.00
N365   N     0.38917   0.72588   0.96490   0.00000  Uiso   1.00
N366   N     0.53823   0.16250   0.15161   0.00000  Uiso   1.00
N367   N     0.85613   0.15103   0.06698   0.00000  Uiso   1.00
N368   N     0.41491   0.89139   0.94263   0.00000  Uiso   1.00
