data_job_01928
_audit_creation_date              2018-12-19
_audit_creation_method            'Materials Studio'
_symmetry_space_group_name_H-M    'P1'
_symmetry_Int_Tables_number       1
_symmetry_cell_setting            triclinic
loop_
_symmetry_equiv_pos_as_xyz
  x,y,z
_cell_length_a                    12.4974
_cell_length_b                    10.2197
_cell_length_c                    34.1734
_cell_angle_alpha                 90.0000
_cell_angle_beta                  121.3193
_cell_angle_gamma                 90.0000
loop_
_atom_site_label
_atom_site_type_symbol
_atom_site_fract_x
_atom_site_fract_y
_atom_site_fract_z
_atom_site_U_iso_or_equiv
_atom_site_adp_type
_atom_site_occupancy
C1     C     0.25026   0.11589   0.12805   0.00000  Uiso   1.00
C2     C     0.17402   0.13632   0.15080   0.00000  Uiso   1.00
C3     C     0.10366   0.24650   0.14637   0.00000  Uiso   1.00
C4     C     0.04067   0.24627   0.16994   0.00000  Uiso   1.00
C5     C     0.92124   0.29424   0.20117   0.00000  Uiso   1.00
C6     C     0.38384   0.08746   0.16677   0.00000  Uiso   1.00
C7     C     0.48990   0.15656   0.17577   0.00000  Uiso   1.00
C8     C     0.60353   0.11520   0.21277   0.00000  Uiso   1.00
C9     C     0.80986   0.08727   0.26877   0.00000  Uiso   1.00
C10    C     0.20201   0.98934   0.10067   0.00000  Uiso   1.00
C11    C     0.15521   0.97592   0.05410   0.00000  Uiso   1.00
C12    C     0.11579   0.85193   0.03546   0.00000  Uiso   1.00
C13    C     0.03980   0.67164   0.98884   0.00000  Uiso   1.00
C14    C     0.26351   0.91955   0.17777   0.00000  Uiso   1.00
C15    C     0.18122   0.02967   0.17780   0.00000  Uiso   1.00
C16    C     0.11831   0.02927   0.20138   0.00000  Uiso   1.00
C17    C     0.04786   0.13944   0.19699   0.00000  Uiso   1.00
C18    C     0.39104   0.98082   0.19377   0.00000  Uiso   1.00
C19    C     0.50454   0.93934   0.23077   0.00000  Uiso   1.00
C20    C     0.61074   0.00836   0.23983   0.00000  Uiso   1.00
C21    C     0.20920   0.88269   0.12767   0.00000  Uiso   1.00
C22    C     0.16986   0.75869   0.10910   0.00000  Uiso   1.00
C23    C     0.12300   0.74509   0.06251   0.00000  Uiso   1.00
H24    H     0.24467   0.19891   0.10703   0.00000  Uiso   1.00
H25    H     0.09813   0.32902   0.12548   0.00000  Uiso   1.00
H26    H     0.48430   0.23908   0.15486   0.00000  Uiso   1.00
H27    H     0.14966   0.05847   0.03321   0.00000  Uiso   1.00
H28    H     0.93886   0.42625   0.15785   0.00000  Uiso   1.00
H29    H     0.75314   0.23659   0.21980   0.00000  Uiso   1.00
H30    H     0.04749   0.85573   0.96328   0.00000  Uiso   1.00
H31    H     0.26911   0.83652   0.19879   0.00000  Uiso   1.00
H32    H     0.12389   0.94673   0.22227   0.00000  Uiso   1.00
H33    H     0.51007   0.85680   0.25166   0.00000  Uiso   1.00
H34    H     0.17544   0.67619   0.13001   0.00000  Uiso   1.00
H35    H     0.95978   0.11597   0.23641   0.00000  Uiso   1.00
H36    H     0.77406   0.92632   0.29836   0.00000  Uiso   1.00
H37    H     0.06841   0.54546   0.04184   0.00000  Uiso   1.00
O38    O     0.85339   0.35017   0.21093   0.00000  Uiso   1.00
O39    O     0.92169   0.10134   0.29220   0.00000  Uiso   1.00
O40    O     0.99589   0.60166   0.95566   0.00000  Uiso   1.00
N41    N     0.96369   0.33809   0.17311   0.00000  Uiso   1.00
N42    N     0.72499   0.16078   0.23103   0.00000  Uiso   1.00
N43    N     0.06530   0.80470   0.99121   0.00000  Uiso   1.00
N44    N     0.97495   0.17113   0.21538   0.00000  Uiso   1.00
N45    N     0.73625   0.99383   0.27331   0.00000  Uiso   1.00
N46    N     0.07656   0.63775   0.03349   0.00000  Uiso   1.00
C47    C     0.74974   0.61589   0.37195   0.00000  Uiso   1.00
C48    C     0.82598   0.63632   0.34920   0.00000  Uiso   1.00
C49    C     0.89634   0.74650   0.35363   0.00000  Uiso   1.00
C50    C     0.95933   0.74627   0.33006   0.00000  Uiso   1.00
C51    C     0.07876   0.79424   0.29883   0.00000  Uiso   1.00
C52    C     0.61616   0.58746   0.33323   0.00000  Uiso   1.00
C53    C     0.51010   0.65656   0.32423   0.00000  Uiso   1.00
C54    C     0.39647   0.61520   0.28723   0.00000  Uiso   1.00
C55    C     0.19014   0.58727   0.23123   0.00000  Uiso   1.00
C56    C     0.79799   0.48934   0.39933   0.00000  Uiso   1.00
C57    C     0.84479   0.47592   0.44590   0.00000  Uiso   1.00
C58    C     0.88421   0.35193   0.46454   0.00000  Uiso   1.00
C59    C     0.96020   0.17164   0.51116   0.00000  Uiso   1.00
C60    C     0.73649   0.41955   0.32223   0.00000  Uiso   1.00
C61    C     0.81878   0.52967   0.32220   0.00000  Uiso   1.00
C62    C     0.88169   0.52927   0.29862   0.00000  Uiso   1.00
C63    C     0.95214   0.63944   0.30301   0.00000  Uiso   1.00
C64    C     0.60896   0.48082   0.30623   0.00000  Uiso   1.00
C65    C     0.49546   0.43934   0.26923   0.00000  Uiso   1.00
C66    C     0.38926   0.50836   0.26017   0.00000  Uiso   1.00
C67    C     0.79080   0.38269   0.37233   0.00000  Uiso   1.00
C68    C     0.83014   0.25869   0.39090   0.00000  Uiso   1.00
C69    C     0.87700   0.24509   0.43749   0.00000  Uiso   1.00
H70    H     0.75533   0.69891   0.39297   0.00000  Uiso   1.00
H71    H     0.90187   0.82902   0.37452   0.00000  Uiso   1.00
H72    H     0.51570   0.73908   0.34514   0.00000  Uiso   1.00
H73    H     0.85034   0.55847   0.46679   0.00000  Uiso   1.00
H74    H     0.06114   0.92625   0.34215   0.00000  Uiso   1.00
H75    H     0.24686   0.73659   0.28020   0.00000  Uiso   1.00
H76    H     0.95251   0.35573   0.53672   0.00000  Uiso   1.00
H77    H     0.73089   0.33652   0.30121   0.00000  Uiso   1.00
H78    H     0.87611   0.44673   0.27773   0.00000  Uiso   1.00
H79    H     0.48993   0.35680   0.24834   0.00000  Uiso   1.00
H80    H     0.82456   0.17619   0.36999   0.00000  Uiso   1.00
H81    H     0.04022   0.61597   0.26359   0.00000  Uiso   1.00
H82    H     0.22594   0.42632   0.20164   0.00000  Uiso   1.00
H83    H     0.93159   0.04546   0.45816   0.00000  Uiso   1.00
O84    O     0.14661   0.85017   0.28907   0.00000  Uiso   1.00
O85    O     0.07831   0.60134   0.20780   0.00000  Uiso   1.00
O86    O     0.00411   0.10166   0.54434   0.00000  Uiso   1.00
N87    N     0.03631   0.83809   0.32689   0.00000  Uiso   1.00
N88    N     0.27501   0.66078   0.26897   0.00000  Uiso   1.00
N89    N     0.93470   0.30470   0.50879   0.00000  Uiso   1.00
N90    N     0.02505   0.67113   0.28462   0.00000  Uiso   1.00
N91    N     0.26375   0.49383   0.22669   0.00000  Uiso   1.00
N92    N     0.92344   0.13775   0.46651   0.00000  Uiso   1.00
C93    C     0.74974   0.88411   0.87195   0.00000  Uiso   1.00
C94    C     0.82598   0.86368   0.84920   0.00000  Uiso   1.00
C95    C     0.89634   0.75350   0.85363   0.00000  Uiso   1.00
C96    C     0.95933   0.75373   0.83006   0.00000  Uiso   1.00
C97    C     0.07876   0.70576   0.79883   0.00000  Uiso   1.00
C98    C     0.61616   0.91254   0.83323   0.00000  Uiso   1.00
C99    C     0.51010   0.84344   0.82423   0.00000  Uiso   1.00
C100   C     0.39647   0.88480   0.78723   0.00000  Uiso   1.00
C101   C     0.19014   0.91273   0.73123   0.00000  Uiso   1.00
C102   C     0.79799   0.01066   0.89933   0.00000  Uiso   1.00
C103   C     0.84479   0.02408   0.94590   0.00000  Uiso   1.00
C104   C     0.88421   0.14807   0.96454   0.00000  Uiso   1.00
C105   C     0.96020   0.32836   0.01116   0.00000  Uiso   1.00
C106   C     0.73649   0.08045   0.82223   0.00000  Uiso   1.00
C107   C     0.81878   0.97033   0.82220   0.00000  Uiso   1.00
C108   C     0.88169   0.97073   0.79862   0.00000  Uiso   1.00
C109   C     0.95214   0.86056   0.80301   0.00000  Uiso   1.00
C110   C     0.60896   0.01918   0.80623   0.00000  Uiso   1.00
C111   C     0.49546   0.06066   0.76923   0.00000  Uiso   1.00
C112   C     0.38926   0.99164   0.76017   0.00000  Uiso   1.00
C113   C     0.79080   0.11731   0.87233   0.00000  Uiso   1.00
C114   C     0.83014   0.24131   0.89090   0.00000  Uiso   1.00
C115   C     0.87700   0.25491   0.93749   0.00000  Uiso   1.00
H116   H     0.75533   0.80109   0.89297   0.00000  Uiso   1.00
H117   H     0.90187   0.67098   0.87452   0.00000  Uiso   1.00
H118   H     0.51570   0.76092   0.84514   0.00000  Uiso   1.00
H119   H     0.85034   0.94153   0.96679   0.00000  Uiso   1.00
H120   H     0.06114   0.57375   0.84215   0.00000  Uiso   1.00
H121   H     0.24686   0.76341   0.78020   0.00000  Uiso   1.00
H122   H     0.95251   0.14427   0.03672   0.00000  Uiso   1.00
H123   H     0.73089   0.16348   0.80121   0.00000  Uiso   1.00
H124   H     0.87611   0.05327   0.77773   0.00000  Uiso   1.00
H125   H     0.48993   0.14320   0.74834   0.00000  Uiso   1.00
H126   H     0.82456   0.32381   0.86999   0.00000  Uiso   1.00
H127   H     0.04022   0.88403   0.76359   0.00000  Uiso   1.00
H128   H     0.22594   0.07368   0.70164   0.00000  Uiso   1.00
H129   H     0.93159   0.45454   0.95816   0.00000  Uiso   1.00
O130   O     0.14661   0.64983   0.78907   0.00000  Uiso   1.00
O131   O     0.07831   0.89866   0.70780   0.00000  Uiso   1.00
O132   O     0.00411   0.39834   0.04434   0.00000  Uiso   1.00
N133   N     0.03631   0.66191   0.82689   0.00000  Uiso   1.00
N134   N     0.27501   0.83922   0.76897   0.00000  Uiso   1.00
N135   N     0.93470   0.19530   0.00879   0.00000  Uiso   1.00
N136   N     0.02505   0.82887   0.78462   0.00000  Uiso   1.00
N137   N     0.26375   0.00617   0.72669   0.00000  Uiso   1.00
N138   N     0.92344   0.36225   0.96651   0.00000  Uiso   1.00
C139   C     0.25026   0.38411   0.62805   0.00000  Uiso   1.00
C140   C     0.17402   0.36368   0.65080   0.00000  Uiso   1.00
C141   C     0.10366   0.25350   0.64637   0.00000  Uiso   1.00
C142   C     0.04067   0.25373   0.66994   0.00000  Uiso   1.00
C143   C     0.92124   0.20576   0.70117   0.00000  Uiso   1.00
C144   C     0.38384   0.41254   0.66677   0.00000  Uiso   1.00
C145   C     0.48990   0.34344   0.67577   0.00000  Uiso   1.00
C146   C     0.60353   0.38480   0.71277   0.00000  Uiso   1.00
C147   C     0.80986   0.41273   0.76877   0.00000  Uiso   1.00
C148   C     0.20201   0.51066   0.60067   0.00000  Uiso   1.00
C149   C     0.15521   0.52408   0.55410   0.00000  Uiso   1.00
C150   C     0.11579   0.64807   0.53546   0.00000  Uiso   1.00
C151   C     0.03980   0.82836   0.48884   0.00000  Uiso   1.00
C152   C     0.26351   0.58045   0.67777   0.00000  Uiso   1.00
C153   C     0.18122   0.47033   0.67780   0.00000  Uiso   1.00
C154   C     0.11831   0.47073   0.70138   0.00000  Uiso   1.00
C155   C     0.04786   0.36056   0.69699   0.00000  Uiso   1.00
C156   C     0.39104   0.51918   0.69377   0.00000  Uiso   1.00
C157   C     0.50454   0.56066   0.73077   0.00000  Uiso   1.00
C158   C     0.61074   0.49164   0.73983   0.00000  Uiso   1.00
C159   C     0.20920   0.61731   0.62767   0.00000  Uiso   1.00
C160   C     0.16986   0.74131   0.60910   0.00000  Uiso   1.00
C161   C     0.12300   0.75491   0.56251   0.00000  Uiso   1.00
H162   H     0.24467   0.30109   0.60703   0.00000  Uiso   1.00
H163   H     0.09813   0.17098   0.62548   0.00000  Uiso   1.00
H164   H     0.48430   0.26092   0.65486   0.00000  Uiso   1.00
H165   H     0.14966   0.44153   0.53321   0.00000  Uiso   1.00
H166   H     0.93886   0.07375   0.65785   0.00000  Uiso   1.00
H167   H     0.75314   0.26341   0.71980   0.00000  Uiso   1.00
H168   H     0.04749   0.64427   0.46328   0.00000  Uiso   1.00
H169   H     0.26911   0.66348   0.69879   0.00000  Uiso   1.00
H170   H     0.12389   0.55327   0.72227   0.00000  Uiso   1.00
H171   H     0.51007   0.64320   0.75166   0.00000  Uiso   1.00
H172   H     0.17544   0.82381   0.63001   0.00000  Uiso   1.00
H173   H     0.95978   0.38403   0.73641   0.00000  Uiso   1.00
H174   H     0.77406   0.57368   0.79836   0.00000  Uiso   1.00
H175   H     0.06841   0.95454   0.54184   0.00000  Uiso   1.00
O176   O     0.85339   0.14983   0.71093   0.00000  Uiso   1.00
O177   O     0.92169   0.39866   0.79220   0.00000  Uiso   1.00
O178   O     0.99589   0.89834   0.45566   0.00000  Uiso   1.00
N179   N     0.96369   0.16191   0.67311   0.00000  Uiso   1.00
N180   N     0.72499   0.33922   0.73103   0.00000  Uiso   1.00
N181   N     0.06530   0.69530   0.49121   0.00000  Uiso   1.00
N182   N     0.97495   0.32887   0.71538   0.00000  Uiso   1.00
N183   N     0.73625   0.50617   0.77331   0.00000  Uiso   1.00
N184   N     0.07656   0.86225   0.53349   0.00000  Uiso   1.00
