data_job_00962
_audit_creation_date              2018-12-19
_audit_creation_method            'Materials Studio'
_symmetry_space_group_name_H-M    'P1'
_symmetry_Int_Tables_number       1
_symmetry_cell_setting            triclinic
loop_
_symmetry_equiv_pos_as_xyz
  x,y,z
_cell_length_a                    19.3139
_cell_length_b                    19.3139
_cell_length_c                    12.3500
_cell_angle_alpha                 90.0000
_cell_angle_beta                  90.0000
_cell_angle_gamma                 90.0000
loop_
_atom_site_label
_atom_site_type_symbol
_atom_site_fract_x
_atom_site_fract_y
_atom_site_fract_z
_atom_site_U_iso_or_equiv
_atom_site_adp_type
_atom_site_occupancy
C1     C     0.26883   0.60056   0.68936   0.00000  Uiso   1.00
C2     C     0.23306   0.66944   0.71202   0.00000  Uiso   1.00
C3     C     0.26309   0.73443   0.70234   0.00000  Uiso   1.00
C4     C     0.22172   0.79110   0.72682   0.00000  Uiso   1.00
C5     C     0.17668   0.89929   0.75704   0.00000  Uiso   1.00
C6     C     0.26198   0.55809   0.79290   0.00000  Uiso   1.00
C7     C     0.31631   0.52944   0.85122   0.00000  Uiso   1.00
C8     C     0.29928   0.49235   0.94377   0.00000  Uiso   1.00
C9     C     0.29913   0.42762   0.09951   0.00000  Uiso   1.00
C10    C     0.22451   0.56392   0.60476   0.00000  Uiso   1.00
C11    C     0.24734   0.54016   0.50490   0.00000  Uiso   1.00
C12    C     0.19876   0.50797   0.43906   0.00000  Uiso   1.00
C13    C     0.14043   0.45229   0.30269   0.00000  Uiso   1.00
C14    C     0.14197   0.58563   0.75003   0.00000  Uiso   1.00
C15    C     0.16416   0.66133   0.74497   0.00000  Uiso   1.00
C16    C     0.12273   0.71792   0.76946   0.00000  Uiso   1.00
C17    C     0.15269   0.78298   0.75982   0.00000  Uiso   1.00
C18    C     0.19308   0.54998   0.82585   0.00000  Uiso   1.00
C19    C     0.17596   0.51292   0.91833   0.00000  Uiso   1.00
C20    C     0.23025   0.48423   0.97678   0.00000  Uiso   1.00
C21    C     0.15560   0.55581   0.63771   0.00000  Uiso   1.00
C22    C     0.10698   0.52365   0.57202   0.00000  Uiso   1.00
C23    C     0.12973   0.49985   0.47207   0.00000  Uiso   1.00
H24    H     0.32247   0.60687   0.66372   0.00000  Uiso   1.00
H25    H     0.31642   0.74068   0.67685   0.00000  Uiso   1.00
H26    H     0.36963   0.53571   0.82569   0.00000  Uiso   1.00
H27    H     0.30067   0.54644   0.47943   0.00000  Uiso   1.00
H28    H     0.27932   0.88547   0.70598   0.00000  Uiso   1.00
H29    H     0.39152   0.45326   0.01980   0.00000  Uiso   1.00
H30    H     0.24610   0.47587   0.28964   0.00000  Uiso   1.00
H31    H     0.08832   0.57932   0.77568   0.00000  Uiso   1.00
H32    H     0.06941   0.71163   0.79496   0.00000  Uiso   1.00
H33    H     0.12263   0.50666   0.94380   0.00000  Uiso   1.00
H34    H     0.05367   0.51738   0.59754   0.00000  Uiso   1.00
H35    H     0.07884   0.86188   0.80185   0.00000  Uiso   1.00
H36    H     0.19105   0.42967   0.11567   0.00000  Uiso   1.00
H37    H     0.04562   0.45229   0.38550   0.00000  Uiso   1.00
O38    O     0.17087   0.96120   0.76461   0.00000  Uiso   1.00
O39    O     0.31808   0.39415   0.17632   0.00000  Uiso   1.00
O40    O     0.12729   0.42383   0.21836   0.00000  Uiso   1.00
N41    N     0.23473   0.86176   0.72588   0.00000  Uiso   1.00
N42    N     0.33963   0.45768   0.01929   0.00000  Uiso   1.00
N43    N     0.20368   0.47880   0.33666   0.00000  Uiso   1.00
N44    N     0.12685   0.84907   0.77746   0.00000  Uiso   1.00
N45    N     0.23176   0.44499   0.07088   0.00000  Uiso   1.00
N46    N     0.09581   0.46611   0.38824   0.00000  Uiso   1.00
C47    C     0.76883   0.10056   0.18936   0.00000  Uiso   1.00
C48    C     0.73306   0.16944   0.21202   0.00000  Uiso   1.00
C49    C     0.76309   0.23443   0.20234   0.00000  Uiso   1.00
C50    C     0.72172   0.29110   0.22682   0.00000  Uiso   1.00
C51    C     0.67668   0.39929   0.25704   0.00000  Uiso   1.00
C52    C     0.76198   0.05809   0.29290   0.00000  Uiso   1.00
C53    C     0.81631   0.02944   0.35122   0.00000  Uiso   1.00
C54    C     0.79928   0.99235   0.44377   0.00000  Uiso   1.00
C55    C     0.79913   0.92762   0.59951   0.00000  Uiso   1.00
C56    C     0.72451   0.06392   0.10476   0.00000  Uiso   1.00
C57    C     0.74734   0.04016   0.00490   0.00000  Uiso   1.00
C58    C     0.69876   0.00797   0.93906   0.00000  Uiso   1.00
C59    C     0.64043   0.95229   0.80269   0.00000  Uiso   1.00
C60    C     0.64197   0.08563   0.25003   0.00000  Uiso   1.00
C61    C     0.66416   0.16133   0.24497   0.00000  Uiso   1.00
C62    C     0.62273   0.21792   0.26946   0.00000  Uiso   1.00
C63    C     0.65269   0.28298   0.25982   0.00000  Uiso   1.00
C64    C     0.69308   0.04998   0.32585   0.00000  Uiso   1.00
C65    C     0.67596   0.01292   0.41833   0.00000  Uiso   1.00
C66    C     0.73025   0.98423   0.47678   0.00000  Uiso   1.00
C67    C     0.65560   0.05581   0.13771   0.00000  Uiso   1.00
C68    C     0.60698   0.02365   0.07202   0.00000  Uiso   1.00
C69    C     0.62973   0.99985   0.97207   0.00000  Uiso   1.00
H70    H     0.82247   0.10687   0.16372   0.00000  Uiso   1.00
H71    H     0.81642   0.24068   0.17685   0.00000  Uiso   1.00
H72    H     0.86963   0.03571   0.32569   0.00000  Uiso   1.00
H73    H     0.80067   0.04644   0.97943   0.00000  Uiso   1.00
H74    H     0.77932   0.38547   0.20598   0.00000  Uiso   1.00
H75    H     0.89152   0.95326   0.51980   0.00000  Uiso   1.00
H76    H     0.74610   0.97587   0.78964   0.00000  Uiso   1.00
H77    H     0.58832   0.07932   0.27568   0.00000  Uiso   1.00
H78    H     0.56941   0.21163   0.29496   0.00000  Uiso   1.00
H79    H     0.62263   0.00666   0.44380   0.00000  Uiso   1.00
H80    H     0.55367   0.01738   0.09754   0.00000  Uiso   1.00
H81    H     0.57884   0.36188   0.30185   0.00000  Uiso   1.00
H82    H     0.69105   0.92967   0.61567   0.00000  Uiso   1.00
H83    H     0.54562   0.95229   0.88550   0.00000  Uiso   1.00
O84    O     0.67087   0.46120   0.26461   0.00000  Uiso   1.00
O85    O     0.81808   0.89415   0.67632   0.00000  Uiso   1.00
O86    O     0.62729   0.92383   0.71836   0.00000  Uiso   1.00
N87    N     0.73473   0.36176   0.22588   0.00000  Uiso   1.00
N88    N     0.83963   0.95768   0.51929   0.00000  Uiso   1.00
N89    N     0.70368   0.97880   0.83666   0.00000  Uiso   1.00
N90    N     0.62685   0.34907   0.27746   0.00000  Uiso   1.00
N91    N     0.73176   0.94499   0.57088   0.00000  Uiso   1.00
N92    N     0.59581   0.96611   0.88824   0.00000  Uiso   1.00
C93    C     0.73117   0.39944   0.68936   0.00000  Uiso   1.00
C94    C     0.76694   0.33056   0.71202   0.00000  Uiso   1.00
C95    C     0.73691   0.26557   0.70234   0.00000  Uiso   1.00
C96    C     0.77828   0.20890   0.72682   0.00000  Uiso   1.00
C97    C     0.82332   0.10071   0.75704   0.00000  Uiso   1.00
C98    C     0.73802   0.44191   0.79290   0.00000  Uiso   1.00
C99    C     0.68369   0.47056   0.85122   0.00000  Uiso   1.00
C100   C     0.70072   0.50765   0.94377   0.00000  Uiso   1.00
C101   C     0.70087   0.57238   0.09951   0.00000  Uiso   1.00
C102   C     0.77549   0.43608   0.60476   0.00000  Uiso   1.00
C103   C     0.75266   0.45984   0.50490   0.00000  Uiso   1.00
C104   C     0.80124   0.49203   0.43906   0.00000  Uiso   1.00
C105   C     0.85957   0.54771   0.30269   0.00000  Uiso   1.00
C106   C     0.85803   0.41437   0.75003   0.00000  Uiso   1.00
C107   C     0.83584   0.33867   0.74497   0.00000  Uiso   1.00
C108   C     0.87727   0.28208   0.76946   0.00000  Uiso   1.00
C109   C     0.84731   0.21702   0.75982   0.00000  Uiso   1.00
C110   C     0.80692   0.45002   0.82585   0.00000  Uiso   1.00
C111   C     0.82404   0.48708   0.91833   0.00000  Uiso   1.00
C112   C     0.76975   0.51577   0.97678   0.00000  Uiso   1.00
C113   C     0.84440   0.44419   0.63771   0.00000  Uiso   1.00
C114   C     0.89302   0.47635   0.57202   0.00000  Uiso   1.00
C115   C     0.87027   0.50015   0.47207   0.00000  Uiso   1.00
H116   H     0.67753   0.39313   0.66372   0.00000  Uiso   1.00
H117   H     0.68358   0.25932   0.67685   0.00000  Uiso   1.00
H118   H     0.63037   0.46429   0.82569   0.00000  Uiso   1.00
H119   H     0.69933   0.45356   0.47943   0.00000  Uiso   1.00
H120   H     0.72068   0.11453   0.70598   0.00000  Uiso   1.00
H121   H     0.60848   0.54674   0.01980   0.00000  Uiso   1.00
H122   H     0.75390   0.52413   0.28964   0.00000  Uiso   1.00
H123   H     0.91168   0.42068   0.77568   0.00000  Uiso   1.00
H124   H     0.93059   0.28837   0.79496   0.00000  Uiso   1.00
H125   H     0.87737   0.49334   0.94380   0.00000  Uiso   1.00
H126   H     0.94633   0.48262   0.59754   0.00000  Uiso   1.00
H127   H     0.92116   0.13812   0.80185   0.00000  Uiso   1.00
H128   H     0.80895   0.57033   0.11567   0.00000  Uiso   1.00
H129   H     0.95438   0.54771   0.38550   0.00000  Uiso   1.00
O130   O     0.82913   0.03880   0.76461   0.00000  Uiso   1.00
O131   O     0.68192   0.60585   0.17632   0.00000  Uiso   1.00
O132   O     0.87271   0.57617   0.21836   0.00000  Uiso   1.00
N133   N     0.76527   0.13824   0.72588   0.00000  Uiso   1.00
N134   N     0.66037   0.54232   0.01929   0.00000  Uiso   1.00
N135   N     0.79632   0.52120   0.33666   0.00000  Uiso   1.00
N136   N     0.87315   0.15093   0.77746   0.00000  Uiso   1.00
N137   N     0.76824   0.55501   0.07088   0.00000  Uiso   1.00
N138   N     0.90419   0.53389   0.38824   0.00000  Uiso   1.00
C139   C     0.23117   0.89944   0.18936   0.00000  Uiso   1.00
C140   C     0.26694   0.83056   0.21202   0.00000  Uiso   1.00
C141   C     0.23691   0.76557   0.20234   0.00000  Uiso   1.00
C142   C     0.27828   0.70890   0.22682   0.00000  Uiso   1.00
C143   C     0.32332   0.60071   0.25704   0.00000  Uiso   1.00
C144   C     0.23802   0.94191   0.29290   0.00000  Uiso   1.00
C145   C     0.18369   0.97056   0.35122   0.00000  Uiso   1.00
C146   C     0.20072   0.00765   0.44377   0.00000  Uiso   1.00
C147   C     0.20087   0.07238   0.59951   0.00000  Uiso   1.00
C148   C     0.27549   0.93608   0.10476   0.00000  Uiso   1.00
C149   C     0.25266   0.95984   0.00490   0.00000  Uiso   1.00
C150   C     0.30124   0.99203   0.93906   0.00000  Uiso   1.00
C151   C     0.35957   0.04771   0.80269   0.00000  Uiso   1.00
C152   C     0.35803   0.91437   0.25003   0.00000  Uiso   1.00
C153   C     0.33584   0.83867   0.24497   0.00000  Uiso   1.00
C154   C     0.37727   0.78208   0.26946   0.00000  Uiso   1.00
C155   C     0.34731   0.71702   0.25982   0.00000  Uiso   1.00
C156   C     0.30692   0.95002   0.32585   0.00000  Uiso   1.00
C157   C     0.32404   0.98708   0.41833   0.00000  Uiso   1.00
C158   C     0.26975   0.01577   0.47678   0.00000  Uiso   1.00
C159   C     0.34440   0.94419   0.13771   0.00000  Uiso   1.00
C160   C     0.39302   0.97635   0.07202   0.00000  Uiso   1.00
C161   C     0.37027   0.00015   0.97207   0.00000  Uiso   1.00
H162   H     0.17753   0.89313   0.16372   0.00000  Uiso   1.00
H163   H     0.18358   0.75932   0.17685   0.00000  Uiso   1.00
H164   H     0.13037   0.96429   0.32569   0.00000  Uiso   1.00
H165   H     0.19933   0.95356   0.97943   0.00000  Uiso   1.00
H166   H     0.22068   0.61453   0.20598   0.00000  Uiso   1.00
H167   H     0.10848   0.04674   0.51980   0.00000  Uiso   1.00
H168   H     0.25390   0.02413   0.78964   0.00000  Uiso   1.00
H169   H     0.41168   0.92068   0.27568   0.00000  Uiso   1.00
H170   H     0.43059   0.78837   0.29496   0.00000  Uiso   1.00
H171   H     0.37737   0.99334   0.44380   0.00000  Uiso   1.00
H172   H     0.44633   0.98262   0.09754   0.00000  Uiso   1.00
H173   H     0.42116   0.63812   0.30185   0.00000  Uiso   1.00
H174   H     0.30895   0.07033   0.61567   0.00000  Uiso   1.00
H175   H     0.45438   0.04771   0.88550   0.00000  Uiso   1.00
O176   O     0.32913   0.53880   0.26461   0.00000  Uiso   1.00
O177   O     0.18192   0.10585   0.67632   0.00000  Uiso   1.00
O178   O     0.37271   0.07617   0.71836   0.00000  Uiso   1.00
N179   N     0.26527   0.63824   0.22588   0.00000  Uiso   1.00
N180   N     0.16037   0.04232   0.51929   0.00000  Uiso   1.00
N181   N     0.29632   0.02120   0.83666   0.00000  Uiso   1.00
N182   N     0.37315   0.65093   0.27746   0.00000  Uiso   1.00
N183   N     0.26824   0.05501   0.57088   0.00000  Uiso   1.00
N184   N     0.40419   0.03389   0.88824   0.00000  Uiso   1.00
C185   C     0.60056   0.73117   0.31064   0.00000  Uiso   1.00
C186   C     0.66944   0.76694   0.28798   0.00000  Uiso   1.00
C187   C     0.73443   0.73691   0.29766   0.00000  Uiso   1.00
C188   C     0.79110   0.77828   0.27318   0.00000  Uiso   1.00
C189   C     0.89929   0.82332   0.24296   0.00000  Uiso   1.00
C190   C     0.55809   0.73802   0.20710   0.00000  Uiso   1.00
C191   C     0.52944   0.68369   0.14878   0.00000  Uiso   1.00
C192   C     0.49235   0.70072   0.05623   0.00000  Uiso   1.00
C193   C     0.42762   0.70087   0.90049   0.00000  Uiso   1.00
C194   C     0.56392   0.77549   0.39524   0.00000  Uiso   1.00
C195   C     0.54016   0.75266   0.49510   0.00000  Uiso   1.00
C196   C     0.50797   0.80124   0.56094   0.00000  Uiso   1.00
C197   C     0.45229   0.85957   0.69731   0.00000  Uiso   1.00
C198   C     0.58563   0.85803   0.24997   0.00000  Uiso   1.00
C199   C     0.66133   0.83584   0.25503   0.00000  Uiso   1.00
C200   C     0.71792   0.87727   0.23054   0.00000  Uiso   1.00
C201   C     0.78298   0.84731   0.24018   0.00000  Uiso   1.00
C202   C     0.54998   0.80692   0.17415   0.00000  Uiso   1.00
C203   C     0.51292   0.82404   0.08167   0.00000  Uiso   1.00
C204   C     0.48423   0.76975   0.02322   0.00000  Uiso   1.00
C205   C     0.55581   0.84440   0.36229   0.00000  Uiso   1.00
C206   C     0.52365   0.89302   0.42798   0.00000  Uiso   1.00
C207   C     0.49985   0.87027   0.52793   0.00000  Uiso   1.00
H208   H     0.60687   0.67753   0.33628   0.00000  Uiso   1.00
H209   H     0.74068   0.68358   0.32315   0.00000  Uiso   1.00
H210   H     0.53571   0.63037   0.17431   0.00000  Uiso   1.00
H211   H     0.54644   0.69933   0.52057   0.00000  Uiso   1.00
H212   H     0.88547   0.72068   0.29402   0.00000  Uiso   1.00
H213   H     0.45326   0.60848   0.98020   0.00000  Uiso   1.00
H214   H     0.47587   0.75390   0.71036   0.00000  Uiso   1.00
H215   H     0.57932   0.91168   0.22432   0.00000  Uiso   1.00
H216   H     0.71163   0.93059   0.20504   0.00000  Uiso   1.00
H217   H     0.50666   0.87737   0.05620   0.00000  Uiso   1.00
H218   H     0.51738   0.94633   0.40246   0.00000  Uiso   1.00
H219   H     0.86188   0.92116   0.19815   0.00000  Uiso   1.00
H220   H     0.42967   0.80895   0.88433   0.00000  Uiso   1.00
H221   H     0.45229   0.95438   0.61450   0.00000  Uiso   1.00
O222   O     0.96120   0.82913   0.23539   0.00000  Uiso   1.00
O223   O     0.39415   0.68192   0.82368   0.00000  Uiso   1.00
O224   O     0.42383   0.87271   0.78164   0.00000  Uiso   1.00
N225   N     0.86176   0.76527   0.27412   0.00000  Uiso   1.00
N226   N     0.45768   0.66037   0.98071   0.00000  Uiso   1.00
N227   N     0.47880   0.79632   0.66334   0.00000  Uiso   1.00
N228   N     0.84907   0.87315   0.22254   0.00000  Uiso   1.00
N229   N     0.44499   0.76824   0.92912   0.00000  Uiso   1.00
N230   N     0.46611   0.90419   0.61176   0.00000  Uiso   1.00
C231   C     0.10056   0.23117   0.81064   0.00000  Uiso   1.00
C232   C     0.16944   0.26694   0.78798   0.00000  Uiso   1.00
C233   C     0.23443   0.23691   0.79766   0.00000  Uiso   1.00
C234   C     0.29110   0.27828   0.77318   0.00000  Uiso   1.00
C235   C     0.39929   0.32332   0.74296   0.00000  Uiso   1.00
C236   C     0.05809   0.23802   0.70710   0.00000  Uiso   1.00
C237   C     0.02944   0.18369   0.64878   0.00000  Uiso   1.00
C238   C     0.99235   0.20072   0.55623   0.00000  Uiso   1.00
C239   C     0.92762   0.20087   0.40049   0.00000  Uiso   1.00
C240   C     0.06392   0.27549   0.89524   0.00000  Uiso   1.00
C241   C     0.04016   0.25266   0.99510   0.00000  Uiso   1.00
C242   C     0.00797   0.30124   0.06094   0.00000  Uiso   1.00
C243   C     0.95229   0.35957   0.19731   0.00000  Uiso   1.00
C244   C     0.08563   0.35803   0.74997   0.00000  Uiso   1.00
C245   C     0.16133   0.33584   0.75503   0.00000  Uiso   1.00
C246   C     0.21792   0.37727   0.73054   0.00000  Uiso   1.00
C247   C     0.28298   0.34731   0.74018   0.00000  Uiso   1.00
C248   C     0.04998   0.30692   0.67415   0.00000  Uiso   1.00
C249   C     0.01292   0.32404   0.58167   0.00000  Uiso   1.00
C250   C     0.98423   0.26975   0.52322   0.00000  Uiso   1.00
C251   C     0.05581   0.34440   0.86229   0.00000  Uiso   1.00
C252   C     0.02365   0.39302   0.92798   0.00000  Uiso   1.00
C253   C     0.99985   0.37027   0.02793   0.00000  Uiso   1.00
H254   H     0.10687   0.17753   0.83628   0.00000  Uiso   1.00
H255   H     0.24068   0.18358   0.82315   0.00000  Uiso   1.00
H256   H     0.03571   0.13037   0.67431   0.00000  Uiso   1.00
H257   H     0.04644   0.19933   0.02057   0.00000  Uiso   1.00
H258   H     0.38547   0.22068   0.79402   0.00000  Uiso   1.00
H259   H     0.95326   0.10848   0.48020   0.00000  Uiso   1.00
H260   H     0.97587   0.25390   0.21036   0.00000  Uiso   1.00
H261   H     0.07932   0.41168   0.72432   0.00000  Uiso   1.00
H262   H     0.21163   0.43059   0.70504   0.00000  Uiso   1.00
H263   H     0.00666   0.37737   0.55620   0.00000  Uiso   1.00
H264   H     0.01738   0.44633   0.90246   0.00000  Uiso   1.00
H265   H     0.36188   0.42116   0.69815   0.00000  Uiso   1.00
H266   H     0.92967   0.30895   0.38433   0.00000  Uiso   1.00
H267   H     0.95229   0.45438   0.11450   0.00000  Uiso   1.00
O268   O     0.46120   0.32913   0.73539   0.00000  Uiso   1.00
O269   O     0.89415   0.18192   0.32368   0.00000  Uiso   1.00
O270   O     0.92383   0.37271   0.28164   0.00000  Uiso   1.00
N271   N     0.36176   0.26527   0.77412   0.00000  Uiso   1.00
N272   N     0.95768   0.16037   0.48071   0.00000  Uiso   1.00
N273   N     0.97880   0.29632   0.16334   0.00000  Uiso   1.00
N274   N     0.34907   0.37315   0.72254   0.00000  Uiso   1.00
N275   N     0.94499   0.26824   0.42912   0.00000  Uiso   1.00
N276   N     0.96611   0.40419   0.11176   0.00000  Uiso   1.00
C277   C     0.39944   0.26883   0.31064   0.00000  Uiso   1.00
C278   C     0.33056   0.23306   0.28798   0.00000  Uiso   1.00
C279   C     0.26557   0.26309   0.29766   0.00000  Uiso   1.00
C280   C     0.20890   0.22172   0.27318   0.00000  Uiso   1.00
C281   C     0.10071   0.17668   0.24296   0.00000  Uiso   1.00
C282   C     0.44191   0.26198   0.20710   0.00000  Uiso   1.00
C283   C     0.47056   0.31631   0.14878   0.00000  Uiso   1.00
C284   C     0.50765   0.29928   0.05623   0.00000  Uiso   1.00
C285   C     0.57238   0.29913   0.90049   0.00000  Uiso   1.00
C286   C     0.43608   0.22451   0.39524   0.00000  Uiso   1.00
C287   C     0.45984   0.24734   0.49510   0.00000  Uiso   1.00
C288   C     0.49203   0.19876   0.56094   0.00000  Uiso   1.00
C289   C     0.54771   0.14043   0.69731   0.00000  Uiso   1.00
C290   C     0.41437   0.14197   0.24997   0.00000  Uiso   1.00
C291   C     0.33867   0.16416   0.25503   0.00000  Uiso   1.00
C292   C     0.28208   0.12273   0.23054   0.00000  Uiso   1.00
C293   C     0.21702   0.15269   0.24018   0.00000  Uiso   1.00
C294   C     0.45002   0.19308   0.17415   0.00000  Uiso   1.00
C295   C     0.48708   0.17596   0.08167   0.00000  Uiso   1.00
C296   C     0.51577   0.23025   0.02322   0.00000  Uiso   1.00
C297   C     0.44419   0.15560   0.36229   0.00000  Uiso   1.00
C298   C     0.47635   0.10698   0.42798   0.00000  Uiso   1.00
C299   C     0.50015   0.12973   0.52793   0.00000  Uiso   1.00
H300   H     0.39313   0.32247   0.33628   0.00000  Uiso   1.00
H301   H     0.25932   0.31642   0.32315   0.00000  Uiso   1.00
H302   H     0.46429   0.36963   0.17431   0.00000  Uiso   1.00
H303   H     0.45356   0.30067   0.52057   0.00000  Uiso   1.00
H304   H     0.11453   0.27932   0.29402   0.00000  Uiso   1.00
H305   H     0.54674   0.39152   0.98020   0.00000  Uiso   1.00
H306   H     0.52413   0.24610   0.71036   0.00000  Uiso   1.00
H307   H     0.42068   0.08832   0.22432   0.00000  Uiso   1.00
H308   H     0.28837   0.06941   0.20504   0.00000  Uiso   1.00
H309   H     0.49334   0.12263   0.05620   0.00000  Uiso   1.00
H310   H     0.48262   0.05367   0.40246   0.00000  Uiso   1.00
H311   H     0.13812   0.07884   0.19815   0.00000  Uiso   1.00
H312   H     0.57033   0.19105   0.88433   0.00000  Uiso   1.00
H313   H     0.54771   0.04562   0.61450   0.00000  Uiso   1.00
O314   O     0.03880   0.17087   0.23539   0.00000  Uiso   1.00
O315   O     0.60585   0.31808   0.82368   0.00000  Uiso   1.00
O316   O     0.57617   0.12729   0.78164   0.00000  Uiso   1.00
N317   N     0.13824   0.23473   0.27412   0.00000  Uiso   1.00
N318   N     0.54232   0.33963   0.98071   0.00000  Uiso   1.00
N319   N     0.52120   0.20368   0.66334   0.00000  Uiso   1.00
N320   N     0.15093   0.12685   0.22254   0.00000  Uiso   1.00
N321   N     0.55501   0.23176   0.92912   0.00000  Uiso   1.00
N322   N     0.53389   0.09581   0.61176   0.00000  Uiso   1.00
C323   C     0.89944   0.76883   0.81064   0.00000  Uiso   1.00
C324   C     0.83056   0.73306   0.78798   0.00000  Uiso   1.00
C325   C     0.76557   0.76309   0.79766   0.00000  Uiso   1.00
C326   C     0.70890   0.72172   0.77318   0.00000  Uiso   1.00
C327   C     0.60071   0.67668   0.74296   0.00000  Uiso   1.00
C328   C     0.94191   0.76198   0.70710   0.00000  Uiso   1.00
C329   C     0.97056   0.81631   0.64878   0.00000  Uiso   1.00
C330   C     0.00765   0.79928   0.55623   0.00000  Uiso   1.00
C331   C     0.07238   0.79913   0.40049   0.00000  Uiso   1.00
C332   C     0.93608   0.72451   0.89524   0.00000  Uiso   1.00
C333   C     0.95984   0.74734   0.99510   0.00000  Uiso   1.00
C334   C     0.99203   0.69876   0.06094   0.00000  Uiso   1.00
C335   C     0.04771   0.64043   0.19731   0.00000  Uiso   1.00
C336   C     0.91437   0.64197   0.74997   0.00000  Uiso   1.00
C337   C     0.83867   0.66416   0.75503   0.00000  Uiso   1.00
C338   C     0.78208   0.62273   0.73054   0.00000  Uiso   1.00
C339   C     0.71702   0.65269   0.74018   0.00000  Uiso   1.00
C340   C     0.95002   0.69308   0.67415   0.00000  Uiso   1.00
C341   C     0.98708   0.67596   0.58167   0.00000  Uiso   1.00
C342   C     0.01577   0.73025   0.52322   0.00000  Uiso   1.00
C343   C     0.94419   0.65560   0.86229   0.00000  Uiso   1.00
C344   C     0.97635   0.60698   0.92798   0.00000  Uiso   1.00
C345   C     0.00015   0.62973   0.02793   0.00000  Uiso   1.00
H346   H     0.89313   0.82247   0.83628   0.00000  Uiso   1.00
H347   H     0.75932   0.81642   0.82315   0.00000  Uiso   1.00
H348   H     0.96429   0.86963   0.67431   0.00000  Uiso   1.00
H349   H     0.95356   0.80067   0.02057   0.00000  Uiso   1.00
H350   H     0.61453   0.77932   0.79402   0.00000  Uiso   1.00
H351   H     0.04674   0.89152   0.48020   0.00000  Uiso   1.00
H352   H     0.02413   0.74610   0.21036   0.00000  Uiso   1.00
H353   H     0.92068   0.58832   0.72432   0.00000  Uiso   1.00
H354   H     0.78837   0.56941   0.70504   0.00000  Uiso   1.00
H355   H     0.99334   0.62263   0.55620   0.00000  Uiso   1.00
H356   H     0.98262   0.55367   0.90246   0.00000  Uiso   1.00
H357   H     0.63812   0.57884   0.69815   0.00000  Uiso   1.00
H358   H     0.07033   0.69105   0.38433   0.00000  Uiso   1.00
H359   H     0.04771   0.54562   0.11450   0.00000  Uiso   1.00
O360   O     0.53880   0.67087   0.73539   0.00000  Uiso   1.00
O361   O     0.10585   0.81808   0.32368   0.00000  Uiso   1.00
O362   O     0.07617   0.62729   0.28164   0.00000  Uiso   1.00
N363   N     0.63824   0.73473   0.77412   0.00000  Uiso   1.00
N364   N     0.04232   0.83963   0.48071   0.00000  Uiso   1.00
N365   N     0.02120   0.70368   0.16334   0.00000  Uiso   1.00
N366   N     0.65093   0.62685   0.72254   0.00000  Uiso   1.00
N367   N     0.05501   0.73176   0.42912   0.00000  Uiso   1.00
N368   N     0.03389   0.59581   0.11176   0.00000  Uiso   1.00
