data_job_00489
_audit_creation_date              2018-12-19
_audit_creation_method            'Materials Studio'
_symmetry_space_group_name_H-M    'P1'
_symmetry_Int_Tables_number       1
_symmetry_cell_setting            triclinic
loop_
_symmetry_equiv_pos_as_xyz
  x,y,z
_cell_length_a                    12.4509
_cell_length_b                    7.3746
_cell_length_c                    30.4321
_cell_angle_alpha                 90.0000
_cell_angle_beta                  96.9048
_cell_angle_gamma                 90.0000
loop_
_atom_site_label
_atom_site_type_symbol
_atom_site_fract_x
_atom_site_fract_y
_atom_site_fract_z
_atom_site_U_iso_or_equiv
_atom_site_adp_type
_atom_site_occupancy
C1     C     0.77946   0.92472   0.57181   0.00000  Uiso   1.00
C2     C     0.71918   0.84482   0.60804   0.00000  Uiso   1.00
C3     C     0.66850   0.94325   0.63852   0.00000  Uiso   1.00
C4     C     0.61777   0.84494   0.66903   0.00000  Uiso   1.00
C5     C     0.52422   0.74976   0.72531   0.00000  Uiso   1.00
C6     C     0.89319   0.84487   0.57900   0.00000  Uiso   1.00
C7     C     0.98882   0.94334   0.58506   0.00000  Uiso   1.00
C8     C     0.08457   0.84505   0.59111   0.00000  Uiso   1.00
C9     C     0.26117   0.74995   0.60227   0.00000  Uiso   1.00
C10    C     0.72603   0.84489   0.52837   0.00000  Uiso   1.00
C11    C     0.68113   0.94337   0.49184   0.00000  Uiso   1.00
C12    C     0.63616   0.84510   0.45527   0.00000  Uiso   1.00
C13    C     0.55322   0.75003   0.38781   0.00000  Uiso   1.00
C14    C     0.77947   0.57511   0.57179   0.00000  Uiso   1.00
C15    C     0.71919   0.65492   0.60803   0.00000  Uiso   1.00
C16    C     0.66852   0.55644   0.63850   0.00000  Uiso   1.00
C17    C     0.61778   0.65470   0.66902   0.00000  Uiso   1.00
C18    C     0.89320   0.65498   0.57899   0.00000  Uiso   1.00
C19    C     0.98883   0.55653   0.58504   0.00000  Uiso   1.00
C20    C     0.08458   0.65481   0.59110   0.00000  Uiso   1.00
C21    C     0.72603   0.65499   0.52836   0.00000  Uiso   1.00
C22    C     0.68114   0.55656   0.49183   0.00000  Uiso   1.00
C23    C     0.63617   0.65486   0.45526   0.00000  Uiso   1.00
H24    H     0.77946   0.07256   0.57181   0.00000  Uiso   1.00
H25    H     0.66852   0.09021   0.63852   0.00000  Uiso   1.00
H26    H     0.98878   0.09029   0.58506   0.00000  Uiso   1.00
H27    H     0.68114   0.09032   0.49186   0.00000  Uiso   1.00
H28    H     0.54557   0.02602   0.71248   0.00000  Uiso   1.00
H29    H     0.22086   0.02620   0.59974   0.00000  Uiso   1.00
H30    H     0.57213   0.02626   0.40322   0.00000  Uiso   1.00
H31    H     0.77948   0.42726   0.57178   0.00000  Uiso   1.00
H32    H     0.66854   0.40948   0.63849   0.00000  Uiso   1.00
H33    H     0.98881   0.40957   0.58503   0.00000  Uiso   1.00
H34    H     0.68116   0.40960   0.49183   0.00000  Uiso   1.00
H35    H     0.54559   0.47352   0.71245   0.00000  Uiso   1.00
H36    H     0.22088   0.47370   0.59971   0.00000  Uiso   1.00
H37    H     0.57215   0.47376   0.40319   0.00000  Uiso   1.00
O38    O     0.47263   0.74972   0.75635   0.00000  Uiso   1.00
O39    O     0.35858   0.74996   0.60844   0.00000  Uiso   1.00
O40    O     0.50746   0.75005   0.35061   0.00000  Uiso   1.00
N41    N     0.56078   0.89842   0.70331   0.00000  Uiso   1.00
N42    N     0.19213   0.89859   0.59792   0.00000  Uiso   1.00
N43    N     0.58565   0.89866   0.41418   0.00000  Uiso   1.00
N44    N     0.56079   0.60113   0.70330   0.00000  Uiso   1.00
N45    N     0.19214   0.60130   0.59790   0.00000  Uiso   1.00
N46    N     0.58566   0.60136   0.41417   0.00000  Uiso   1.00
C47    C     0.22054   0.42472   0.92819   0.00000  Uiso   1.00
C48    C     0.28082   0.34482   0.89196   0.00000  Uiso   1.00
C49    C     0.33150   0.44325   0.86148   0.00000  Uiso   1.00
C50    C     0.38223   0.34494   0.83097   0.00000  Uiso   1.00
C51    C     0.47578   0.24976   0.77469   0.00000  Uiso   1.00
C52    C     0.10681   0.34487   0.92100   0.00000  Uiso   1.00
C53    C     0.01118   0.44334   0.91494   0.00000  Uiso   1.00
C54    C     0.91543   0.34505   0.90889   0.00000  Uiso   1.00
C55    C     0.73883   0.24995   0.89773   0.00000  Uiso   1.00
C56    C     0.27397   0.34489   0.97163   0.00000  Uiso   1.00
C57    C     0.31887   0.44337   0.00816   0.00000  Uiso   1.00
C58    C     0.36384   0.34510   0.04473   0.00000  Uiso   1.00
C59    C     0.44678   0.25003   0.11219   0.00000  Uiso   1.00
C60    C     0.22053   0.07511   0.92821   0.00000  Uiso   1.00
C61    C     0.28081   0.15492   0.89197   0.00000  Uiso   1.00
C62    C     0.33148   0.05644   0.86150   0.00000  Uiso   1.00
C63    C     0.38222   0.15470   0.83098   0.00000  Uiso   1.00
C64    C     0.10680   0.15498   0.92101   0.00000  Uiso   1.00
C65    C     0.01117   0.05653   0.91496   0.00000  Uiso   1.00
C66    C     0.91542   0.15481   0.90890   0.00000  Uiso   1.00
C67    C     0.27397   0.15499   0.97164   0.00000  Uiso   1.00
C68    C     0.31886   0.05656   0.00817   0.00000  Uiso   1.00
C69    C     0.36383   0.15486   0.04474   0.00000  Uiso   1.00
H70    H     0.22054   0.57256   0.92819   0.00000  Uiso   1.00
H71    H     0.33148   0.59021   0.86148   0.00000  Uiso   1.00
H72    H     0.01122   0.59029   0.91494   0.00000  Uiso   1.00
H73    H     0.31886   0.59032   0.00814   0.00000  Uiso   1.00
H74    H     0.45443   0.52602   0.78752   0.00000  Uiso   1.00
H75    H     0.77914   0.52620   0.90026   0.00000  Uiso   1.00
H76    H     0.42787   0.52626   0.09678   0.00000  Uiso   1.00
H77    H     0.22052   0.92726   0.92822   0.00000  Uiso   1.00
H78    H     0.33146   0.90948   0.86151   0.00000  Uiso   1.00
H79    H     0.01119   0.90957   0.91497   0.00000  Uiso   1.00
H80    H     0.31884   0.90960   0.00817   0.00000  Uiso   1.00
H81    H     0.45441   0.97352   0.78755   0.00000  Uiso   1.00
H82    H     0.77912   0.97370   0.90029   0.00000  Uiso   1.00
H83    H     0.42785   0.97376   0.09681   0.00000  Uiso   1.00
O84    O     0.52737   0.24972   0.74365   0.00000  Uiso   1.00
O85    O     0.64142   0.24996   0.89156   0.00000  Uiso   1.00
O86    O     0.49254   0.25005   0.14939   0.00000  Uiso   1.00
N87    N     0.43922   0.39842   0.79669   0.00000  Uiso   1.00
N88    N     0.80787   0.39859   0.90208   0.00000  Uiso   1.00
N89    N     0.41435   0.39866   0.08582   0.00000  Uiso   1.00
N90    N     0.43921   0.10113   0.79670   0.00000  Uiso   1.00
N91    N     0.80786   0.10130   0.90210   0.00000  Uiso   1.00
N92    N     0.41434   0.10136   0.08583   0.00000  Uiso   1.00
C93    C     0.22054   0.07528   0.42819   0.00000  Uiso   1.00
C94    C     0.28082   0.15518   0.39196   0.00000  Uiso   1.00
C95    C     0.33150   0.05675   0.36148   0.00000  Uiso   1.00
C96    C     0.38223   0.15506   0.33097   0.00000  Uiso   1.00
C97    C     0.47578   0.25024   0.27469   0.00000  Uiso   1.00
C98    C     0.10681   0.15513   0.42100   0.00000  Uiso   1.00
C99    C     0.01118   0.05666   0.41494   0.00000  Uiso   1.00
C100   C     0.91543   0.15495   0.40889   0.00000  Uiso   1.00
C101   C     0.73883   0.25005   0.39773   0.00000  Uiso   1.00
C102   C     0.27397   0.15511   0.47163   0.00000  Uiso   1.00
C103   C     0.31887   0.05663   0.50816   0.00000  Uiso   1.00
C104   C     0.36384   0.15490   0.54473   0.00000  Uiso   1.00
C105   C     0.44678   0.24997   0.61219   0.00000  Uiso   1.00
C106   C     0.22053   0.42489   0.42821   0.00000  Uiso   1.00
C107   C     0.28081   0.34508   0.39197   0.00000  Uiso   1.00
C108   C     0.33148   0.44356   0.36150   0.00000  Uiso   1.00
C109   C     0.38222   0.34530   0.33098   0.00000  Uiso   1.00
C110   C     0.10680   0.34502   0.42101   0.00000  Uiso   1.00
C111   C     0.01117   0.44347   0.41496   0.00000  Uiso   1.00
C112   C     0.91542   0.34519   0.40890   0.00000  Uiso   1.00
C113   C     0.27397   0.34501   0.47164   0.00000  Uiso   1.00
C114   C     0.31886   0.44344   0.50817   0.00000  Uiso   1.00
C115   C     0.36383   0.34514   0.54474   0.00000  Uiso   1.00
H116   H     0.22054   0.92744   0.42819   0.00000  Uiso   1.00
H117   H     0.33148   0.90979   0.36148   0.00000  Uiso   1.00
H118   H     0.01122   0.90971   0.41494   0.00000  Uiso   1.00
H119   H     0.31886   0.90968   0.50814   0.00000  Uiso   1.00
H120   H     0.45443   0.97398   0.28752   0.00000  Uiso   1.00
H121   H     0.77914   0.97380   0.40026   0.00000  Uiso   1.00
H122   H     0.42787   0.97374   0.59678   0.00000  Uiso   1.00
H123   H     0.22052   0.57274   0.42822   0.00000  Uiso   1.00
H124   H     0.33146   0.59052   0.36151   0.00000  Uiso   1.00
H125   H     0.01119   0.59043   0.41497   0.00000  Uiso   1.00
H126   H     0.31884   0.59040   0.50817   0.00000  Uiso   1.00
H127   H     0.45441   0.52648   0.28755   0.00000  Uiso   1.00
H128   H     0.77912   0.52630   0.40029   0.00000  Uiso   1.00
H129   H     0.42785   0.52624   0.59681   0.00000  Uiso   1.00
O130   O     0.52737   0.25028   0.24365   0.00000  Uiso   1.00
O131   O     0.64142   0.25004   0.39156   0.00000  Uiso   1.00
O132   O     0.49254   0.24995   0.64939   0.00000  Uiso   1.00
N133   N     0.43922   0.10158   0.29669   0.00000  Uiso   1.00
N134   N     0.80787   0.10141   0.40208   0.00000  Uiso   1.00
N135   N     0.41435   0.10134   0.58582   0.00000  Uiso   1.00
N136   N     0.43921   0.39887   0.29670   0.00000  Uiso   1.00
N137   N     0.80786   0.39870   0.40210   0.00000  Uiso   1.00
N138   N     0.41434   0.39864   0.58583   0.00000  Uiso   1.00
C139   C     0.77946   0.57528   0.07181   0.00000  Uiso   1.00
C140   C     0.71918   0.65518   0.10804   0.00000  Uiso   1.00
C141   C     0.66850   0.55675   0.13852   0.00000  Uiso   1.00
C142   C     0.61777   0.65506   0.16903   0.00000  Uiso   1.00
C143   C     0.52422   0.75024   0.22531   0.00000  Uiso   1.00
C144   C     0.89319   0.65513   0.07900   0.00000  Uiso   1.00
C145   C     0.98882   0.55666   0.08506   0.00000  Uiso   1.00
C146   C     0.08457   0.65495   0.09111   0.00000  Uiso   1.00
C147   C     0.26117   0.75005   0.10227   0.00000  Uiso   1.00
C148   C     0.72603   0.65511   0.02837   0.00000  Uiso   1.00
C149   C     0.68113   0.55663   0.99184   0.00000  Uiso   1.00
C150   C     0.63616   0.65490   0.95527   0.00000  Uiso   1.00
C151   C     0.55322   0.74997   0.88781   0.00000  Uiso   1.00
C152   C     0.77947   0.92489   0.07179   0.00000  Uiso   1.00
C153   C     0.71919   0.84508   0.10803   0.00000  Uiso   1.00
C154   C     0.66852   0.94356   0.13850   0.00000  Uiso   1.00
C155   C     0.61778   0.84530   0.16902   0.00000  Uiso   1.00
C156   C     0.89320   0.84502   0.07899   0.00000  Uiso   1.00
C157   C     0.98883   0.94347   0.08504   0.00000  Uiso   1.00
C158   C     0.08458   0.84519   0.09110   0.00000  Uiso   1.00
C159   C     0.72603   0.84501   0.02836   0.00000  Uiso   1.00
C160   C     0.68114   0.94344   0.99183   0.00000  Uiso   1.00
C161   C     0.63617   0.84514   0.95526   0.00000  Uiso   1.00
H162   H     0.77946   0.42744   0.07181   0.00000  Uiso   1.00
H163   H     0.66852   0.40979   0.13852   0.00000  Uiso   1.00
H164   H     0.98878   0.40971   0.08506   0.00000  Uiso   1.00
H165   H     0.68114   0.40968   0.99186   0.00000  Uiso   1.00
H166   H     0.54557   0.47398   0.21248   0.00000  Uiso   1.00
H167   H     0.22086   0.47380   0.09974   0.00000  Uiso   1.00
H168   H     0.57213   0.47374   0.90322   0.00000  Uiso   1.00
H169   H     0.77948   0.07274   0.07178   0.00000  Uiso   1.00
H170   H     0.66854   0.09052   0.13849   0.00000  Uiso   1.00
H171   H     0.98881   0.09043   0.08503   0.00000  Uiso   1.00
H172   H     0.68116   0.09040   0.99183   0.00000  Uiso   1.00
H173   H     0.54559   0.02648   0.21245   0.00000  Uiso   1.00
H174   H     0.22088   0.02630   0.09971   0.00000  Uiso   1.00
H175   H     0.57215   0.02624   0.90319   0.00000  Uiso   1.00
O176   O     0.47263   0.75028   0.25635   0.00000  Uiso   1.00
O177   O     0.35858   0.75004   0.10844   0.00000  Uiso   1.00
O178   O     0.50746   0.74995   0.85061   0.00000  Uiso   1.00
N179   N     0.56078   0.60158   0.20331   0.00000  Uiso   1.00
N180   N     0.19213   0.60141   0.09792   0.00000  Uiso   1.00
N181   N     0.58565   0.60134   0.91418   0.00000  Uiso   1.00
N182   N     0.56079   0.89887   0.20330   0.00000  Uiso   1.00
N183   N     0.19214   0.89870   0.09790   0.00000  Uiso   1.00
N184   N     0.58566   0.89864   0.91417   0.00000  Uiso   1.00
