data_job_03992
_audit_creation_date              2018-12-19
_audit_creation_method            'Materials Studio'
_symmetry_space_group_name_H-M    'P1'
_symmetry_Int_Tables_number       1
_symmetry_cell_setting            triclinic
loop_
_symmetry_equiv_pos_as_xyz
  x,y,z
_cell_length_a                    17.8419
_cell_length_b                    17.1368
_cell_length_c                    20.0322
_cell_angle_alpha                 90.0000
_cell_angle_beta                  25.8177
_cell_angle_gamma                 90.0000
loop_
_atom_site_label
_atom_site_type_symbol
_atom_site_fract_x
_atom_site_fract_y
_atom_site_fract_z
_atom_site_U_iso_or_equiv
_atom_site_adp_type
_atom_site_occupancy
C1     C     0.89379   0.71220   0.35447   0.00000  Uiso   1.00
C2     C     0.99984   0.65691   0.22625   0.00000  Uiso   1.00
C3     C     0.00495   0.57628   0.22826   0.00000  Uiso   1.00
C4     C     0.11002   0.53614   0.09972   0.00000  Uiso   1.00
C5     C     0.26008   0.44433   0.91976   0.00000  Uiso   1.00
C6     C     0.02129   0.77013   0.28213   0.00000  Uiso   1.00
C7     C     0.04441   0.78470   0.33115   0.00000  Uiso   1.00
C8     C     0.16752   0.83988   0.24965   0.00000  Uiso   1.00
C9     C     0.35079   0.92389   0.15652   0.00000  Uiso   1.00
C10    C     0.78190   0.75896   0.39612   0.00000  Uiso   1.00
C11    C     0.60373   0.76416   0.54099   0.00000  Uiso   1.00
C12    C     0.52529   0.80995   0.55547   0.00000  Uiso   1.00
C13    C     0.33687   0.87662   0.63931   0.00000  Uiso   1.00
C14    C     0.07128   0.78429   0.12260   0.00000  Uiso   1.00
C15    C     0.09625   0.69607   0.10030   0.00000  Uiso   1.00
C16    C     0.20132   0.65604   0.97173   0.00000  Uiso   1.00
C17    C     0.20659   0.57536   0.97355   0.00000  Uiso   1.00
C18    C     0.11769   0.80929   0.15619   0.00000  Uiso   1.00
C19    C     0.24078   0.86446   0.07461   0.00000  Uiso   1.00
C20    C     0.26410   0.87911   0.12348   0.00000  Uiso   1.00
C21    C     0.87830   0.79812   0.27017   0.00000  Uiso   1.00
C22    C     0.80011   0.84391   0.28444   0.00000  Uiso   1.00
C23    C     0.62187   0.84917   0.42930   0.00000  Uiso   1.00
H24    H     0.81875   0.68172   0.45252   0.00000  Uiso   1.00
H25    H     0.93034   0.54600   0.32575   0.00000  Uiso   1.00
H26    H     0.96978   0.75440   0.42862   0.00000  Uiso   1.00
H27    H     0.52918   0.73385   0.63842   0.00000  Uiso   1.00
H28    H     0.09663   0.41280   0.12964   0.00000  Uiso   1.00
H29    H     0.17975   0.85223   0.34659   0.00000  Uiso   1.00
H30    H     0.25064   0.80891   0.78899   0.00000  Uiso   1.00
H31    H     0.14634   0.81478   0.02454   0.00000  Uiso   1.00
H32    H     0.27591   0.68636   0.87428   0.00000  Uiso   1.00
H33    H     0.31536   0.89475   0.97716   0.00000  Uiso   1.00
H34    H     0.87475   0.87421   0.18695   0.00000  Uiso   1.00
H35    H     0.37712   0.52672   0.76320   0.00000  Uiso   1.00
H36    H     0.46023   0.96616   0.98016   0.00000  Uiso   1.00
H37    H     0.53113   0.92283   0.42256   0.00000  Uiso   1.00
O38    O     0.31624   0.38288   0.85528   0.00000  Uiso   1.00
O39    O     0.42526   0.95941   0.13993   0.00000  Uiso   1.00
O40    O     0.20631   0.90256   0.72034   0.00000  Uiso   1.00
N41    N     0.14483   0.45723   0.06403   0.00000  Uiso   1.00
N42    N     0.22256   0.86807   0.26685   0.00000  Uiso   1.00
N43    N     0.35393   0.82758   0.68047   0.00000  Uiso   1.00
N44    N     0.29576   0.51853   0.86686   0.00000  Uiso   1.00
N45    N     0.37349   0.92937   0.06968   0.00000  Uiso   1.00
N46    N     0.50486   0.88888   0.48329   0.00000  Uiso   1.00
C47    C     0.10621   0.21220   0.14553   0.00000  Uiso   1.00
C48    C     0.00016   0.15691   0.27375   0.00000  Uiso   1.00
C49    C     0.99505   0.07628   0.27174   0.00000  Uiso   1.00
C50    C     0.88998   0.03614   0.40028   0.00000  Uiso   1.00
C51    C     0.73992   0.94433   0.58024   0.00000  Uiso   1.00
C52    C     0.97871   0.27013   0.21787   0.00000  Uiso   1.00
C53    C     0.95559   0.28470   0.16885   0.00000  Uiso   1.00
C54    C     0.83248   0.33988   0.25035   0.00000  Uiso   1.00
C55    C     0.64921   0.42389   0.34348   0.00000  Uiso   1.00
C56    C     0.21810   0.25896   0.10388   0.00000  Uiso   1.00
C57    C     0.39627   0.26416   0.95901   0.00000  Uiso   1.00
C58    C     0.47471   0.30995   0.94453   0.00000  Uiso   1.00
C59    C     0.66313   0.37662   0.86069   0.00000  Uiso   1.00
C60    C     0.92872   0.28429   0.37740   0.00000  Uiso   1.00
C61    C     0.90375   0.19607   0.39970   0.00000  Uiso   1.00
C62    C     0.79868   0.15604   0.52827   0.00000  Uiso   1.00
C63    C     0.79341   0.07536   0.52645   0.00000  Uiso   1.00
C64    C     0.88231   0.30929   0.34381   0.00000  Uiso   1.00
C65    C     0.75922   0.36446   0.42539   0.00000  Uiso   1.00
C66    C     0.73590   0.37911   0.37652   0.00000  Uiso   1.00
C67    C     0.12170   0.29812   0.22983   0.00000  Uiso   1.00
C68    C     0.19989   0.34391   0.21556   0.00000  Uiso   1.00
C69    C     0.37813   0.34917   0.07070   0.00000  Uiso   1.00
H70    H     0.18125   0.18172   0.04748   0.00000  Uiso   1.00
H71    H     0.06966   0.04600   0.17425   0.00000  Uiso   1.00
H72    H     0.03022   0.25440   0.07138   0.00000  Uiso   1.00
H73    H     0.47082   0.23385   0.86158   0.00000  Uiso   1.00
H74    H     0.90337   0.91280   0.37036   0.00000  Uiso   1.00
H75    H     0.82025   0.35223   0.15341   0.00000  Uiso   1.00
H76    H     0.74936   0.30891   0.71101   0.00000  Uiso   1.00
H77    H     0.85366   0.31478   0.47546   0.00000  Uiso   1.00
H78    H     0.72409   0.18636   0.62572   0.00000  Uiso   1.00
H79    H     0.68464   0.39475   0.52284   0.00000  Uiso   1.00
H80    H     0.12525   0.37421   0.31305   0.00000  Uiso   1.00
H81    H     0.62288   0.02672   0.73680   0.00000  Uiso   1.00
H82    H     0.53977   0.46616   0.51984   0.00000  Uiso   1.00
H83    H     0.46887   0.42283   0.07744   0.00000  Uiso   1.00
O84    O     0.68376   0.88288   0.64472   0.00000  Uiso   1.00
O85    O     0.57474   0.45941   0.36007   0.00000  Uiso   1.00
O86    O     0.79369   0.40256   0.77966   0.00000  Uiso   1.00
N87    N     0.85517   0.95723   0.43597   0.00000  Uiso   1.00
N88    N     0.77744   0.36807   0.23315   0.00000  Uiso   1.00
N89    N     0.64607   0.32758   0.81953   0.00000  Uiso   1.00
N90    N     0.70424   0.01853   0.63314   0.00000  Uiso   1.00
N91    N     0.62651   0.42937   0.43032   0.00000  Uiso   1.00
N92    N     0.49514   0.38888   0.01671   0.00000  Uiso   1.00
C93    C     0.10621   0.28780   0.64553   0.00000  Uiso   1.00
C94    C     0.00016   0.34309   0.77375   0.00000  Uiso   1.00
C95    C     0.99505   0.42372   0.77174   0.00000  Uiso   1.00
C96    C     0.88998   0.46386   0.90028   0.00000  Uiso   1.00
C97    C     0.73992   0.55567   0.08024   0.00000  Uiso   1.00
C98    C     0.97871   0.22987   0.71787   0.00000  Uiso   1.00
C99    C     0.95559   0.21530   0.66885   0.00000  Uiso   1.00
C100   C     0.83248   0.16012   0.75035   0.00000  Uiso   1.00
C101   C     0.64921   0.07611   0.84348   0.00000  Uiso   1.00
C102   C     0.21810   0.24104   0.60388   0.00000  Uiso   1.00
C103   C     0.39627   0.23584   0.45901   0.00000  Uiso   1.00
C104   C     0.47471   0.19005   0.44453   0.00000  Uiso   1.00
C105   C     0.66313   0.12338   0.36069   0.00000  Uiso   1.00
C106   C     0.92872   0.21571   0.87740   0.00000  Uiso   1.00
C107   C     0.90375   0.30393   0.89970   0.00000  Uiso   1.00
C108   C     0.79868   0.34396   0.02827   0.00000  Uiso   1.00
C109   C     0.79341   0.42464   0.02645   0.00000  Uiso   1.00
C110   C     0.88231   0.19071   0.84381   0.00000  Uiso   1.00
C111   C     0.75922   0.13554   0.92539   0.00000  Uiso   1.00
C112   C     0.73590   0.12089   0.87652   0.00000  Uiso   1.00
C113   C     0.12170   0.20188   0.72983   0.00000  Uiso   1.00
C114   C     0.19989   0.15609   0.71556   0.00000  Uiso   1.00
C115   C     0.37813   0.15083   0.57070   0.00000  Uiso   1.00
H116   H     0.18125   0.31828   0.54748   0.00000  Uiso   1.00
H117   H     0.06966   0.45400   0.67425   0.00000  Uiso   1.00
H118   H     0.03022   0.24560   0.57138   0.00000  Uiso   1.00
H119   H     0.47082   0.26615   0.36158   0.00000  Uiso   1.00
H120   H     0.90337   0.58720   0.87036   0.00000  Uiso   1.00
H121   H     0.82025   0.14777   0.65341   0.00000  Uiso   1.00
H122   H     0.74936   0.19109   0.21101   0.00000  Uiso   1.00
H123   H     0.85366   0.18522   0.97546   0.00000  Uiso   1.00
H124   H     0.72409   0.31364   0.12572   0.00000  Uiso   1.00
H125   H     0.68464   0.10525   0.02284   0.00000  Uiso   1.00
H126   H     0.12525   0.12579   0.81305   0.00000  Uiso   1.00
H127   H     0.62288   0.47328   0.23680   0.00000  Uiso   1.00
H128   H     0.53977   0.03384   0.01984   0.00000  Uiso   1.00
H129   H     0.46887   0.07717   0.57744   0.00000  Uiso   1.00
O130   O     0.68376   0.61712   0.14472   0.00000  Uiso   1.00
O131   O     0.57474   0.04059   0.86007   0.00000  Uiso   1.00
O132   O     0.79369   0.09744   0.27966   0.00000  Uiso   1.00
N133   N     0.85517   0.54277   0.93597   0.00000  Uiso   1.00
N134   N     0.77744   0.13193   0.73315   0.00000  Uiso   1.00
N135   N     0.64607   0.17242   0.31953   0.00000  Uiso   1.00
N136   N     0.70424   0.48147   0.13314   0.00000  Uiso   1.00
N137   N     0.62651   0.07063   0.93032   0.00000  Uiso   1.00
N138   N     0.49514   0.11112   0.51671   0.00000  Uiso   1.00
C139   C     0.89379   0.78780   0.85447   0.00000  Uiso   1.00
C140   C     0.99984   0.84309   0.72625   0.00000  Uiso   1.00
C141   C     0.00495   0.92372   0.72826   0.00000  Uiso   1.00
C142   C     0.11002   0.96386   0.59972   0.00000  Uiso   1.00
C143   C     0.26008   0.05567   0.41976   0.00000  Uiso   1.00
C144   C     0.02129   0.72987   0.78213   0.00000  Uiso   1.00
C145   C     0.04441   0.71530   0.83115   0.00000  Uiso   1.00
C146   C     0.16752   0.66012   0.74965   0.00000  Uiso   1.00
C147   C     0.35079   0.57611   0.65652   0.00000  Uiso   1.00
C148   C     0.78190   0.74104   0.89612   0.00000  Uiso   1.00
C149   C     0.60373   0.73584   0.04099   0.00000  Uiso   1.00
C150   C     0.52529   0.69005   0.05547   0.00000  Uiso   1.00
C151   C     0.33687   0.62338   0.13931   0.00000  Uiso   1.00
C152   C     0.07128   0.71571   0.62260   0.00000  Uiso   1.00
C153   C     0.09625   0.80393   0.60030   0.00000  Uiso   1.00
C154   C     0.20132   0.84396   0.47173   0.00000  Uiso   1.00
C155   C     0.20659   0.92464   0.47355   0.00000  Uiso   1.00
C156   C     0.11769   0.69071   0.65619   0.00000  Uiso   1.00
C157   C     0.24078   0.63554   0.57461   0.00000  Uiso   1.00
C158   C     0.26410   0.62089   0.62348   0.00000  Uiso   1.00
C159   C     0.87830   0.70188   0.77017   0.00000  Uiso   1.00
C160   C     0.80011   0.65609   0.78444   0.00000  Uiso   1.00
C161   C     0.62187   0.65083   0.92930   0.00000  Uiso   1.00
H162   H     0.81875   0.81828   0.95252   0.00000  Uiso   1.00
H163   H     0.93034   0.95400   0.82575   0.00000  Uiso   1.00
H164   H     0.96978   0.74560   0.92862   0.00000  Uiso   1.00
H165   H     0.52918   0.76615   0.13842   0.00000  Uiso   1.00
H166   H     0.09663   0.08720   0.62964   0.00000  Uiso   1.00
H167   H     0.17975   0.64777   0.84659   0.00000  Uiso   1.00
H168   H     0.25064   0.69109   0.28899   0.00000  Uiso   1.00
H169   H     0.14634   0.68522   0.52454   0.00000  Uiso   1.00
H170   H     0.27591   0.81364   0.37428   0.00000  Uiso   1.00
H171   H     0.31536   0.60525   0.47716   0.00000  Uiso   1.00
H172   H     0.87475   0.62579   0.68695   0.00000  Uiso   1.00
H173   H     0.37712   0.97328   0.26320   0.00000  Uiso   1.00
H174   H     0.46023   0.53384   0.48016   0.00000  Uiso   1.00
H175   H     0.53113   0.57717   0.92256   0.00000  Uiso   1.00
O176   O     0.31624   0.11712   0.35528   0.00000  Uiso   1.00
O177   O     0.42526   0.54059   0.63993   0.00000  Uiso   1.00
O178   O     0.20631   0.59744   0.22034   0.00000  Uiso   1.00
N179   N     0.14483   0.04277   0.56403   0.00000  Uiso   1.00
N180   N     0.22256   0.63193   0.76685   0.00000  Uiso   1.00
N181   N     0.35393   0.67242   0.18047   0.00000  Uiso   1.00
N182   N     0.29576   0.98147   0.36686   0.00000  Uiso   1.00
N183   N     0.37349   0.57063   0.56968   0.00000  Uiso   1.00
N184   N     0.50486   0.61112   0.98329   0.00000  Uiso   1.00
