data_job_04852
_audit_creation_date              2018-12-19
_audit_creation_method            'Materials Studio'
_symmetry_space_group_name_H-M    'P1'
_symmetry_Int_Tables_number       1
_symmetry_cell_setting            triclinic
loop_
_symmetry_equiv_pos_as_xyz
  x,y,z
_cell_length_a                    37.5013
_cell_length_b                    15.3437
_cell_length_c                    10.3178
_cell_angle_alpha                 90.0000
_cell_angle_beta                  90.0000
_cell_angle_gamma                 90.0000
loop_
_atom_site_label
_atom_site_type_symbol
_atom_site_fract_x
_atom_site_fract_y
_atom_site_fract_z
_atom_site_U_iso_or_equiv
_atom_site_adp_type
_atom_site_occupancy
C1     C     0.38141   0.10939   0.39969   0.00000  Uiso   1.00
C2     C     0.39231   0.19996   0.44587   0.00000  Uiso   1.00
C3     C     0.38100   0.23990   0.55933   0.00000  Uiso   1.00
C4     C     0.39402   0.32294   0.58420   0.00000  Uiso   1.00
C5     C     0.40736   0.45727   0.66889   0.00000  Uiso   1.00
C6     C     0.36552   0.12177   0.26489   0.00000  Uiso   1.00
C7     C     0.33169   0.09596   0.22620   0.00000  Uiso   1.00
C8     C     0.32215   0.11317   0.09871   0.00000  Uiso   1.00
C9     C     0.29391   0.12606   0.90241   0.00000  Uiso   1.00
C10    C     0.41601   0.05884   0.38031   0.00000  Uiso   1.00
C11    C     0.42462   0.98009   0.43862   0.00000  Uiso   1.00
C12    C     0.45759   0.94431   0.40829   0.00000  Uiso   1.00
C13    C     0.50774   0.85948   0.39118   0.00000  Uiso   1.00
C14    C     0.42463   0.18584   0.24210   0.00000  Uiso   1.00
C15    C     0.41579   0.24149   0.36026   0.00000  Uiso   1.00
C16    C     0.42883   0.32449   0.38497   0.00000  Uiso   1.00
C17    C     0.41754   0.36454   0.49845   0.00000  Uiso   1.00
C18    C     0.38900   0.16330   0.17930   0.00000  Uiso   1.00
C19    C     0.37951   0.18055   0.05184   0.00000  Uiso   1.00
C20    C     0.34567   0.15478   0.01296   0.00000  Uiso   1.00
C21    C     0.43948   0.10036   0.29471   0.00000  Uiso   1.00
C22    C     0.47244   0.06469   0.26427   0.00000  Uiso   1.00
C23    C     0.48111   0.98591   0.32253   0.00000  Uiso   1.00
H24    H     0.36313   0.07706   0.46632   0.00000  Uiso   1.00
H25    H     0.36283   0.20774   0.62554   0.00000  Uiso   1.00
H26    H     0.31352   0.06382   0.29246   0.00000  Uiso   1.00
H27    H     0.40644   0.94798   0.50485   0.00000  Uiso   1.00
H28    H     0.37285   0.37096   0.76429   0.00000  Uiso   1.00
H29    H     0.26889   0.06746   0.06195   0.00000  Uiso   1.00
H30    H     0.46482   0.82318   0.50983   0.00000  Uiso   1.00
H31    H     0.44291   0.21818   0.17545   0.00000  Uiso   1.00
H32    H     0.44699   0.35661   0.31871   0.00000  Uiso   1.00
H33    H     0.39768   0.21268   0.98562   0.00000  Uiso   1.00
H34    H     0.49060   0.09684   0.19802   0.00000  Uiso   1.00
H35    H     0.44115   0.49178   0.51525   0.00000  Uiso   1.00
H36    H     0.33719   0.18828   0.81291   0.00000  Uiso   1.00
H37    H     0.53313   0.94401   0.26079   0.00000  Uiso   1.00
O38    O     0.40824   0.51990   0.73924   0.00000  Uiso   1.00
O39    O     0.27185   0.12170   0.81779   0.00000  Uiso   1.00
O40    O     0.52891   0.80123   0.40541   0.00000  Uiso   1.00
N41    N     0.38837   0.38039   0.68603   0.00000  Uiso   1.00
N42    N     0.29117   0.09665   0.02939   0.00000  Uiso   1.00
N43    N     0.47435   0.86826   0.44810   0.00000  Uiso   1.00
N44    N     0.42512   0.44540   0.55203   0.00000  Uiso   1.00
N45    N     0.32792   0.16166   0.89539   0.00000  Uiso   1.00
N46    N     0.51111   0.93328   0.31409   0.00000  Uiso   1.00
C47    C     0.89734   0.93468   0.07157   0.00000  Uiso   1.00
C48    C     0.90845   0.84307   0.03089   0.00000  Uiso   1.00
C49    C     0.89925   0.80225   0.91562   0.00000  Uiso   1.00
C50    C     0.91208   0.71833   0.89658   0.00000  Uiso   1.00
C51    C     0.92608   0.58239   0.81930   0.00000  Uiso   1.00
C52    C     0.87855   0.92470   0.20180   0.00000  Uiso   1.00
C53    C     0.84422   0.95252   0.23022   0.00000  Uiso   1.00
C54    C     0.83188   0.93733   0.35506   0.00000  Uiso   1.00
C55    C     0.79947   0.92817   0.54314   0.00000  Uiso   1.00
C56    C     0.93184   0.98388   0.09933   0.00000  Uiso   1.00
C57    C     0.94230   0.06148   0.04163   0.00000  Uiso   1.00
C58    C     0.97481   0.09613   0.08022   0.00000  Uiso   1.00
C59    C     0.02514   0.17886   0.10920   0.00000  Uiso   1.00
C60    C     0.93647   0.85824   0.24274   0.00000  Uiso   1.00
C61    C     0.92970   0.80156   0.12387   0.00000  Uiso   1.00
C62    C     0.94255   0.71768   0.10500   0.00000  Uiso   1.00
C63    C     0.93337   0.67674   0.98972   0.00000  Uiso   1.00
C64    C     0.89981   0.88318   0.29477   0.00000  Uiso   1.00
C65    C     0.88751   0.86795   0.41960   0.00000  Uiso   1.00
C66    C     0.85317   0.89574   0.44820   0.00000  Uiso   1.00
C67    C     0.95309   0.94237   0.19230   0.00000  Uiso   1.00
C68    C     0.98559   0.97691   0.23100   0.00000  Uiso   1.00
C69    C     0.99610   0.05454   0.17336   0.00000  Uiso   1.00
H70    H     0.88080   0.96700   0.99920   0.00000  Uiso   1.00
H71    H     0.88280   0.83439   0.84370   0.00000  Uiso   1.00
H72    H     0.82778   0.98465   0.15826   0.00000  Uiso   1.00
H73    H     0.92585   0.09359   0.96968   0.00000  Uiso   1.00
H74    H     0.89439   0.66905   0.71233   0.00000  Uiso   1.00
H75    H     0.77838   0.98591   0.37560   0.00000  Uiso   1.00
H76    H     0.98517   0.21563   0.97796   0.00000  Uiso   1.00
H77    H     0.95302   0.82592   0.31513   0.00000  Uiso   1.00
H78    H     0.95899   0.68557   0.17696   0.00000  Uiso   1.00
H79    H     0.90397   0.83583   0.49152   0.00000  Uiso   1.00
H80    H     0.00203   0.94476   0.30295   0.00000  Uiso   1.00
H81    H     0.95623   0.54826   0.98282   0.00000  Uiso   1.00
H82    H     0.84021   0.86512   0.64610   0.00000  Uiso   1.00
H83    H     0.04700   0.09483   0.24845   0.00000  Uiso   1.00
O84    O     0.92792   0.51887   0.75100   0.00000  Uiso   1.00
O85    O     0.77572   0.93458   0.62120   0.00000  Uiso   1.00
O86    O     0.04702   0.23596   0.09950   0.00000  Uiso   1.00
N87    N     0.90813   0.65989   0.79493   0.00000  Uiso   1.00
N88    N     0.79966   0.95612   0.41505   0.00000  Uiso   1.00
N89    N     0.99299   0.17090   0.04332   0.00000  Uiso   1.00
N90    N     0.94140   0.59490   0.94048   0.00000  Uiso   1.00
N91    N     0.83293   0.89112   0.56060   0.00000  Uiso   1.00
N92    N     0.02626   0.10590   0.18886   0.00000  Uiso   1.00
C93    C     0.61859   0.89061   0.89969   0.00000  Uiso   1.00
C94    C     0.60769   0.80004   0.94587   0.00000  Uiso   1.00
C95    C     0.61900   0.76010   0.05933   0.00000  Uiso   1.00
C96    C     0.60598   0.67706   0.08420   0.00000  Uiso   1.00
C97    C     0.59264   0.54273   0.16889   0.00000  Uiso   1.00
C98    C     0.63448   0.87823   0.76489   0.00000  Uiso   1.00
C99    C     0.66831   0.90404   0.72620   0.00000  Uiso   1.00
C100   C     0.67785   0.88683   0.59871   0.00000  Uiso   1.00
C101   C     0.70609   0.87394   0.40241   0.00000  Uiso   1.00
C102   C     0.58399   0.94116   0.88031   0.00000  Uiso   1.00
C103   C     0.57538   0.01991   0.93862   0.00000  Uiso   1.00
C104   C     0.54241   0.05569   0.90829   0.00000  Uiso   1.00
C105   C     0.49226   0.14052   0.89118   0.00000  Uiso   1.00
C106   C     0.57537   0.81416   0.74210   0.00000  Uiso   1.00
C107   C     0.58421   0.75851   0.86026   0.00000  Uiso   1.00
C108   C     0.57117   0.67551   0.88497   0.00000  Uiso   1.00
C109   C     0.58246   0.63546   0.99845   0.00000  Uiso   1.00
C110   C     0.61100   0.83670   0.67930   0.00000  Uiso   1.00
C111   C     0.62049   0.81945   0.55184   0.00000  Uiso   1.00
C112   C     0.65433   0.84522   0.51296   0.00000  Uiso   1.00
C113   C     0.56052   0.89964   0.79471   0.00000  Uiso   1.00
C114   C     0.52756   0.93531   0.76427   0.00000  Uiso   1.00
C115   C     0.51889   0.01409   0.82253   0.00000  Uiso   1.00
H116   H     0.63687   0.92294   0.96632   0.00000  Uiso   1.00
H117   H     0.63717   0.79226   0.12554   0.00000  Uiso   1.00
H118   H     0.68648   0.93618   0.79246   0.00000  Uiso   1.00
H119   H     0.59356   0.05202   0.00485   0.00000  Uiso   1.00
H120   H     0.62715   0.62904   0.26429   0.00000  Uiso   1.00
H121   H     0.73111   0.93254   0.56195   0.00000  Uiso   1.00
H122   H     0.53518   0.17682   0.00983   0.00000  Uiso   1.00
H123   H     0.55709   0.78182   0.67545   0.00000  Uiso   1.00
H124   H     0.55301   0.64339   0.81871   0.00000  Uiso   1.00
H125   H     0.60232   0.78732   0.48562   0.00000  Uiso   1.00
H126   H     0.50940   0.90316   0.69802   0.00000  Uiso   1.00
H127   H     0.55885   0.50822   0.01525   0.00000  Uiso   1.00
H128   H     0.66281   0.81172   0.31291   0.00000  Uiso   1.00
H129   H     0.46687   0.05599   0.76079   0.00000  Uiso   1.00
O130   O     0.59176   0.48010   0.23924   0.00000  Uiso   1.00
O131   O     0.72815   0.87830   0.31779   0.00000  Uiso   1.00
O132   O     0.47109   0.19877   0.90541   0.00000  Uiso   1.00
N133   N     0.61163   0.61961   0.18603   0.00000  Uiso   1.00
N134   N     0.70883   0.90335   0.52939   0.00000  Uiso   1.00
N135   N     0.52565   0.13174   0.94810   0.00000  Uiso   1.00
N136   N     0.57488   0.55460   0.05203   0.00000  Uiso   1.00
N137   N     0.67208   0.83834   0.39539   0.00000  Uiso   1.00
N138   N     0.48889   0.06672   0.81409   0.00000  Uiso   1.00
C139   C     0.10266   0.06532   0.57157   0.00000  Uiso   1.00
C140   C     0.09155   0.15693   0.53089   0.00000  Uiso   1.00
C141   C     0.10075   0.19775   0.41562   0.00000  Uiso   1.00
C142   C     0.08792   0.28167   0.39658   0.00000  Uiso   1.00
C143   C     0.07392   0.41761   0.31930   0.00000  Uiso   1.00
C144   C     0.12145   0.07530   0.70180   0.00000  Uiso   1.00
C145   C     0.15578   0.04748   0.73022   0.00000  Uiso   1.00
C146   C     0.16812   0.06267   0.85506   0.00000  Uiso   1.00
C147   C     0.20053   0.07183   0.04314   0.00000  Uiso   1.00
C148   C     0.06816   0.01612   0.59933   0.00000  Uiso   1.00
C149   C     0.05770   0.93852   0.54163   0.00000  Uiso   1.00
C150   C     0.02519   0.90387   0.58022   0.00000  Uiso   1.00
C151   C     0.97486   0.82114   0.60920   0.00000  Uiso   1.00
C152   C     0.06353   0.14176   0.74274   0.00000  Uiso   1.00
C153   C     0.07030   0.19844   0.62387   0.00000  Uiso   1.00
C154   C     0.05745   0.28232   0.60500   0.00000  Uiso   1.00
C155   C     0.06663   0.32326   0.48972   0.00000  Uiso   1.00
C156   C     0.10019   0.11682   0.79477   0.00000  Uiso   1.00
C157   C     0.11249   0.13205   0.91960   0.00000  Uiso   1.00
C158   C     0.14683   0.10426   0.94820   0.00000  Uiso   1.00
C159   C     0.04691   0.05763   0.69230   0.00000  Uiso   1.00
C160   C     0.01441   0.02309   0.73100   0.00000  Uiso   1.00
C161   C     0.00390   0.94546   0.67336   0.00000  Uiso   1.00
H162   H     0.11920   0.03300   0.49920   0.00000  Uiso   1.00
H163   H     0.11720   0.16561   0.34370   0.00000  Uiso   1.00
H164   H     0.17222   0.01535   0.65826   0.00000  Uiso   1.00
H165   H     0.07415   0.90641   0.46968   0.00000  Uiso   1.00
H166   H     0.10561   0.33095   0.21233   0.00000  Uiso   1.00
H167   H     0.22162   0.01409   0.87560   0.00000  Uiso   1.00
H168   H     0.01483   0.78437   0.47796   0.00000  Uiso   1.00
H169   H     0.04698   0.17408   0.81513   0.00000  Uiso   1.00
H170   H     0.04101   0.31443   0.67696   0.00000  Uiso   1.00
H171   H     0.09603   0.16417   0.99152   0.00000  Uiso   1.00
H172   H     0.99797   0.05524   0.80295   0.00000  Uiso   1.00
H173   H     0.04377   0.45174   0.48282   0.00000  Uiso   1.00
H174   H     0.15979   0.13488   0.14610   0.00000  Uiso   1.00
H175   H     0.95300   0.90517   0.74845   0.00000  Uiso   1.00
O176   O     0.07208   0.48113   0.25100   0.00000  Uiso   1.00
O177   O     0.22428   0.06542   0.12120   0.00000  Uiso   1.00
O178   O     0.95298   0.76404   0.59950   0.00000  Uiso   1.00
N179   N     0.09187   0.34011   0.29493   0.00000  Uiso   1.00
N180   N     0.20034   0.04388   0.91505   0.00000  Uiso   1.00
N181   N     0.00701   0.82910   0.54332   0.00000  Uiso   1.00
N182   N     0.05860   0.40510   0.44048   0.00000  Uiso   1.00
N183   N     0.16707   0.10888   0.06060   0.00000  Uiso   1.00
N184   N     0.97374   0.89410   0.68886   0.00000  Uiso   1.00
C185   C     0.88141   0.39061   0.39969   0.00000  Uiso   1.00
C186   C     0.89231   0.30004   0.44587   0.00000  Uiso   1.00
C187   C     0.88100   0.26010   0.55933   0.00000  Uiso   1.00
C188   C     0.89402   0.17706   0.58420   0.00000  Uiso   1.00
C189   C     0.90736   0.04273   0.66889   0.00000  Uiso   1.00
C190   C     0.86552   0.37823   0.26489   0.00000  Uiso   1.00
C191   C     0.83169   0.40404   0.22620   0.00000  Uiso   1.00
C192   C     0.82215   0.38683   0.09871   0.00000  Uiso   1.00
C193   C     0.79391   0.37394   0.90241   0.00000  Uiso   1.00
C194   C     0.91601   0.44116   0.38031   0.00000  Uiso   1.00
C195   C     0.92462   0.51991   0.43862   0.00000  Uiso   1.00
C196   C     0.95759   0.55569   0.40829   0.00000  Uiso   1.00
C197   C     0.00774   0.64052   0.39118   0.00000  Uiso   1.00
C198   C     0.92463   0.31416   0.24210   0.00000  Uiso   1.00
C199   C     0.91579   0.25851   0.36026   0.00000  Uiso   1.00
C200   C     0.92883   0.17551   0.38497   0.00000  Uiso   1.00
C201   C     0.91754   0.13546   0.49845   0.00000  Uiso   1.00
C202   C     0.88900   0.33670   0.17930   0.00000  Uiso   1.00
C203   C     0.87951   0.31945   0.05184   0.00000  Uiso   1.00
C204   C     0.84567   0.34522   0.01296   0.00000  Uiso   1.00
C205   C     0.93948   0.39964   0.29471   0.00000  Uiso   1.00
C206   C     0.97244   0.43531   0.26427   0.00000  Uiso   1.00
C207   C     0.98111   0.51409   0.32253   0.00000  Uiso   1.00
H208   H     0.86313   0.42294   0.46632   0.00000  Uiso   1.00
H209   H     0.86283   0.29226   0.62554   0.00000  Uiso   1.00
H210   H     0.81352   0.43618   0.29246   0.00000  Uiso   1.00
H211   H     0.90644   0.55202   0.50485   0.00000  Uiso   1.00
H212   H     0.87285   0.12904   0.76429   0.00000  Uiso   1.00
H213   H     0.76889   0.43254   0.06195   0.00000  Uiso   1.00
H214   H     0.96482   0.67682   0.50983   0.00000  Uiso   1.00
H215   H     0.94291   0.28182   0.17545   0.00000  Uiso   1.00
H216   H     0.94699   0.14339   0.31871   0.00000  Uiso   1.00
H217   H     0.89768   0.28732   0.98562   0.00000  Uiso   1.00
H218   H     0.99060   0.40316   0.19802   0.00000  Uiso   1.00
H219   H     0.94115   0.00822   0.51525   0.00000  Uiso   1.00
H220   H     0.83719   0.31172   0.81291   0.00000  Uiso   1.00
H221   H     0.03313   0.55599   0.26079   0.00000  Uiso   1.00
O222   O     0.90824   0.98010   0.73924   0.00000  Uiso   1.00
O223   O     0.77185   0.37830   0.81779   0.00000  Uiso   1.00
O224   O     0.02891   0.69877   0.40541   0.00000  Uiso   1.00
N225   N     0.88837   0.11961   0.68603   0.00000  Uiso   1.00
N226   N     0.79117   0.40335   0.02939   0.00000  Uiso   1.00
N227   N     0.97435   0.63174   0.44810   0.00000  Uiso   1.00
N228   N     0.92512   0.05460   0.55203   0.00000  Uiso   1.00
N229   N     0.82792   0.33834   0.89539   0.00000  Uiso   1.00
N230   N     0.01111   0.56672   0.31409   0.00000  Uiso   1.00
C231   C     0.39734   0.56532   0.07157   0.00000  Uiso   1.00
C232   C     0.40845   0.65693   0.03089   0.00000  Uiso   1.00
C233   C     0.39925   0.69775   0.91562   0.00000  Uiso   1.00
C234   C     0.41208   0.78167   0.89658   0.00000  Uiso   1.00
C235   C     0.42608   0.91761   0.81930   0.00000  Uiso   1.00
C236   C     0.37855   0.57530   0.20180   0.00000  Uiso   1.00
C237   C     0.34422   0.54748   0.23022   0.00000  Uiso   1.00
C238   C     0.33188   0.56267   0.35506   0.00000  Uiso   1.00
C239   C     0.29947   0.57183   0.54314   0.00000  Uiso   1.00
C240   C     0.43184   0.51612   0.09933   0.00000  Uiso   1.00
C241   C     0.44230   0.43852   0.04163   0.00000  Uiso   1.00
C242   C     0.47481   0.40387   0.08022   0.00000  Uiso   1.00
C243   C     0.52514   0.32114   0.10920   0.00000  Uiso   1.00
C244   C     0.43647   0.64176   0.24274   0.00000  Uiso   1.00
C245   C     0.42970   0.69844   0.12387   0.00000  Uiso   1.00
C246   C     0.44255   0.78232   0.10500   0.00000  Uiso   1.00
C247   C     0.43337   0.82326   0.98972   0.00000  Uiso   1.00
C248   C     0.39981   0.61682   0.29477   0.00000  Uiso   1.00
C249   C     0.38751   0.63205   0.41960   0.00000  Uiso   1.00
C250   C     0.35317   0.60426   0.44820   0.00000  Uiso   1.00
C251   C     0.45309   0.55763   0.19230   0.00000  Uiso   1.00
C252   C     0.48559   0.52309   0.23100   0.00000  Uiso   1.00
C253   C     0.49610   0.44546   0.17336   0.00000  Uiso   1.00
H254   H     0.38080   0.53300   0.99920   0.00000  Uiso   1.00
H255   H     0.38280   0.66561   0.84370   0.00000  Uiso   1.00
H256   H     0.32778   0.51535   0.15826   0.00000  Uiso   1.00
H257   H     0.42585   0.40641   0.96968   0.00000  Uiso   1.00
H258   H     0.39439   0.83095   0.71233   0.00000  Uiso   1.00
H259   H     0.27838   0.51409   0.37560   0.00000  Uiso   1.00
H260   H     0.48517   0.28437   0.97796   0.00000  Uiso   1.00
H261   H     0.45302   0.67408   0.31513   0.00000  Uiso   1.00
H262   H     0.45899   0.81443   0.17696   0.00000  Uiso   1.00
H263   H     0.40397   0.66417   0.49152   0.00000  Uiso   1.00
H264   H     0.50203   0.55524   0.30295   0.00000  Uiso   1.00
H265   H     0.45623   0.95174   0.98282   0.00000  Uiso   1.00
H266   H     0.34021   0.63488   0.64610   0.00000  Uiso   1.00
H267   H     0.54700   0.40517   0.24845   0.00000  Uiso   1.00
O268   O     0.42792   0.98113   0.75100   0.00000  Uiso   1.00
O269   O     0.27572   0.56542   0.62120   0.00000  Uiso   1.00
O270   O     0.54702   0.26404   0.09950   0.00000  Uiso   1.00
N271   N     0.40813   0.84011   0.79493   0.00000  Uiso   1.00
N272   N     0.29966   0.54388   0.41505   0.00000  Uiso   1.00
N273   N     0.49299   0.32910   0.04332   0.00000  Uiso   1.00
N274   N     0.44140   0.90510   0.94048   0.00000  Uiso   1.00
N275   N     0.33293   0.60888   0.56060   0.00000  Uiso   1.00
N276   N     0.52626   0.39410   0.18886   0.00000  Uiso   1.00
C277   C     0.11859   0.60939   0.89969   0.00000  Uiso   1.00
C278   C     0.10769   0.69996   0.94587   0.00000  Uiso   1.00
C279   C     0.11900   0.73990   0.05933   0.00000  Uiso   1.00
C280   C     0.10598   0.82294   0.08420   0.00000  Uiso   1.00
C281   C     0.09264   0.95727   0.16889   0.00000  Uiso   1.00
C282   C     0.13448   0.62177   0.76489   0.00000  Uiso   1.00
C283   C     0.16831   0.59596   0.72620   0.00000  Uiso   1.00
C284   C     0.17785   0.61317   0.59871   0.00000  Uiso   1.00
C285   C     0.20609   0.62606   0.40241   0.00000  Uiso   1.00
C286   C     0.08399   0.55884   0.88031   0.00000  Uiso   1.00
C287   C     0.07538   0.48009   0.93862   0.00000  Uiso   1.00
C288   C     0.04241   0.44431   0.90829   0.00000  Uiso   1.00
C289   C     0.99226   0.35948   0.89118   0.00000  Uiso   1.00
C290   C     0.07537   0.68584   0.74210   0.00000  Uiso   1.00
C291   C     0.08421   0.74149   0.86026   0.00000  Uiso   1.00
C292   C     0.07117   0.82449   0.88497   0.00000  Uiso   1.00
C293   C     0.08246   0.86454   0.99845   0.00000  Uiso   1.00
C294   C     0.11100   0.66330   0.67930   0.00000  Uiso   1.00
C295   C     0.12049   0.68055   0.55184   0.00000  Uiso   1.00
C296   C     0.15433   0.65478   0.51296   0.00000  Uiso   1.00
C297   C     0.06052   0.60036   0.79471   0.00000  Uiso   1.00
C298   C     0.02756   0.56469   0.76427   0.00000  Uiso   1.00
C299   C     0.01889   0.48591   0.82253   0.00000  Uiso   1.00
H300   H     0.13687   0.57706   0.96632   0.00000  Uiso   1.00
H301   H     0.13717   0.70774   0.12554   0.00000  Uiso   1.00
H302   H     0.18648   0.56382   0.79246   0.00000  Uiso   1.00
H303   H     0.09356   0.44798   0.00485   0.00000  Uiso   1.00
H304   H     0.12715   0.87096   0.26429   0.00000  Uiso   1.00
H305   H     0.23111   0.56746   0.56195   0.00000  Uiso   1.00
H306   H     0.03518   0.32318   0.00983   0.00000  Uiso   1.00
H307   H     0.05709   0.71818   0.67545   0.00000  Uiso   1.00
H308   H     0.05301   0.85661   0.81871   0.00000  Uiso   1.00
H309   H     0.10232   0.71268   0.48562   0.00000  Uiso   1.00
H310   H     0.00940   0.59684   0.69802   0.00000  Uiso   1.00
H311   H     0.05885   0.99178   0.01525   0.00000  Uiso   1.00
H312   H     0.16281   0.68828   0.31291   0.00000  Uiso   1.00
H313   H     0.96687   0.44401   0.76079   0.00000  Uiso   1.00
O314   O     0.09176   0.01990   0.23924   0.00000  Uiso   1.00
O315   O     0.22815   0.62170   0.31779   0.00000  Uiso   1.00
O316   O     0.97109   0.30123   0.90541   0.00000  Uiso   1.00
N317   N     0.11163   0.88039   0.18603   0.00000  Uiso   1.00
N318   N     0.20883   0.59665   0.52939   0.00000  Uiso   1.00
N319   N     0.02565   0.36826   0.94810   0.00000  Uiso   1.00
N320   N     0.07488   0.94540   0.05203   0.00000  Uiso   1.00
N321   N     0.17208   0.66166   0.39539   0.00000  Uiso   1.00
N322   N     0.98889   0.43328   0.81409   0.00000  Uiso   1.00
C323   C     0.60266   0.43468   0.57157   0.00000  Uiso   1.00
C324   C     0.59155   0.34307   0.53089   0.00000  Uiso   1.00
C325   C     0.60075   0.30225   0.41562   0.00000  Uiso   1.00
C326   C     0.58792   0.21833   0.39658   0.00000  Uiso   1.00
C327   C     0.57392   0.08239   0.31930   0.00000  Uiso   1.00
C328   C     0.62145   0.42470   0.70180   0.00000  Uiso   1.00
C329   C     0.65578   0.45252   0.73022   0.00000  Uiso   1.00
C330   C     0.66812   0.43733   0.85506   0.00000  Uiso   1.00
C331   C     0.70053   0.42817   0.04314   0.00000  Uiso   1.00
C332   C     0.56816   0.48388   0.59933   0.00000  Uiso   1.00
C333   C     0.55770   0.56148   0.54163   0.00000  Uiso   1.00
C334   C     0.52519   0.59613   0.58022   0.00000  Uiso   1.00
C335   C     0.47486   0.67886   0.60920   0.00000  Uiso   1.00
C336   C     0.56353   0.35824   0.74274   0.00000  Uiso   1.00
C337   C     0.57030   0.30156   0.62387   0.00000  Uiso   1.00
C338   C     0.55745   0.21768   0.60500   0.00000  Uiso   1.00
C339   C     0.56663   0.17674   0.48972   0.00000  Uiso   1.00
C340   C     0.60019   0.38318   0.79477   0.00000  Uiso   1.00
C341   C     0.61249   0.36795   0.91960   0.00000  Uiso   1.00
C342   C     0.64683   0.39574   0.94820   0.00000  Uiso   1.00
C343   C     0.54691   0.44237   0.69230   0.00000  Uiso   1.00
C344   C     0.51441   0.47691   0.73100   0.00000  Uiso   1.00
C345   C     0.50390   0.55454   0.67336   0.00000  Uiso   1.00
H346   H     0.61920   0.46700   0.49920   0.00000  Uiso   1.00
H347   H     0.61720   0.33439   0.34370   0.00000  Uiso   1.00
H348   H     0.67222   0.48465   0.65826   0.00000  Uiso   1.00
H349   H     0.57415   0.59359   0.46968   0.00000  Uiso   1.00
H350   H     0.60561   0.16905   0.21233   0.00000  Uiso   1.00
H351   H     0.72162   0.48591   0.87560   0.00000  Uiso   1.00
H352   H     0.51483   0.71563   0.47796   0.00000  Uiso   1.00
H353   H     0.54698   0.32592   0.81513   0.00000  Uiso   1.00
H354   H     0.54101   0.18557   0.67696   0.00000  Uiso   1.00
H355   H     0.59603   0.33583   0.99152   0.00000  Uiso   1.00
H356   H     0.49797   0.44476   0.80295   0.00000  Uiso   1.00
H357   H     0.54377   0.04826   0.48282   0.00000  Uiso   1.00
H358   H     0.65979   0.36512   0.14610   0.00000  Uiso   1.00
H359   H     0.45300   0.59483   0.74845   0.00000  Uiso   1.00
O360   O     0.57208   0.01887   0.25100   0.00000  Uiso   1.00
O361   O     0.72428   0.43458   0.12120   0.00000  Uiso   1.00
O362   O     0.45298   0.73596   0.59950   0.00000  Uiso   1.00
N363   N     0.59187   0.15989   0.29493   0.00000  Uiso   1.00
N364   N     0.70034   0.45612   0.91505   0.00000  Uiso   1.00
N365   N     0.50701   0.67090   0.54332   0.00000  Uiso   1.00
N366   N     0.55860   0.09490   0.44048   0.00000  Uiso   1.00
N367   N     0.66707   0.39112   0.06060   0.00000  Uiso   1.00
N368   N     0.47374   0.60590   0.68886   0.00000  Uiso   1.00
