data_job_03969
_audit_creation_date              2018-12-19
_audit_creation_method            'Materials Studio'
_symmetry_space_group_name_H-M    'P1'
_symmetry_Int_Tables_number       1
_symmetry_cell_setting            triclinic
loop_
_symmetry_equiv_pos_as_xyz
  x,y,z
_cell_length_a                    20.6702
_cell_length_b                    14.0413
_cell_length_c                    11.2149
_cell_angle_alpha                 90.0000
_cell_angle_beta                  118.9020
_cell_angle_gamma                 90.0000
loop_
_atom_site_label
_atom_site_type_symbol
_atom_site_fract_x
_atom_site_fract_y
_atom_site_fract_z
_atom_site_U_iso_or_equiv
_atom_site_adp_type
_atom_site_occupancy
C1     C     0.29774   0.69666   0.00522   0.00000  Uiso   1.00
C2     C     0.24072   0.66388   0.86310   0.00000  Uiso   1.00
C3     C     0.23751   0.69233   0.74185   0.00000  Uiso   1.00
C4     C     0.18111   0.65426   0.62253   0.00000  Uiso   1.00
C5     C     0.10035   0.61317   0.40155   0.00000  Uiso   1.00
C6     C     0.25391   0.73874   0.06967   0.00000  Uiso   1.00
C7     C     0.26180   0.83012   0.12212   0.00000  Uiso   1.00
C8     C     0.21651   0.85504   0.17671   0.00000  Uiso   1.00
C9     C     0.15627   0.93014   0.27653   0.00000  Uiso   1.00
C10    C     0.33386   0.60635   0.08543   0.00000  Uiso   1.00
C11    C     0.40897   0.58643   0.15116   0.00000  Uiso   1.00
C12    C     0.43100   0.49991   0.21904   0.00000  Uiso   1.00
C13    C     0.49489   0.36946   0.34332   0.00000  Uiso   1.00
C14    C     0.20328   0.57844   0.00894   0.00000  Uiso   1.00
C15    C     0.18941   0.59968   0.86512   0.00000  Uiso   1.00
C16    C     0.13301   0.56154   0.74596   0.00000  Uiso   1.00
C17    C     0.12971   0.58993   0.62455   0.00000  Uiso   1.00
C18    C     0.20261   0.67453   0.07169   0.00000  Uiso   1.00
C19    C     0.15730   0.69932   0.12623   0.00000  Uiso   1.00
C20    C     0.16511   0.79072   0.17874   0.00000  Uiso   1.00
C21    C     0.28255   0.54214   0.08745   0.00000  Uiso   1.00
C22    C     0.30447   0.45564   0.15526   0.00000  Uiso   1.00
C23    C     0.37960   0.43558   0.22107   0.00000  Uiso   1.00
H24    H     0.33768   0.74665   0.00365   0.00000  Uiso   1.00
H25    H     0.27722   0.74203   0.74033   0.00000  Uiso   1.00
H26    H     0.30151   0.87979   0.12056   0.00000  Uiso   1.00
H27    H     0.44866   0.63614   0.14957   0.00000  Uiso   1.00
H28    H     0.18755   0.70862   0.44927   0.00000  Uiso   1.00
H29    H     0.23879   0.99907   0.25104   0.00000  Uiso   1.00
H30    H     0.54907   0.48529   0.31224   0.00000  Uiso   1.00
H31    H     0.16334   0.52845   0.01051   0.00000  Uiso   1.00
H32    H     0.09331   0.51185   0.74755   0.00000  Uiso   1.00
H33    H     0.11761   0.64961   0.12778   0.00000  Uiso   1.00
H34    H     0.26475   0.40596   0.15680   0.00000  Uiso   1.00
H35    H     0.03828   0.52180   0.45514   0.00000  Uiso   1.00
H36    H     0.08952   0.81226   0.25692   0.00000  Uiso   1.00
H37    H     0.39980   0.29847   0.31810   0.00000  Uiso   1.00
O38    O     0.06997   0.60825   0.27910   0.00000  Uiso   1.00
O39    O     0.13721   0.98931   0.33101   0.00000  Uiso   1.00
O40    O     0.54430   0.31524   0.41129   0.00000  Uiso   1.00
N41    N     0.16203   0.66692   0.48674   0.00000  Uiso   1.00
N42    N     0.20993   0.93848   0.23633   0.00000  Uiso   1.00
N43    N     0.50003   0.45815   0.29357   0.00000  Uiso   1.00
N44    N     0.08171   0.56639   0.48990   0.00000  Uiso   1.00
N45    N     0.12961   0.83795   0.23949   0.00000  Uiso   1.00
N46    N     0.41971   0.35762   0.29673   0.00000  Uiso   1.00
C47    C     0.79774   0.19666   0.00522   0.00000  Uiso   1.00
C48    C     0.74072   0.16388   0.86310   0.00000  Uiso   1.00
C49    C     0.73751   0.19233   0.74185   0.00000  Uiso   1.00
C50    C     0.68111   0.15426   0.62253   0.00000  Uiso   1.00
C51    C     0.60035   0.11317   0.40155   0.00000  Uiso   1.00
C52    C     0.75391   0.23874   0.06967   0.00000  Uiso   1.00
C53    C     0.76180   0.33012   0.12212   0.00000  Uiso   1.00
C54    C     0.71651   0.35504   0.17671   0.00000  Uiso   1.00
C55    C     0.65627   0.43014   0.27653   0.00000  Uiso   1.00
C56    C     0.83386   0.10635   0.08543   0.00000  Uiso   1.00
C57    C     0.90897   0.08643   0.15116   0.00000  Uiso   1.00
C58    C     0.93100   0.99991   0.21904   0.00000  Uiso   1.00
C59    C     0.99489   0.86946   0.34332   0.00000  Uiso   1.00
C60    C     0.70328   0.07844   0.00894   0.00000  Uiso   1.00
C61    C     0.68941   0.09968   0.86512   0.00000  Uiso   1.00
C62    C     0.63301   0.06154   0.74596   0.00000  Uiso   1.00
C63    C     0.62971   0.08993   0.62455   0.00000  Uiso   1.00
C64    C     0.70261   0.17453   0.07169   0.00000  Uiso   1.00
C65    C     0.65730   0.19932   0.12623   0.00000  Uiso   1.00
C66    C     0.66511   0.29072   0.17874   0.00000  Uiso   1.00
C67    C     0.78255   0.04214   0.08745   0.00000  Uiso   1.00
C68    C     0.80447   0.95564   0.15526   0.00000  Uiso   1.00
C69    C     0.87960   0.93558   0.22107   0.00000  Uiso   1.00
H70    H     0.83768   0.24665   0.00365   0.00000  Uiso   1.00
H71    H     0.77722   0.24203   0.74033   0.00000  Uiso   1.00
H72    H     0.80151   0.37979   0.12056   0.00000  Uiso   1.00
H73    H     0.94866   0.13614   0.14957   0.00000  Uiso   1.00
H74    H     0.68755   0.20862   0.44927   0.00000  Uiso   1.00
H75    H     0.73879   0.49907   0.25104   0.00000  Uiso   1.00
H76    H     0.04907   0.98529   0.31224   0.00000  Uiso   1.00
H77    H     0.66334   0.02845   0.01051   0.00000  Uiso   1.00
H78    H     0.59331   0.01185   0.74755   0.00000  Uiso   1.00
H79    H     0.61761   0.14961   0.12778   0.00000  Uiso   1.00
H80    H     0.76475   0.90596   0.15680   0.00000  Uiso   1.00
H81    H     0.53828   0.02180   0.45514   0.00000  Uiso   1.00
H82    H     0.58952   0.31226   0.25692   0.00000  Uiso   1.00
H83    H     0.89980   0.79847   0.31810   0.00000  Uiso   1.00
O84    O     0.56997   0.10825   0.27910   0.00000  Uiso   1.00
O85    O     0.63721   0.48931   0.33101   0.00000  Uiso   1.00
O86    O     0.04430   0.81524   0.41129   0.00000  Uiso   1.00
N87    N     0.66203   0.16692   0.48674   0.00000  Uiso   1.00
N88    N     0.70993   0.43848   0.23633   0.00000  Uiso   1.00
N89    N     0.00003   0.95815   0.29357   0.00000  Uiso   1.00
N90    N     0.58171   0.06639   0.48990   0.00000  Uiso   1.00
N91    N     0.62961   0.33795   0.23949   0.00000  Uiso   1.00
N92    N     0.91971   0.85762   0.29673   0.00000  Uiso   1.00
C93    C     0.70226   0.69666   0.99478   0.00000  Uiso   1.00
C94    C     0.75928   0.66388   0.13690   0.00000  Uiso   1.00
C95    C     0.76249   0.69233   0.25815   0.00000  Uiso   1.00
C96    C     0.81889   0.65426   0.37747   0.00000  Uiso   1.00
C97    C     0.89965   0.61317   0.59845   0.00000  Uiso   1.00
C98    C     0.74609   0.73874   0.93033   0.00000  Uiso   1.00
C99    C     0.73820   0.83012   0.87788   0.00000  Uiso   1.00
C100   C     0.78349   0.85504   0.82329   0.00000  Uiso   1.00
C101   C     0.84373   0.93014   0.72347   0.00000  Uiso   1.00
C102   C     0.66614   0.60635   0.91457   0.00000  Uiso   1.00
C103   C     0.59103   0.58643   0.84884   0.00000  Uiso   1.00
C104   C     0.56900   0.49991   0.78096   0.00000  Uiso   1.00
C105   C     0.50511   0.36946   0.65668   0.00000  Uiso   1.00
C106   C     0.79672   0.57844   0.99106   0.00000  Uiso   1.00
C107   C     0.81059   0.59968   0.13488   0.00000  Uiso   1.00
C108   C     0.86699   0.56154   0.25404   0.00000  Uiso   1.00
C109   C     0.87029   0.58993   0.37545   0.00000  Uiso   1.00
C110   C     0.79739   0.67453   0.92831   0.00000  Uiso   1.00
C111   C     0.84270   0.69932   0.87377   0.00000  Uiso   1.00
C112   C     0.83489   0.79072   0.82126   0.00000  Uiso   1.00
C113   C     0.71745   0.54214   0.91255   0.00000  Uiso   1.00
C114   C     0.69553   0.45564   0.84474   0.00000  Uiso   1.00
C115   C     0.62040   0.43558   0.77893   0.00000  Uiso   1.00
H116   H     0.66232   0.74665   0.99635   0.00000  Uiso   1.00
H117   H     0.72278   0.74203   0.25967   0.00000  Uiso   1.00
H118   H     0.69849   0.87979   0.87944   0.00000  Uiso   1.00
H119   H     0.55134   0.63614   0.85043   0.00000  Uiso   1.00
H120   H     0.81245   0.70862   0.55073   0.00000  Uiso   1.00
H121   H     0.76121   0.99907   0.74896   0.00000  Uiso   1.00
H122   H     0.45093   0.48529   0.68776   0.00000  Uiso   1.00
H123   H     0.83666   0.52845   0.98949   0.00000  Uiso   1.00
H124   H     0.90669   0.51185   0.25245   0.00000  Uiso   1.00
H125   H     0.88239   0.64961   0.87222   0.00000  Uiso   1.00
H126   H     0.73525   0.40596   0.84320   0.00000  Uiso   1.00
H127   H     0.96172   0.52180   0.54486   0.00000  Uiso   1.00
H128   H     0.91048   0.81226   0.74308   0.00000  Uiso   1.00
H129   H     0.60020   0.29847   0.68190   0.00000  Uiso   1.00
O130   O     0.93003   0.60825   0.72090   0.00000  Uiso   1.00
O131   O     0.86279   0.98931   0.66899   0.00000  Uiso   1.00
O132   O     0.45570   0.31524   0.58871   0.00000  Uiso   1.00
N133   N     0.83797   0.66692   0.51326   0.00000  Uiso   1.00
N134   N     0.79007   0.93848   0.76367   0.00000  Uiso   1.00
N135   N     0.49997   0.45815   0.70643   0.00000  Uiso   1.00
N136   N     0.91829   0.56639   0.51010   0.00000  Uiso   1.00
N137   N     0.87039   0.83795   0.76051   0.00000  Uiso   1.00
N138   N     0.58029   0.35762   0.70327   0.00000  Uiso   1.00
C139   C     0.20226   0.19666   0.99478   0.00000  Uiso   1.00
C140   C     0.25928   0.16388   0.13690   0.00000  Uiso   1.00
C141   C     0.26249   0.19233   0.25815   0.00000  Uiso   1.00
C142   C     0.31889   0.15426   0.37747   0.00000  Uiso   1.00
C143   C     0.39965   0.11317   0.59845   0.00000  Uiso   1.00
C144   C     0.24609   0.23874   0.93033   0.00000  Uiso   1.00
C145   C     0.23820   0.33012   0.87788   0.00000  Uiso   1.00
C146   C     0.28349   0.35504   0.82329   0.00000  Uiso   1.00
C147   C     0.34373   0.43014   0.72347   0.00000  Uiso   1.00
C148   C     0.16614   0.10635   0.91457   0.00000  Uiso   1.00
C149   C     0.09103   0.08643   0.84884   0.00000  Uiso   1.00
C150   C     0.06900   0.99991   0.78096   0.00000  Uiso   1.00
C151   C     0.00511   0.86946   0.65668   0.00000  Uiso   1.00
C152   C     0.29672   0.07844   0.99106   0.00000  Uiso   1.00
C153   C     0.31059   0.09968   0.13488   0.00000  Uiso   1.00
C154   C     0.36699   0.06154   0.25404   0.00000  Uiso   1.00
C155   C     0.37029   0.08993   0.37545   0.00000  Uiso   1.00
C156   C     0.29739   0.17453   0.92831   0.00000  Uiso   1.00
C157   C     0.34270   0.19932   0.87377   0.00000  Uiso   1.00
C158   C     0.33489   0.29072   0.82126   0.00000  Uiso   1.00
C159   C     0.21745   0.04214   0.91255   0.00000  Uiso   1.00
C160   C     0.19553   0.95564   0.84474   0.00000  Uiso   1.00
C161   C     0.12040   0.93558   0.77893   0.00000  Uiso   1.00
H162   H     0.16232   0.24665   0.99635   0.00000  Uiso   1.00
H163   H     0.22278   0.24203   0.25967   0.00000  Uiso   1.00
H164   H     0.19849   0.37979   0.87944   0.00000  Uiso   1.00
H165   H     0.05134   0.13614   0.85043   0.00000  Uiso   1.00
H166   H     0.31245   0.20862   0.55073   0.00000  Uiso   1.00
H167   H     0.26121   0.49907   0.74896   0.00000  Uiso   1.00
H168   H     0.95093   0.98529   0.68776   0.00000  Uiso   1.00
H169   H     0.33666   0.02845   0.98949   0.00000  Uiso   1.00
H170   H     0.40669   0.01185   0.25245   0.00000  Uiso   1.00
H171   H     0.38239   0.14961   0.87222   0.00000  Uiso   1.00
H172   H     0.23525   0.90596   0.84320   0.00000  Uiso   1.00
H173   H     0.46172   0.02180   0.54486   0.00000  Uiso   1.00
H174   H     0.41048   0.31226   0.74308   0.00000  Uiso   1.00
H175   H     0.10020   0.79847   0.68190   0.00000  Uiso   1.00
O176   O     0.43003   0.10825   0.72090   0.00000  Uiso   1.00
O177   O     0.36279   0.48931   0.66899   0.00000  Uiso   1.00
O178   O     0.95570   0.81524   0.58871   0.00000  Uiso   1.00
N179   N     0.33797   0.16692   0.51326   0.00000  Uiso   1.00
N180   N     0.29007   0.43848   0.76367   0.00000  Uiso   1.00
N181   N     0.99997   0.95815   0.70643   0.00000  Uiso   1.00
N182   N     0.41829   0.06639   0.51010   0.00000  Uiso   1.00
N183   N     0.37039   0.33795   0.76051   0.00000  Uiso   1.00
N184   N     0.08029   0.85762   0.70327   0.00000  Uiso   1.00
