data_job_00164
_audit_creation_date              2018-12-19
_audit_creation_method            'Materials Studio'
_symmetry_space_group_name_H-M    'P1'
_symmetry_Int_Tables_number       1
_symmetry_cell_setting            triclinic
loop_
_symmetry_equiv_pos_as_xyz
  x,y,z
_cell_length_a                    13.9864
_cell_length_b                    15.4727
_cell_length_c                    9.8456
_cell_angle_alpha                 90.0000
_cell_angle_beta                  84.4392
_cell_angle_gamma                 90.0000
loop_
_atom_site_label
_atom_site_type_symbol
_atom_site_fract_x
_atom_site_fract_y
_atom_site_fract_z
_atom_site_U_iso_or_equiv
_atom_site_adp_type
_atom_site_occupancy
C1     C     0.69638   0.41441   0.74088   0.00000  Uiso   1.00
C2     C     0.69841   0.50887   0.69652   0.00000  Uiso   1.00
C3     C     0.63289   0.54837   0.61933   0.00000  Uiso   1.00
C4     C     0.64721   0.63538   0.58944   0.00000  Uiso   1.00
C5     C     0.63865   0.77508   0.51355   0.00000  Uiso   1.00
C6     C     0.79368   0.37682   0.68780   0.00000  Uiso   1.00
C7     C     0.80826   0.30528   0.60329   0.00000  Uiso   1.00
C8     C     0.90278   0.28112   0.56608   0.00000  Uiso   1.00
C9     C     0.04213   0.21577   0.47673   0.00000  Uiso   1.00
C10    C     0.69433   0.41528   0.89601   0.00000  Uiso   1.00
C11    C     0.62539   0.37607   0.98657   0.00000  Uiso   1.00
C12    C     0.63628   0.38428   0.12465   0.00000  Uiso   1.00
C13    C     0.62139   0.37866   0.35857   0.00000  Uiso   1.00
C14    C     0.83832   0.49868   0.82508   0.00000  Uiso   1.00
C15    C     0.77551   0.55464   0.74226   0.00000  Uiso   1.00
C16    C     0.78992   0.64162   0.71249   0.00000  Uiso   1.00
C17    C     0.72444   0.68124   0.63526   0.00000  Uiso   1.00
C18    C     0.87077   0.42259   0.73353   0.00000  Uiso   1.00
C19    C     0.96529   0.39853   0.69645   0.00000  Uiso   1.00
C20    C     0.98001   0.32698   0.61190   0.00000  Uiso   1.00
C21    C     0.77142   0.46106   0.94175   0.00000  Uiso   1.00
C22    C     0.78243   0.46932   0.07972   0.00000  Uiso   1.00
C23    C     0.71352   0.43014   0.17047   0.00000  Uiso   1.00
H24    H     0.63637   0.37876   0.70527   0.00000  Uiso   1.00
H25    H     0.57324   0.51292   0.58394   0.00000  Uiso   1.00
H26    H     0.74858   0.26986   0.56792   0.00000  Uiso   1.00
H27    H     0.56575   0.34065   0.95114   0.00000  Uiso   1.00
H28    H     0.53728   0.68184   0.46956   0.00000  Uiso   1.00
H29    H     0.90699   0.16933   0.43581   0.00000  Uiso   1.00
H30    H     0.52144   0.31859   0.24389   0.00000  Uiso   1.00
H31    H     0.89834   0.53432   0.86069   0.00000  Uiso   1.00
H32    H     0.84959   0.67702   0.74789   0.00000  Uiso   1.00
H33    H     0.02493   0.43397   0.73187   0.00000  Uiso   1.00
H34    H     0.84210   0.50475   0.11508   0.00000  Uiso   1.00
H35    H     0.76157   0.81503   0.60262   0.00000  Uiso   1.00
H36    H     0.13129   0.30251   0.56888   0.00000  Uiso   1.00
H37    H     0.74574   0.45178   0.37695   0.00000  Uiso   1.00
O38    O     0.61265   0.83949   0.45904   0.00000  Uiso   1.00
O39    O     0.09770   0.16708   0.41479   0.00000  Uiso   1.00
O40    O     0.59187   0.36292   0.47497   0.00000  Uiso   1.00
N41    N     0.59674   0.69361   0.51638   0.00000  Uiso   1.00
N42    N     0.94241   0.21444   0.48481   0.00000  Uiso   1.00
N43    N     0.58197   0.35397   0.24029   0.00000  Uiso   1.00
N44    N     0.71744   0.76528   0.58798   0.00000  Uiso   1.00
N45    N     0.06310   0.28611   0.55641   0.00000  Uiso   1.00
N46    N     0.70266   0.42564   0.31189   0.00000  Uiso   1.00
C47    C     0.30362   0.91441   0.75912   0.00000  Uiso   1.00
C48    C     0.30159   0.00887   0.80348   0.00000  Uiso   1.00
C49    C     0.36711   0.04837   0.88067   0.00000  Uiso   1.00
C50    C     0.35279   0.13538   0.91056   0.00000  Uiso   1.00
C51    C     0.36135   0.27508   0.98645   0.00000  Uiso   1.00
C52    C     0.20632   0.87682   0.81220   0.00000  Uiso   1.00
C53    C     0.19174   0.80528   0.89671   0.00000  Uiso   1.00
C54    C     0.09722   0.78112   0.93392   0.00000  Uiso   1.00
C55    C     0.95787   0.71577   0.02327   0.00000  Uiso   1.00
C56    C     0.30567   0.91528   0.60399   0.00000  Uiso   1.00
C57    C     0.37461   0.87607   0.51343   0.00000  Uiso   1.00
C58    C     0.36372   0.88428   0.37535   0.00000  Uiso   1.00
C59    C     0.37861   0.87866   0.14143   0.00000  Uiso   1.00
C60    C     0.16168   0.99868   0.67492   0.00000  Uiso   1.00
C61    C     0.22449   0.05464   0.75774   0.00000  Uiso   1.00
C62    C     0.21008   0.14162   0.78751   0.00000  Uiso   1.00
C63    C     0.27556   0.18124   0.86474   0.00000  Uiso   1.00
C64    C     0.12923   0.92259   0.76647   0.00000  Uiso   1.00
C65    C     0.03471   0.89853   0.80355   0.00000  Uiso   1.00
C66    C     0.01999   0.82698   0.88810   0.00000  Uiso   1.00
C67    C     0.22858   0.96106   0.55825   0.00000  Uiso   1.00
C68    C     0.21757   0.96932   0.42028   0.00000  Uiso   1.00
C69    C     0.28648   0.93014   0.32953   0.00000  Uiso   1.00
H70    H     0.36363   0.87876   0.79473   0.00000  Uiso   1.00
H71    H     0.42676   0.01292   0.91606   0.00000  Uiso   1.00
H72    H     0.25142   0.76986   0.93208   0.00000  Uiso   1.00
H73    H     0.43425   0.84065   0.54886   0.00000  Uiso   1.00
H74    H     0.46272   0.18184   0.03044   0.00000  Uiso   1.00
H75    H     0.09301   0.66933   0.06419   0.00000  Uiso   1.00
H76    H     0.47856   0.81859   0.25611   0.00000  Uiso   1.00
H77    H     0.10166   0.03432   0.63931   0.00000  Uiso   1.00
H78    H     0.15041   0.17702   0.75211   0.00000  Uiso   1.00
H79    H     0.97507   0.93397   0.76813   0.00000  Uiso   1.00
H80    H     0.15790   0.00475   0.38492   0.00000  Uiso   1.00
H81    H     0.23843   0.31503   0.89738   0.00000  Uiso   1.00
H82    H     0.86871   0.80251   0.93112   0.00000  Uiso   1.00
H83    H     0.25426   0.95178   0.12305   0.00000  Uiso   1.00
O84    O     0.38735   0.33949   0.04096   0.00000  Uiso   1.00
O85    O     0.90230   0.66708   0.08521   0.00000  Uiso   1.00
O86    O     0.40813   0.86292   0.02503   0.00000  Uiso   1.00
N87    N     0.40326   0.19361   0.98362   0.00000  Uiso   1.00
N88    N     0.05759   0.71444   0.01519   0.00000  Uiso   1.00
N89    N     0.41803   0.85397   0.25971   0.00000  Uiso   1.00
N90    N     0.28256   0.26528   0.91202   0.00000  Uiso   1.00
N91    N     0.93690   0.78611   0.94359   0.00000  Uiso   1.00
N92    N     0.29734   0.92564   0.18811   0.00000  Uiso   1.00
C93    C     0.30362   0.58559   0.25912   0.00000  Uiso   1.00
C94    C     0.30159   0.49113   0.30348   0.00000  Uiso   1.00
C95    C     0.36711   0.45163   0.38067   0.00000  Uiso   1.00
C96    C     0.35279   0.36462   0.41056   0.00000  Uiso   1.00
C97    C     0.36135   0.22492   0.48645   0.00000  Uiso   1.00
C98    C     0.20632   0.62318   0.31220   0.00000  Uiso   1.00
C99    C     0.19174   0.69472   0.39671   0.00000  Uiso   1.00
C100   C     0.09722   0.71888   0.43392   0.00000  Uiso   1.00
C101   C     0.95787   0.78423   0.52327   0.00000  Uiso   1.00
C102   C     0.30567   0.58472   0.10399   0.00000  Uiso   1.00
C103   C     0.37461   0.62393   0.01343   0.00000  Uiso   1.00
C104   C     0.36372   0.61572   0.87535   0.00000  Uiso   1.00
C105   C     0.37861   0.62134   0.64143   0.00000  Uiso   1.00
C106   C     0.16168   0.50132   0.17492   0.00000  Uiso   1.00
C107   C     0.22449   0.44536   0.25774   0.00000  Uiso   1.00
C108   C     0.21008   0.35838   0.28751   0.00000  Uiso   1.00
C109   C     0.27556   0.31876   0.36474   0.00000  Uiso   1.00
C110   C     0.12923   0.57741   0.26647   0.00000  Uiso   1.00
C111   C     0.03471   0.60147   0.30355   0.00000  Uiso   1.00
C112   C     0.01999   0.67302   0.38810   0.00000  Uiso   1.00
C113   C     0.22858   0.53894   0.05825   0.00000  Uiso   1.00
C114   C     0.21757   0.53068   0.92028   0.00000  Uiso   1.00
C115   C     0.28648   0.56986   0.82953   0.00000  Uiso   1.00
H116   H     0.36363   0.62124   0.29473   0.00000  Uiso   1.00
H117   H     0.42676   0.48708   0.41606   0.00000  Uiso   1.00
H118   H     0.25142   0.73014   0.43208   0.00000  Uiso   1.00
H119   H     0.43425   0.65935   0.04886   0.00000  Uiso   1.00
H120   H     0.46272   0.31816   0.53044   0.00000  Uiso   1.00
H121   H     0.09301   0.83067   0.56419   0.00000  Uiso   1.00
H122   H     0.47856   0.68141   0.75611   0.00000  Uiso   1.00
H123   H     0.10166   0.46568   0.13931   0.00000  Uiso   1.00
H124   H     0.15041   0.32298   0.25211   0.00000  Uiso   1.00
H125   H     0.97507   0.56603   0.26813   0.00000  Uiso   1.00
H126   H     0.15790   0.49525   0.88492   0.00000  Uiso   1.00
H127   H     0.23843   0.18497   0.39738   0.00000  Uiso   1.00
H128   H     0.86871   0.69749   0.43112   0.00000  Uiso   1.00
H129   H     0.25426   0.54822   0.62305   0.00000  Uiso   1.00
O130   O     0.38735   0.16051   0.54096   0.00000  Uiso   1.00
O131   O     0.90230   0.83292   0.58521   0.00000  Uiso   1.00
O132   O     0.40813   0.63708   0.52503   0.00000  Uiso   1.00
N133   N     0.40326   0.30639   0.48362   0.00000  Uiso   1.00
N134   N     0.05759   0.78556   0.51519   0.00000  Uiso   1.00
N135   N     0.41803   0.64603   0.75971   0.00000  Uiso   1.00
N136   N     0.28256   0.23472   0.41202   0.00000  Uiso   1.00
N137   N     0.93690   0.71389   0.44359   0.00000  Uiso   1.00
N138   N     0.29734   0.57436   0.68811   0.00000  Uiso   1.00
C139   C     0.69638   0.08559   0.24088   0.00000  Uiso   1.00
C140   C     0.69841   0.99113   0.19652   0.00000  Uiso   1.00
C141   C     0.63289   0.95163   0.11933   0.00000  Uiso   1.00
C142   C     0.64721   0.86462   0.08944   0.00000  Uiso   1.00
C143   C     0.63865   0.72492   0.01355   0.00000  Uiso   1.00
C144   C     0.79368   0.12318   0.18780   0.00000  Uiso   1.00
C145   C     0.80826   0.19472   0.10329   0.00000  Uiso   1.00
C146   C     0.90278   0.21888   0.06608   0.00000  Uiso   1.00
C147   C     0.04213   0.28423   0.97673   0.00000  Uiso   1.00
C148   C     0.69433   0.08472   0.39601   0.00000  Uiso   1.00
C149   C     0.62539   0.12393   0.48657   0.00000  Uiso   1.00
C150   C     0.63628   0.11572   0.62465   0.00000  Uiso   1.00
C151   C     0.62139   0.12134   0.85857   0.00000  Uiso   1.00
C152   C     0.83832   0.00132   0.32508   0.00000  Uiso   1.00
C153   C     0.77551   0.94536   0.24226   0.00000  Uiso   1.00
C154   C     0.78992   0.85838   0.21249   0.00000  Uiso   1.00
C155   C     0.72444   0.81876   0.13526   0.00000  Uiso   1.00
C156   C     0.87077   0.07741   0.23353   0.00000  Uiso   1.00
C157   C     0.96529   0.10147   0.19645   0.00000  Uiso   1.00
C158   C     0.98001   0.17302   0.11190   0.00000  Uiso   1.00
C159   C     0.77142   0.03894   0.44175   0.00000  Uiso   1.00
C160   C     0.78243   0.03068   0.57972   0.00000  Uiso   1.00
C161   C     0.71352   0.06986   0.67047   0.00000  Uiso   1.00
H162   H     0.63637   0.12124   0.20527   0.00000  Uiso   1.00
H163   H     0.57324   0.98708   0.08394   0.00000  Uiso   1.00
H164   H     0.74858   0.23014   0.06792   0.00000  Uiso   1.00
H165   H     0.56575   0.15935   0.45114   0.00000  Uiso   1.00
H166   H     0.53728   0.81816   0.96956   0.00000  Uiso   1.00
H167   H     0.90699   0.33067   0.93581   0.00000  Uiso   1.00
H168   H     0.52144   0.18141   0.74389   0.00000  Uiso   1.00
H169   H     0.89834   0.96568   0.36069   0.00000  Uiso   1.00
H170   H     0.84959   0.82298   0.24789   0.00000  Uiso   1.00
H171   H     0.02493   0.06603   0.23187   0.00000  Uiso   1.00
H172   H     0.84210   0.99525   0.61508   0.00000  Uiso   1.00
H173   H     0.76157   0.68497   0.10262   0.00000  Uiso   1.00
H174   H     0.13129   0.19749   0.06888   0.00000  Uiso   1.00
H175   H     0.74574   0.04822   0.87695   0.00000  Uiso   1.00
O176   O     0.61265   0.66051   0.95904   0.00000  Uiso   1.00
O177   O     0.09770   0.33292   0.91479   0.00000  Uiso   1.00
O178   O     0.59187   0.13708   0.97497   0.00000  Uiso   1.00
N179   N     0.59674   0.80639   0.01638   0.00000  Uiso   1.00
N180   N     0.94241   0.28556   0.98481   0.00000  Uiso   1.00
N181   N     0.58197   0.14603   0.74029   0.00000  Uiso   1.00
N182   N     0.71744   0.73472   0.08798   0.00000  Uiso   1.00
N183   N     0.06310   0.21389   0.05641   0.00000  Uiso   1.00
N184   N     0.70266   0.07436   0.81189   0.00000  Uiso   1.00
