data_job_00347
_audit_creation_date              2018-12-19
_audit_creation_method            'Materials Studio'
_symmetry_space_group_name_H-M    'P1'
_symmetry_Int_Tables_number       1
_symmetry_cell_setting            triclinic
loop_
_symmetry_equiv_pos_as_xyz
  x,y,z
_cell_length_a                    16.7655
_cell_length_b                    16.7655
_cell_length_c                    15.1075
_cell_angle_alpha                 90.0000
_cell_angle_beta                  90.0000
_cell_angle_gamma                 90.0000
loop_
_atom_site_label
_atom_site_type_symbol
_atom_site_fract_x
_atom_site_fract_y
_atom_site_fract_z
_atom_site_U_iso_or_equiv
_atom_site_adp_type
_atom_site_occupancy
C1     C     0.02518   0.79990   0.71430   0.00000  Uiso   1.00
C2     C     0.01476   0.72402   0.65986   0.00000  Uiso   1.00
C3     C     0.07471   0.68442   0.61425   0.00000  Uiso   1.00
C4     C     0.05305   0.61600   0.56838   0.00000  Uiso   1.00
C5     C     0.04886   0.50242   0.48384   0.00000  Uiso   1.00
C6     C     0.96671   0.86039   0.67593   0.00000  Uiso   1.00
C7     C     0.98625   0.93545   0.64383   0.00000  Uiso   1.00
C8     C     0.92414   0.98184   0.61150   0.00000  Uiso   1.00
C9     C     0.84533   0.08000   0.55197   0.00000  Uiso   1.00
C10    C     0.99466   0.78030   0.80686   0.00000  Uiso   1.00
C11    C     0.03770   0.78804   0.88486   0.00000  Uiso   1.00
C12    C     0.99911   0.76702   0.96276   0.00000  Uiso   1.00
C13    C     0.96370   0.74083   0.10653   0.00000  Uiso   1.00
C14    C     0.88012   0.74883   0.71396   0.00000  Uiso   1.00
C15    C     0.93597   0.69628   0.65968   0.00000  Uiso   1.00
C16    C     0.91422   0.62791   0.61387   0.00000  Uiso   1.00
C17    C     0.97413   0.58821   0.56819   0.00000  Uiso   1.00
C18    C     0.88792   0.83265   0.67574   0.00000  Uiso   1.00
C19    C     0.82577   0.87894   0.64345   0.00000  Uiso   1.00
C20    C     0.84521   0.95405   0.61131   0.00000  Uiso   1.00
C21    C     0.91587   0.75256   0.80668   0.00000  Uiso   1.00
C22    C     0.87721   0.73153   0.88448   0.00000  Uiso   1.00
C23    C     0.92018   0.73923   0.96258   0.00000  Uiso   1.00
H24    H     0.08651   0.82151   0.71444   0.00000  Uiso   1.00
H25    H     0.13567   0.70591   0.61440   0.00000  Uiso   1.00
H26    H     0.04723   0.95691   0.64400   0.00000  Uiso   1.00
H27    H     0.09866   0.80952   0.88498   0.00000  Uiso   1.00
H28    H     0.15542   0.56553   0.50338   0.00000  Uiso   1.00
H29    H     0.96893   0.09478   0.56580   0.00000  Uiso   1.00
H30    H     0.07739   0.78398   0.07397   0.00000  Uiso   1.00
H31    H     0.81878   0.72723   0.71381   0.00000  Uiso   1.00
H32    H     0.85324   0.60645   0.61373   0.00000  Uiso   1.00
H33    H     0.76480   0.85745   0.64332   0.00000  Uiso   1.00
H34    H     0.81624   0.71006   0.88431   0.00000  Uiso   1.00
H35    H     0.92619   0.48481   0.50283   0.00000  Uiso   1.00
H36    H     0.73970   0.01407   0.56526   0.00000  Uiso   1.00
H37    H     0.84816   0.70326   0.07342   0.00000  Uiso   1.00
O38    O     0.06830   0.44744   0.43726   0.00000  Uiso   1.00
O39    O     0.82364   0.14180   0.51918   0.00000  Uiso   1.00
O40    O     0.96594   0.73403   0.18587   0.00000  Uiso   1.00
N41    N     0.09674   0.56310   0.51700   0.00000  Uiso   1.00
N42    N     0.92239   0.05791   0.57535   0.00000  Uiso   1.00
N43    N     0.02378   0.76736   0.05044   0.00000  Uiso   1.00
N44    N     0.97340   0.51966   0.51670   0.00000  Uiso   1.00
N45    N     0.79904   0.01448   0.57506   0.00000  Uiso   1.00
N46    N     0.90044   0.72393   0.05015   0.00000  Uiso   1.00
C47    C     0.97482   0.20010   0.21430   0.00000  Uiso   1.00
C48    C     0.98524   0.27598   0.15986   0.00000  Uiso   1.00
C49    C     0.92529   0.31558   0.11425   0.00000  Uiso   1.00
C50    C     0.94695   0.38400   0.06838   0.00000  Uiso   1.00
C51    C     0.95114   0.49758   0.98384   0.00000  Uiso   1.00
C52    C     0.03329   0.13961   0.17593   0.00000  Uiso   1.00
C53    C     0.01375   0.06455   0.14383   0.00000  Uiso   1.00
C54    C     0.07586   0.01816   0.11150   0.00000  Uiso   1.00
C55    C     0.15467   0.92000   0.05197   0.00000  Uiso   1.00
C56    C     0.00534   0.21970   0.30686   0.00000  Uiso   1.00
C57    C     0.96230   0.21196   0.38486   0.00000  Uiso   1.00
C58    C     0.00089   0.23298   0.46276   0.00000  Uiso   1.00
C59    C     0.03630   0.25917   0.60653   0.00000  Uiso   1.00
C60    C     0.11988   0.25117   0.21396   0.00000  Uiso   1.00
C61    C     0.06403   0.30372   0.15968   0.00000  Uiso   1.00
C62    C     0.08578   0.37209   0.11387   0.00000  Uiso   1.00
C63    C     0.02587   0.41179   0.06819   0.00000  Uiso   1.00
C64    C     0.11208   0.16735   0.17574   0.00000  Uiso   1.00
C65    C     0.17423   0.12106   0.14345   0.00000  Uiso   1.00
C66    C     0.15479   0.04595   0.11131   0.00000  Uiso   1.00
C67    C     0.08413   0.24744   0.30668   0.00000  Uiso   1.00
C68    C     0.12279   0.26847   0.38448   0.00000  Uiso   1.00
C69    C     0.07982   0.26077   0.46258   0.00000  Uiso   1.00
H70    H     0.91349   0.17849   0.21444   0.00000  Uiso   1.00
H71    H     0.86433   0.29409   0.11440   0.00000  Uiso   1.00
H72    H     0.95277   0.04309   0.14400   0.00000  Uiso   1.00
H73    H     0.90134   0.19048   0.38498   0.00000  Uiso   1.00
H74    H     0.84458   0.43447   0.00338   0.00000  Uiso   1.00
H75    H     0.03107   0.90522   0.06580   0.00000  Uiso   1.00
H76    H     0.92261   0.21602   0.57397   0.00000  Uiso   1.00
H77    H     0.18122   0.27277   0.21381   0.00000  Uiso   1.00
H78    H     0.14676   0.39355   0.11373   0.00000  Uiso   1.00
H79    H     0.23520   0.14255   0.14332   0.00000  Uiso   1.00
H80    H     0.18376   0.28994   0.38431   0.00000  Uiso   1.00
H81    H     0.07381   0.51519   0.00283   0.00000  Uiso   1.00
H82    H     0.26030   0.98593   0.06526   0.00000  Uiso   1.00
H83    H     0.15184   0.29674   0.57342   0.00000  Uiso   1.00
O84    O     0.93170   0.55256   0.93726   0.00000  Uiso   1.00
O85    O     0.17636   0.85820   0.01918   0.00000  Uiso   1.00
O86    O     0.03406   0.26597   0.68587   0.00000  Uiso   1.00
N87    N     0.90326   0.43690   0.01700   0.00000  Uiso   1.00
N88    N     0.07761   0.94209   0.07535   0.00000  Uiso   1.00
N89    N     0.97622   0.23264   0.55044   0.00000  Uiso   1.00
N90    N     0.02660   0.48034   0.01670   0.00000  Uiso   1.00
N91    N     0.20096   0.98552   0.07506   0.00000  Uiso   1.00
N92    N     0.09956   0.27607   0.55015   0.00000  Uiso   1.00
C93    C     0.70010   0.52518   0.46430   0.00000  Uiso   1.00
C94    C     0.77598   0.51476   0.40986   0.00000  Uiso   1.00
C95    C     0.81558   0.57471   0.36425   0.00000  Uiso   1.00
C96    C     0.88400   0.55305   0.31838   0.00000  Uiso   1.00
C97    C     0.99758   0.54886   0.23384   0.00000  Uiso   1.00
C98    C     0.63961   0.46671   0.42593   0.00000  Uiso   1.00
C99    C     0.56455   0.48625   0.39383   0.00000  Uiso   1.00
C100   C     0.51816   0.42414   0.36150   0.00000  Uiso   1.00
C101   C     0.42000   0.34533   0.30197   0.00000  Uiso   1.00
C102   C     0.71970   0.49466   0.55686   0.00000  Uiso   1.00
C103   C     0.71196   0.53770   0.63486   0.00000  Uiso   1.00
C104   C     0.73298   0.49911   0.71276   0.00000  Uiso   1.00
C105   C     0.75917   0.46370   0.85653   0.00000  Uiso   1.00
C106   C     0.75117   0.38012   0.46396   0.00000  Uiso   1.00
C107   C     0.80372   0.43597   0.40968   0.00000  Uiso   1.00
C108   C     0.87209   0.41422   0.36387   0.00000  Uiso   1.00
C109   C     0.91179   0.47413   0.31819   0.00000  Uiso   1.00
C110   C     0.66735   0.38792   0.42574   0.00000  Uiso   1.00
C111   C     0.62106   0.32577   0.39345   0.00000  Uiso   1.00
C112   C     0.54595   0.34521   0.36131   0.00000  Uiso   1.00
C113   C     0.74744   0.41587   0.55668   0.00000  Uiso   1.00
C114   C     0.76847   0.37721   0.63448   0.00000  Uiso   1.00
C115   C     0.76077   0.42018   0.71258   0.00000  Uiso   1.00
H116   H     0.67849   0.58651   0.46444   0.00000  Uiso   1.00
H117   H     0.79409   0.63567   0.36440   0.00000  Uiso   1.00
H118   H     0.54309   0.54723   0.39400   0.00000  Uiso   1.00
H119   H     0.69048   0.59866   0.63498   0.00000  Uiso   1.00
H120   H     0.93447   0.65542   0.25338   0.00000  Uiso   1.00
H121   H     0.40522   0.46893   0.31580   0.00000  Uiso   1.00
H122   H     0.71602   0.57739   0.82397   0.00000  Uiso   1.00
H123   H     0.77277   0.31878   0.46381   0.00000  Uiso   1.00
H124   H     0.89355   0.35324   0.36373   0.00000  Uiso   1.00
H125   H     0.64255   0.26480   0.39332   0.00000  Uiso   1.00
H126   H     0.78994   0.31624   0.63431   0.00000  Uiso   1.00
H127   H     0.01519   0.42619   0.25283   0.00000  Uiso   1.00
H128   H     0.48593   0.23970   0.31526   0.00000  Uiso   1.00
H129   H     0.79674   0.34816   0.82342   0.00000  Uiso   1.00
O130   O     0.05256   0.56830   0.18726   0.00000  Uiso   1.00
O131   O     0.35820   0.32364   0.26918   0.00000  Uiso   1.00
O132   O     0.76597   0.46594   0.93587   0.00000  Uiso   1.00
N133   N     0.93690   0.59674   0.26700   0.00000  Uiso   1.00
N134   N     0.44209   0.42239   0.32535   0.00000  Uiso   1.00
N135   N     0.73264   0.52378   0.80044   0.00000  Uiso   1.00
N136   N     0.98034   0.47340   0.26670   0.00000  Uiso   1.00
N137   N     0.48552   0.29904   0.32506   0.00000  Uiso   1.00
N138   N     0.77607   0.40044   0.80015   0.00000  Uiso   1.00
C139   C     0.29990   0.47482   0.96430   0.00000  Uiso   1.00
C140   C     0.22402   0.48524   0.90986   0.00000  Uiso   1.00
C141   C     0.18442   0.42529   0.86425   0.00000  Uiso   1.00
C142   C     0.11600   0.44695   0.81838   0.00000  Uiso   1.00
C143   C     0.00242   0.45114   0.73384   0.00000  Uiso   1.00
C144   C     0.36039   0.53329   0.92593   0.00000  Uiso   1.00
C145   C     0.43545   0.51375   0.89383   0.00000  Uiso   1.00
C146   C     0.48184   0.57586   0.86150   0.00000  Uiso   1.00
C147   C     0.58000   0.65467   0.80197   0.00000  Uiso   1.00
C148   C     0.28030   0.50534   0.05686   0.00000  Uiso   1.00
C149   C     0.28804   0.46230   0.13486   0.00000  Uiso   1.00
C150   C     0.26702   0.50089   0.21276   0.00000  Uiso   1.00
C151   C     0.24083   0.53630   0.35653   0.00000  Uiso   1.00
C152   C     0.24883   0.61988   0.96396   0.00000  Uiso   1.00
C153   C     0.19628   0.56403   0.90968   0.00000  Uiso   1.00
C154   C     0.12791   0.58578   0.86387   0.00000  Uiso   1.00
C155   C     0.08821   0.52587   0.81819   0.00000  Uiso   1.00
C156   C     0.33265   0.61208   0.92574   0.00000  Uiso   1.00
C157   C     0.37894   0.67423   0.89345   0.00000  Uiso   1.00
C158   C     0.45405   0.65479   0.86131   0.00000  Uiso   1.00
C159   C     0.25256   0.58413   0.05668   0.00000  Uiso   1.00
C160   C     0.23153   0.62279   0.13448   0.00000  Uiso   1.00
C161   C     0.23923   0.57982   0.21258   0.00000  Uiso   1.00
H162   H     0.32151   0.41349   0.96444   0.00000  Uiso   1.00
H163   H     0.20591   0.36433   0.86440   0.00000  Uiso   1.00
H164   H     0.45691   0.45277   0.89400   0.00000  Uiso   1.00
H165   H     0.30952   0.40134   0.13498   0.00000  Uiso   1.00
H166   H     0.06553   0.34458   0.75338   0.00000  Uiso   1.00
H167   H     0.59478   0.53107   0.81580   0.00000  Uiso   1.00
H168   H     0.28398   0.42261   0.32397   0.00000  Uiso   1.00
H169   H     0.22723   0.68122   0.96381   0.00000  Uiso   1.00
H170   H     0.10645   0.64676   0.86373   0.00000  Uiso   1.00
H171   H     0.35745   0.73520   0.89332   0.00000  Uiso   1.00
H172   H     0.21006   0.68376   0.13431   0.00000  Uiso   1.00
H173   H     0.98481   0.57381   0.75283   0.00000  Uiso   1.00
H174   H     0.51407   0.76030   0.81526   0.00000  Uiso   1.00
H175   H     0.20326   0.65184   0.32342   0.00000  Uiso   1.00
O176   O     0.94744   0.43170   0.68726   0.00000  Uiso   1.00
O177   O     0.64180   0.67636   0.76918   0.00000  Uiso   1.00
O178   O     0.23403   0.53406   0.43587   0.00000  Uiso   1.00
N179   N     0.06310   0.40326   0.76700   0.00000  Uiso   1.00
N180   N     0.55791   0.57761   0.82535   0.00000  Uiso   1.00
N181   N     0.26736   0.47622   0.30044   0.00000  Uiso   1.00
N182   N     0.01966   0.52660   0.76670   0.00000  Uiso   1.00
N183   N     0.51448   0.70096   0.82506   0.00000  Uiso   1.00
N184   N     0.22393   0.59956   0.30015   0.00000  Uiso   1.00
C185   C     0.47482   0.29990   0.03570   0.00000  Uiso   1.00
C186   C     0.48524   0.22402   0.09014   0.00000  Uiso   1.00
C187   C     0.42529   0.18442   0.13575   0.00000  Uiso   1.00
C188   C     0.44695   0.11600   0.18162   0.00000  Uiso   1.00
C189   C     0.45114   0.00242   0.26616   0.00000  Uiso   1.00
C190   C     0.53329   0.36039   0.07407   0.00000  Uiso   1.00
C191   C     0.51375   0.43545   0.10617   0.00000  Uiso   1.00
C192   C     0.57586   0.48184   0.13850   0.00000  Uiso   1.00
C193   C     0.65467   0.58000   0.19803   0.00000  Uiso   1.00
C194   C     0.50534   0.28030   0.94314   0.00000  Uiso   1.00
C195   C     0.46230   0.28804   0.86514   0.00000  Uiso   1.00
C196   C     0.50089   0.26702   0.78724   0.00000  Uiso   1.00
C197   C     0.53630   0.24083   0.64347   0.00000  Uiso   1.00
C198   C     0.61988   0.24883   0.03604   0.00000  Uiso   1.00
C199   C     0.56403   0.19628   0.09032   0.00000  Uiso   1.00
C200   C     0.58578   0.12791   0.13613   0.00000  Uiso   1.00
C201   C     0.52587   0.08821   0.18181   0.00000  Uiso   1.00
C202   C     0.61208   0.33265   0.07426   0.00000  Uiso   1.00
C203   C     0.67423   0.37894   0.10655   0.00000  Uiso   1.00
C204   C     0.65479   0.45405   0.13869   0.00000  Uiso   1.00
C205   C     0.58413   0.25256   0.94332   0.00000  Uiso   1.00
C206   C     0.62279   0.23153   0.86552   0.00000  Uiso   1.00
C207   C     0.57982   0.23923   0.78742   0.00000  Uiso   1.00
H208   H     0.41349   0.32151   0.03556   0.00000  Uiso   1.00
H209   H     0.36433   0.20591   0.13560   0.00000  Uiso   1.00
H210   H     0.45277   0.45691   0.10600   0.00000  Uiso   1.00
H211   H     0.40134   0.30952   0.86502   0.00000  Uiso   1.00
H212   H     0.34458   0.06553   0.24662   0.00000  Uiso   1.00
H213   H     0.53107   0.59478   0.18420   0.00000  Uiso   1.00
H214   H     0.42261   0.28398   0.67603   0.00000  Uiso   1.00
H215   H     0.68122   0.22723   0.03619   0.00000  Uiso   1.00
H216   H     0.64676   0.10645   0.13627   0.00000  Uiso   1.00
H217   H     0.73520   0.35745   0.10668   0.00000  Uiso   1.00
H218   H     0.68376   0.21006   0.86569   0.00000  Uiso   1.00
H219   H     0.57381   0.98481   0.24717   0.00000  Uiso   1.00
H220   H     0.76030   0.51407   0.18474   0.00000  Uiso   1.00
H221   H     0.65184   0.20326   0.67658   0.00000  Uiso   1.00
O222   O     0.43170   0.94744   0.31274   0.00000  Uiso   1.00
O223   O     0.67636   0.64180   0.23082   0.00000  Uiso   1.00
O224   O     0.53406   0.23403   0.56413   0.00000  Uiso   1.00
N225   N     0.40326   0.06310   0.23300   0.00000  Uiso   1.00
N226   N     0.57761   0.55791   0.17465   0.00000  Uiso   1.00
N227   N     0.47622   0.26736   0.69956   0.00000  Uiso   1.00
N228   N     0.52660   0.01966   0.23330   0.00000  Uiso   1.00
N229   N     0.70096   0.51448   0.17494   0.00000  Uiso   1.00
N230   N     0.59956   0.22393   0.69985   0.00000  Uiso   1.00
C231   C     0.52518   0.70010   0.53570   0.00000  Uiso   1.00
C232   C     0.51476   0.77598   0.59014   0.00000  Uiso   1.00
C233   C     0.57471   0.81558   0.63575   0.00000  Uiso   1.00
C234   C     0.55305   0.88400   0.68162   0.00000  Uiso   1.00
C235   C     0.54886   0.99758   0.76616   0.00000  Uiso   1.00
C236   C     0.46671   0.63961   0.57407   0.00000  Uiso   1.00
C237   C     0.48625   0.56455   0.60617   0.00000  Uiso   1.00
C238   C     0.42414   0.51816   0.63850   0.00000  Uiso   1.00
C239   C     0.34533   0.42000   0.69803   0.00000  Uiso   1.00
C240   C     0.49466   0.71970   0.44314   0.00000  Uiso   1.00
C241   C     0.53770   0.71196   0.36514   0.00000  Uiso   1.00
C242   C     0.49911   0.73298   0.28724   0.00000  Uiso   1.00
C243   C     0.46370   0.75917   0.14347   0.00000  Uiso   1.00
C244   C     0.38012   0.75117   0.53604   0.00000  Uiso   1.00
C245   C     0.43597   0.80372   0.59032   0.00000  Uiso   1.00
C246   C     0.41422   0.87209   0.63613   0.00000  Uiso   1.00
C247   C     0.47413   0.91179   0.68181   0.00000  Uiso   1.00
C248   C     0.38792   0.66735   0.57426   0.00000  Uiso   1.00
C249   C     0.32577   0.62106   0.60655   0.00000  Uiso   1.00
C250   C     0.34521   0.54595   0.63869   0.00000  Uiso   1.00
C251   C     0.41587   0.74744   0.44332   0.00000  Uiso   1.00
C252   C     0.37721   0.76847   0.36552   0.00000  Uiso   1.00
C253   C     0.42018   0.76077   0.28742   0.00000  Uiso   1.00
H254   H     0.58651   0.67849   0.53556   0.00000  Uiso   1.00
H255   H     0.63567   0.79409   0.63560   0.00000  Uiso   1.00
H256   H     0.54723   0.54309   0.60600   0.00000  Uiso   1.00
H257   H     0.59866   0.69048   0.36502   0.00000  Uiso   1.00
H258   H     0.65542   0.93447   0.74662   0.00000  Uiso   1.00
H259   H     0.46893   0.40522   0.68420   0.00000  Uiso   1.00
H260   H     0.57739   0.71602   0.17603   0.00000  Uiso   1.00
H261   H     0.31878   0.77277   0.53619   0.00000  Uiso   1.00
H262   H     0.35324   0.89355   0.63627   0.00000  Uiso   1.00
H263   H     0.26480   0.64255   0.60668   0.00000  Uiso   1.00
H264   H     0.31624   0.78994   0.36569   0.00000  Uiso   1.00
H265   H     0.42619   0.01519   0.74717   0.00000  Uiso   1.00
H266   H     0.23970   0.48593   0.68474   0.00000  Uiso   1.00
H267   H     0.34816   0.79674   0.17658   0.00000  Uiso   1.00
O268   O     0.56830   0.05256   0.81274   0.00000  Uiso   1.00
O269   O     0.32364   0.35820   0.73082   0.00000  Uiso   1.00
O270   O     0.46594   0.76597   0.06413   0.00000  Uiso   1.00
N271   N     0.59674   0.93690   0.73300   0.00000  Uiso   1.00
N272   N     0.42239   0.44209   0.67465   0.00000  Uiso   1.00
N273   N     0.52378   0.73264   0.19956   0.00000  Uiso   1.00
N274   N     0.47340   0.98034   0.73330   0.00000  Uiso   1.00
N275   N     0.29904   0.48552   0.67494   0.00000  Uiso   1.00
N276   N     0.40044   0.77607   0.19985   0.00000  Uiso   1.00
C277   C     0.79990   0.02518   0.28570   0.00000  Uiso   1.00
C278   C     0.72402   0.01476   0.34014   0.00000  Uiso   1.00
C279   C     0.68442   0.07471   0.38575   0.00000  Uiso   1.00
C280   C     0.61600   0.05305   0.43162   0.00000  Uiso   1.00
C281   C     0.50242   0.04886   0.51616   0.00000  Uiso   1.00
C282   C     0.86039   0.96671   0.32407   0.00000  Uiso   1.00
C283   C     0.93545   0.98625   0.35617   0.00000  Uiso   1.00
C284   C     0.98184   0.92414   0.38850   0.00000  Uiso   1.00
C285   C     0.08000   0.84533   0.44803   0.00000  Uiso   1.00
C286   C     0.78030   0.99466   0.19314   0.00000  Uiso   1.00
C287   C     0.78804   0.03770   0.11514   0.00000  Uiso   1.00
C288   C     0.76702   0.99911   0.03724   0.00000  Uiso   1.00
C289   C     0.74083   0.96370   0.89347   0.00000  Uiso   1.00
C290   C     0.74883   0.88012   0.28604   0.00000  Uiso   1.00
C291   C     0.69628   0.93597   0.34032   0.00000  Uiso   1.00
C292   C     0.62791   0.91422   0.38613   0.00000  Uiso   1.00
C293   C     0.58821   0.97413   0.43181   0.00000  Uiso   1.00
C294   C     0.83265   0.88792   0.32426   0.00000  Uiso   1.00
C295   C     0.87894   0.82577   0.35655   0.00000  Uiso   1.00
C296   C     0.95405   0.84521   0.38869   0.00000  Uiso   1.00
C297   C     0.75256   0.91587   0.19332   0.00000  Uiso   1.00
C298   C     0.73153   0.87721   0.11552   0.00000  Uiso   1.00
C299   C     0.73923   0.92018   0.03742   0.00000  Uiso   1.00
H300   H     0.82151   0.08651   0.28556   0.00000  Uiso   1.00
H301   H     0.70591   0.13567   0.38560   0.00000  Uiso   1.00
H302   H     0.95691   0.04723   0.35600   0.00000  Uiso   1.00
H303   H     0.80952   0.09866   0.11502   0.00000  Uiso   1.00
H304   H     0.56553   0.15542   0.49662   0.00000  Uiso   1.00
H305   H     0.09478   0.96893   0.43420   0.00000  Uiso   1.00
H306   H     0.78398   0.07739   0.92603   0.00000  Uiso   1.00
H307   H     0.72723   0.81878   0.28619   0.00000  Uiso   1.00
H308   H     0.60645   0.85324   0.38627   0.00000  Uiso   1.00
H309   H     0.85745   0.76480   0.35668   0.00000  Uiso   1.00
H310   H     0.71006   0.81624   0.11569   0.00000  Uiso   1.00
H311   H     0.48481   0.92619   0.49717   0.00000  Uiso   1.00
H312   H     0.01407   0.73970   0.43474   0.00000  Uiso   1.00
H313   H     0.70326   0.84816   0.92658   0.00000  Uiso   1.00
O314   O     0.44744   0.06830   0.56274   0.00000  Uiso   1.00
O315   O     0.14180   0.82364   0.48082   0.00000  Uiso   1.00
O316   O     0.73403   0.96594   0.81413   0.00000  Uiso   1.00
N317   N     0.56310   0.09674   0.48300   0.00000  Uiso   1.00
N318   N     0.05791   0.92239   0.42465   0.00000  Uiso   1.00
N319   N     0.76736   0.02378   0.94956   0.00000  Uiso   1.00
N320   N     0.51966   0.97340   0.48330   0.00000  Uiso   1.00
N321   N     0.01448   0.79904   0.42494   0.00000  Uiso   1.00
N322   N     0.72393   0.90044   0.94985   0.00000  Uiso   1.00
C323   C     0.20010   0.97482   0.78570   0.00000  Uiso   1.00
C324   C     0.27598   0.98524   0.84014   0.00000  Uiso   1.00
C325   C     0.31558   0.92529   0.88575   0.00000  Uiso   1.00
C326   C     0.38400   0.94695   0.93162   0.00000  Uiso   1.00
C327   C     0.49758   0.95114   0.01616   0.00000  Uiso   1.00
C328   C     0.13961   0.03329   0.82407   0.00000  Uiso   1.00
C329   C     0.06455   0.01375   0.85617   0.00000  Uiso   1.00
C330   C     0.01816   0.07586   0.88850   0.00000  Uiso   1.00
C331   C     0.92000   0.15467   0.94803   0.00000  Uiso   1.00
C332   C     0.21970   0.00534   0.69314   0.00000  Uiso   1.00
C333   C     0.21196   0.96230   0.61514   0.00000  Uiso   1.00
C334   C     0.23298   0.00089   0.53724   0.00000  Uiso   1.00
C335   C     0.25917   0.03630   0.39347   0.00000  Uiso   1.00
C336   C     0.25117   0.11988   0.78604   0.00000  Uiso   1.00
C337   C     0.30372   0.06403   0.84032   0.00000  Uiso   1.00
C338   C     0.37209   0.08578   0.88613   0.00000  Uiso   1.00
C339   C     0.41179   0.02587   0.93181   0.00000  Uiso   1.00
C340   C     0.16735   0.11208   0.82426   0.00000  Uiso   1.00
C341   C     0.12106   0.17423   0.85655   0.00000  Uiso   1.00
C342   C     0.04595   0.15479   0.88869   0.00000  Uiso   1.00
C343   C     0.24744   0.08413   0.69332   0.00000  Uiso   1.00
C344   C     0.26847   0.12279   0.61552   0.00000  Uiso   1.00
C345   C     0.26077   0.07982   0.53742   0.00000  Uiso   1.00
H346   H     0.17849   0.91349   0.78556   0.00000  Uiso   1.00
H347   H     0.29409   0.86433   0.88560   0.00000  Uiso   1.00
H348   H     0.04309   0.95277   0.85600   0.00000  Uiso   1.00
H349   H     0.19048   0.90134   0.61502   0.00000  Uiso   1.00
H350   H     0.43447   0.84458   0.99662   0.00000  Uiso   1.00
H351   H     0.90522   0.03107   0.93420   0.00000  Uiso   1.00
H352   H     0.21602   0.92261   0.42603   0.00000  Uiso   1.00
H353   H     0.27277   0.18122   0.78619   0.00000  Uiso   1.00
H354   H     0.39355   0.14676   0.88627   0.00000  Uiso   1.00
H355   H     0.14255   0.23520   0.85668   0.00000  Uiso   1.00
H356   H     0.28994   0.18376   0.61569   0.00000  Uiso   1.00
H357   H     0.51519   0.07381   0.99717   0.00000  Uiso   1.00
H358   H     0.98593   0.26030   0.93474   0.00000  Uiso   1.00
H359   H     0.29674   0.15184   0.42658   0.00000  Uiso   1.00
O360   O     0.55256   0.93170   0.06274   0.00000  Uiso   1.00
O361   O     0.85820   0.17636   0.98082   0.00000  Uiso   1.00
O362   O     0.26597   0.03406   0.31413   0.00000  Uiso   1.00
N363   N     0.43690   0.90326   0.98300   0.00000  Uiso   1.00
N364   N     0.94209   0.07761   0.92465   0.00000  Uiso   1.00
N365   N     0.23264   0.97622   0.44956   0.00000  Uiso   1.00
N366   N     0.48034   0.02660   0.98330   0.00000  Uiso   1.00
N367   N     0.98552   0.20096   0.92494   0.00000  Uiso   1.00
N368   N     0.27607   0.09956   0.44985   0.00000  Uiso   1.00
