data_job_00594
_audit_creation_date              2018-12-19
_audit_creation_method            'Materials Studio'
_symmetry_space_group_name_H-M    'P1'
_symmetry_Int_Tables_number       1
_symmetry_cell_setting            triclinic
loop_
_symmetry_equiv_pos_as_xyz
  x,y,z
_cell_length_a                    11.7189
_cell_length_b                    22.5654
_cell_length_c                    25.0432
_cell_angle_alpha                 90.0000
_cell_angle_beta                  111.5830
_cell_angle_gamma                 90.0000
loop_
_atom_site_label
_atom_site_type_symbol
_atom_site_fract_x
_atom_site_fract_y
_atom_site_fract_z
_atom_site_U_iso_or_equiv
_atom_site_adp_type
_atom_site_occupancy
C1     C     0.20966   0.59513   0.44830   0.00000  Uiso   1.00
C2     C     0.10994   0.64017   0.44449   0.00000  Uiso   1.00
C3     C     0.09738   0.67000   0.49048   0.00000  Uiso   1.00
C4     C     0.00005   0.70941   0.47805   0.00000  Uiso   1.00
C5     C     0.85762   0.77792   0.48071   0.00000  Uiso   1.00
C6     C     0.14284   0.53869   0.42019   0.00000  Uiso   1.00
C7     C     0.15795   0.48319   0.44575   0.00000  Uiso   1.00
C8     C     0.08833   0.43718   0.41286   0.00000  Uiso   1.00
C9     C     0.99704   0.34812   0.37778   0.00000  Uiso   1.00
C10    C     0.27304   0.61816   0.40905   0.00000  Uiso   1.00
C11    C     0.39765   0.62946   0.42524   0.00000  Uiso   1.00
C12    C     0.43766   0.65035   0.38296   0.00000  Uiso   1.00
C13    C     0.54853   0.68468   0.33059   0.00000  Uiso   1.00
C14    C     0.05915   0.61210   0.34444   0.00000  Uiso   1.00
C15    C     0.02819   0.64938   0.38807   0.00000  Uiso   1.00
C16    C     0.93086   0.68877   0.37557   0.00000  Uiso   1.00
C17    C     0.91816   0.71865   0.42153   0.00000  Uiso   1.00
C18    C     0.06109   0.54790   0.36378   0.00000  Uiso   1.00
C19    C     0.99144   0.50196   0.33084   0.00000  Uiso   1.00
C20    C     0.00643   0.44641   0.35634   0.00000  Uiso   1.00
C21    C     0.19130   0.62738   0.35263   0.00000  Uiso   1.00
C22    C     0.23113   0.64824   0.31033   0.00000  Uiso   1.00
C23    C     0.35576   0.65958   0.32645   0.00000  Uiso   1.00
H24    H     0.27330   0.58795   0.49222   0.00000  Uiso   1.00
H25    H     0.16065   0.66285   0.53413   0.00000  Uiso   1.00
H26    H     0.22123   0.47607   0.48940   0.00000  Uiso   1.00
H27    H     0.46088   0.62233   0.46889   0.00000  Uiso   1.00
H28    H     0.99969   0.74993   0.55572   0.00000  Uiso   1.00
H29    H     0.12744   0.35610   0.46141   0.00000  Uiso   1.00
H30    H     0.63280   0.66450   0.41816   0.00000  Uiso   1.00
H31    H     0.99551   0.61927   0.30051   0.00000  Uiso   1.00
H32    H     0.86762   0.69589   0.33191   0.00000  Uiso   1.00
H33    H     0.92819   0.50911   0.28718   0.00000  Uiso   1.00
H34    H     0.16784   0.65536   0.26667   0.00000  Uiso   1.00
H35    H     0.76185   0.77674   0.39159   0.00000  Uiso   1.00
H36    H     0.88961   0.38291   0.29728   0.00000  Uiso   1.00
H37    H     0.39496   0.69132   0.25403   0.00000  Uiso   1.00
O38    O     0.80163   0.81316   0.49776   0.00000  Uiso   1.00
O39    O     0.96925   0.29646   0.37403   0.00000  Uiso   1.00
O40    O     0.63226   0.70108   0.31729   0.00000  Uiso   1.00
N41    N     0.96128   0.74573   0.51278   0.00000  Uiso   1.00
N42    N     0.08071   0.37752   0.42461   0.00000  Uiso   1.00
N43    N     0.55318   0.66584   0.38417   0.00000  Uiso   1.00
N44    N     0.83330   0.76016   0.42446   0.00000  Uiso   1.00
N45    N     0.95273   0.39195   0.33629   0.00000  Uiso   1.00
N46    N     0.42520   0.68027   0.29586   0.00000  Uiso   1.00
C47    C     0.70966   0.09513   0.44830   0.00000  Uiso   1.00
C48    C     0.60994   0.14017   0.44449   0.00000  Uiso   1.00
C49    C     0.59738   0.17000   0.49048   0.00000  Uiso   1.00
C50    C     0.50005   0.20941   0.47805   0.00000  Uiso   1.00
C51    C     0.35762   0.27792   0.48071   0.00000  Uiso   1.00
C52    C     0.64284   0.03869   0.42019   0.00000  Uiso   1.00
C53    C     0.65795   0.98319   0.44575   0.00000  Uiso   1.00
C54    C     0.58833   0.93718   0.41286   0.00000  Uiso   1.00
C55    C     0.49704   0.84812   0.37778   0.00000  Uiso   1.00
C56    C     0.77304   0.11816   0.40905   0.00000  Uiso   1.00
C57    C     0.89765   0.12946   0.42524   0.00000  Uiso   1.00
C58    C     0.93766   0.15035   0.38296   0.00000  Uiso   1.00
C59    C     0.04853   0.18468   0.33059   0.00000  Uiso   1.00
C60    C     0.55915   0.11210   0.34444   0.00000  Uiso   1.00
C61    C     0.52819   0.14938   0.38807   0.00000  Uiso   1.00
C62    C     0.43086   0.18877   0.37557   0.00000  Uiso   1.00
C63    C     0.41816   0.21865   0.42153   0.00000  Uiso   1.00
C64    C     0.56109   0.04790   0.36378   0.00000  Uiso   1.00
C65    C     0.49144   0.00196   0.33084   0.00000  Uiso   1.00
C66    C     0.50643   0.94641   0.35634   0.00000  Uiso   1.00
C67    C     0.69130   0.12738   0.35263   0.00000  Uiso   1.00
C68    C     0.73113   0.14824   0.31033   0.00000  Uiso   1.00
C69    C     0.85576   0.15958   0.32645   0.00000  Uiso   1.00
H70    H     0.77330   0.08795   0.49222   0.00000  Uiso   1.00
H71    H     0.66065   0.16285   0.53413   0.00000  Uiso   1.00
H72    H     0.72123   0.97607   0.48940   0.00000  Uiso   1.00
H73    H     0.96088   0.12233   0.46889   0.00000  Uiso   1.00
H74    H     0.49969   0.24993   0.55572   0.00000  Uiso   1.00
H75    H     0.62744   0.85610   0.46141   0.00000  Uiso   1.00
H76    H     0.13280   0.16450   0.41816   0.00000  Uiso   1.00
H77    H     0.49551   0.11927   0.30051   0.00000  Uiso   1.00
H78    H     0.36762   0.19589   0.33191   0.00000  Uiso   1.00
H79    H     0.42819   0.00911   0.28718   0.00000  Uiso   1.00
H80    H     0.66784   0.15536   0.26667   0.00000  Uiso   1.00
H81    H     0.26185   0.27674   0.39159   0.00000  Uiso   1.00
H82    H     0.38961   0.88291   0.29728   0.00000  Uiso   1.00
H83    H     0.89496   0.19132   0.25403   0.00000  Uiso   1.00
O84    O     0.30163   0.31316   0.49776   0.00000  Uiso   1.00
O85    O     0.46925   0.79646   0.37403   0.00000  Uiso   1.00
O86    O     0.13226   0.20108   0.31729   0.00000  Uiso   1.00
N87    N     0.46128   0.24573   0.51278   0.00000  Uiso   1.00
N88    N     0.58071   0.87752   0.42461   0.00000  Uiso   1.00
N89    N     0.05318   0.16584   0.38417   0.00000  Uiso   1.00
N90    N     0.33330   0.26016   0.42446   0.00000  Uiso   1.00
N91    N     0.45273   0.89195   0.33629   0.00000  Uiso   1.00
N92    N     0.92520   0.18027   0.29586   0.00000  Uiso   1.00
C93    C     0.79034   0.59513   0.05170   0.00000  Uiso   1.00
C94    C     0.89006   0.64017   0.05551   0.00000  Uiso   1.00
C95    C     0.90262   0.67000   0.00952   0.00000  Uiso   1.00
C96    C     0.99995   0.70941   0.02195   0.00000  Uiso   1.00
C97    C     0.14238   0.77792   0.01929   0.00000  Uiso   1.00
C98    C     0.85716   0.53869   0.07981   0.00000  Uiso   1.00
C99    C     0.84205   0.48319   0.05425   0.00000  Uiso   1.00
C100   C     0.91167   0.43718   0.08714   0.00000  Uiso   1.00
C101   C     0.00296   0.34812   0.12222   0.00000  Uiso   1.00
C102   C     0.72696   0.61816   0.09095   0.00000  Uiso   1.00
C103   C     0.60235   0.62946   0.07476   0.00000  Uiso   1.00
C104   C     0.56234   0.65035   0.11704   0.00000  Uiso   1.00
C105   C     0.45147   0.68468   0.16941   0.00000  Uiso   1.00
C106   C     0.94085   0.61210   0.15556   0.00000  Uiso   1.00
C107   C     0.97181   0.64938   0.11193   0.00000  Uiso   1.00
C108   C     0.06914   0.68877   0.12443   0.00000  Uiso   1.00
C109   C     0.08184   0.71865   0.07847   0.00000  Uiso   1.00
C110   C     0.93891   0.54790   0.13622   0.00000  Uiso   1.00
C111   C     0.00856   0.50196   0.16916   0.00000  Uiso   1.00
C112   C     0.99357   0.44641   0.14366   0.00000  Uiso   1.00
C113   C     0.80870   0.62738   0.14737   0.00000  Uiso   1.00
C114   C     0.76887   0.64824   0.18967   0.00000  Uiso   1.00
C115   C     0.64424   0.65958   0.17355   0.00000  Uiso   1.00
H116   H     0.72670   0.58795   0.00778   0.00000  Uiso   1.00
H117   H     0.83935   0.66285   0.96587   0.00000  Uiso   1.00
H118   H     0.77877   0.47607   0.01060   0.00000  Uiso   1.00
H119   H     0.53912   0.62233   0.03111   0.00000  Uiso   1.00
H120   H     0.00031   0.74993   0.94428   0.00000  Uiso   1.00
H121   H     0.87256   0.35610   0.03859   0.00000  Uiso   1.00
H122   H     0.36720   0.66450   0.08184   0.00000  Uiso   1.00
H123   H     0.00449   0.61927   0.19949   0.00000  Uiso   1.00
H124   H     0.13238   0.69589   0.16809   0.00000  Uiso   1.00
H125   H     0.07181   0.50911   0.21282   0.00000  Uiso   1.00
H126   H     0.83216   0.65536   0.23333   0.00000  Uiso   1.00
H127   H     0.23815   0.77674   0.10841   0.00000  Uiso   1.00
H128   H     0.11039   0.38291   0.20272   0.00000  Uiso   1.00
H129   H     0.60504   0.69132   0.24597   0.00000  Uiso   1.00
O130   O     0.19837   0.81316   0.00224   0.00000  Uiso   1.00
O131   O     0.03075   0.29646   0.12597   0.00000  Uiso   1.00
O132   O     0.36774   0.70108   0.18271   0.00000  Uiso   1.00
N133   N     0.03872   0.74573   0.98722   0.00000  Uiso   1.00
N134   N     0.91929   0.37752   0.07539   0.00000  Uiso   1.00
N135   N     0.44682   0.66584   0.11583   0.00000  Uiso   1.00
N136   N     0.16670   0.76016   0.07554   0.00000  Uiso   1.00
N137   N     0.04727   0.39195   0.16371   0.00000  Uiso   1.00
N138   N     0.57480   0.68027   0.20414   0.00000  Uiso   1.00
C139   C     0.29034   0.09513   0.05170   0.00000  Uiso   1.00
C140   C     0.39006   0.14017   0.05551   0.00000  Uiso   1.00
C141   C     0.40262   0.17000   0.00952   0.00000  Uiso   1.00
C142   C     0.49995   0.20941   0.02195   0.00000  Uiso   1.00
C143   C     0.64238   0.27792   0.01929   0.00000  Uiso   1.00
C144   C     0.35716   0.03869   0.07981   0.00000  Uiso   1.00
C145   C     0.34205   0.98319   0.05425   0.00000  Uiso   1.00
C146   C     0.41167   0.93718   0.08714   0.00000  Uiso   1.00
C147   C     0.50296   0.84812   0.12222   0.00000  Uiso   1.00
C148   C     0.22696   0.11816   0.09095   0.00000  Uiso   1.00
C149   C     0.10235   0.12946   0.07476   0.00000  Uiso   1.00
C150   C     0.06234   0.15035   0.11704   0.00000  Uiso   1.00
C151   C     0.95147   0.18468   0.16941   0.00000  Uiso   1.00
C152   C     0.44085   0.11210   0.15556   0.00000  Uiso   1.00
C153   C     0.47181   0.14938   0.11193   0.00000  Uiso   1.00
C154   C     0.56914   0.18877   0.12443   0.00000  Uiso   1.00
C155   C     0.58184   0.21865   0.07847   0.00000  Uiso   1.00
C156   C     0.43891   0.04790   0.13622   0.00000  Uiso   1.00
C157   C     0.50856   0.00196   0.16916   0.00000  Uiso   1.00
C158   C     0.49357   0.94641   0.14366   0.00000  Uiso   1.00
C159   C     0.30870   0.12738   0.14737   0.00000  Uiso   1.00
C160   C     0.26887   0.14824   0.18967   0.00000  Uiso   1.00
C161   C     0.14424   0.15958   0.17355   0.00000  Uiso   1.00
H162   H     0.22670   0.08795   0.00778   0.00000  Uiso   1.00
H163   H     0.33935   0.16285   0.96587   0.00000  Uiso   1.00
H164   H     0.27877   0.97607   0.01060   0.00000  Uiso   1.00
H165   H     0.03912   0.12233   0.03111   0.00000  Uiso   1.00
H166   H     0.50031   0.24993   0.94428   0.00000  Uiso   1.00
H167   H     0.37256   0.85610   0.03859   0.00000  Uiso   1.00
H168   H     0.86720   0.16450   0.08184   0.00000  Uiso   1.00
H169   H     0.50449   0.11927   0.19949   0.00000  Uiso   1.00
H170   H     0.63238   0.19589   0.16809   0.00000  Uiso   1.00
H171   H     0.57181   0.00911   0.21282   0.00000  Uiso   1.00
H172   H     0.33216   0.15536   0.23333   0.00000  Uiso   1.00
H173   H     0.73815   0.27674   0.10841   0.00000  Uiso   1.00
H174   H     0.61039   0.88291   0.20272   0.00000  Uiso   1.00
H175   H     0.10504   0.19132   0.24597   0.00000  Uiso   1.00
O176   O     0.69837   0.31316   0.00224   0.00000  Uiso   1.00
O177   O     0.53075   0.79646   0.12597   0.00000  Uiso   1.00
O178   O     0.86774   0.20108   0.18271   0.00000  Uiso   1.00
N179   N     0.53872   0.24573   0.98722   0.00000  Uiso   1.00
N180   N     0.41929   0.87752   0.07539   0.00000  Uiso   1.00
N181   N     0.94682   0.16584   0.11583   0.00000  Uiso   1.00
N182   N     0.66670   0.26016   0.07554   0.00000  Uiso   1.00
N183   N     0.54727   0.89195   0.16371   0.00000  Uiso   1.00
N184   N     0.07480   0.18027   0.20414   0.00000  Uiso   1.00
C185   C     0.79034   0.40487   0.55170   0.00000  Uiso   1.00
C186   C     0.89006   0.35983   0.55551   0.00000  Uiso   1.00
C187   C     0.90262   0.33000   0.50952   0.00000  Uiso   1.00
C188   C     0.99995   0.29059   0.52195   0.00000  Uiso   1.00
C189   C     0.14238   0.22208   0.51929   0.00000  Uiso   1.00
C190   C     0.85716   0.46131   0.57981   0.00000  Uiso   1.00
C191   C     0.84205   0.51681   0.55425   0.00000  Uiso   1.00
C192   C     0.91167   0.56282   0.58714   0.00000  Uiso   1.00
C193   C     0.00296   0.65188   0.62222   0.00000  Uiso   1.00
C194   C     0.72696   0.38184   0.59095   0.00000  Uiso   1.00
C195   C     0.60235   0.37054   0.57476   0.00000  Uiso   1.00
C196   C     0.56234   0.34965   0.61704   0.00000  Uiso   1.00
C197   C     0.45147   0.31532   0.66941   0.00000  Uiso   1.00
C198   C     0.94085   0.38790   0.65556   0.00000  Uiso   1.00
C199   C     0.97181   0.35062   0.61193   0.00000  Uiso   1.00
C200   C     0.06914   0.31123   0.62443   0.00000  Uiso   1.00
C201   C     0.08184   0.28135   0.57847   0.00000  Uiso   1.00
C202   C     0.93891   0.45210   0.63622   0.00000  Uiso   1.00
C203   C     0.00856   0.49804   0.66916   0.00000  Uiso   1.00
C204   C     0.99357   0.55359   0.64366   0.00000  Uiso   1.00
C205   C     0.80870   0.37262   0.64737   0.00000  Uiso   1.00
C206   C     0.76887   0.35176   0.68967   0.00000  Uiso   1.00
C207   C     0.64424   0.34042   0.67355   0.00000  Uiso   1.00
H208   H     0.72670   0.41205   0.50778   0.00000  Uiso   1.00
H209   H     0.83935   0.33715   0.46587   0.00000  Uiso   1.00
H210   H     0.77877   0.52393   0.51060   0.00000  Uiso   1.00
H211   H     0.53912   0.37767   0.53111   0.00000  Uiso   1.00
H212   H     0.00031   0.25007   0.44428   0.00000  Uiso   1.00
H213   H     0.87256   0.64390   0.53859   0.00000  Uiso   1.00
H214   H     0.36720   0.33550   0.58184   0.00000  Uiso   1.00
H215   H     0.00449   0.38073   0.69949   0.00000  Uiso   1.00
H216   H     0.13238   0.30411   0.66809   0.00000  Uiso   1.00
H217   H     0.07181   0.49089   0.71282   0.00000  Uiso   1.00
H218   H     0.83216   0.34464   0.73333   0.00000  Uiso   1.00
H219   H     0.23815   0.22326   0.60841   0.00000  Uiso   1.00
H220   H     0.11039   0.61709   0.70272   0.00000  Uiso   1.00
H221   H     0.60504   0.30868   0.74597   0.00000  Uiso   1.00
O222   O     0.19837   0.18684   0.50224   0.00000  Uiso   1.00
O223   O     0.03075   0.70354   0.62597   0.00000  Uiso   1.00
O224   O     0.36774   0.29892   0.68271   0.00000  Uiso   1.00
N225   N     0.03872   0.25427   0.48722   0.00000  Uiso   1.00
N226   N     0.91929   0.62248   0.57539   0.00000  Uiso   1.00
N227   N     0.44682   0.33416   0.61583   0.00000  Uiso   1.00
N228   N     0.16670   0.23984   0.57554   0.00000  Uiso   1.00
N229   N     0.04727   0.60805   0.66371   0.00000  Uiso   1.00
N230   N     0.57480   0.31973   0.70414   0.00000  Uiso   1.00
C231   C     0.29034   0.90487   0.55170   0.00000  Uiso   1.00
C232   C     0.39006   0.85983   0.55551   0.00000  Uiso   1.00
C233   C     0.40262   0.83000   0.50952   0.00000  Uiso   1.00
C234   C     0.49995   0.79059   0.52195   0.00000  Uiso   1.00
C235   C     0.64238   0.72208   0.51929   0.00000  Uiso   1.00
C236   C     0.35716   0.96131   0.57981   0.00000  Uiso   1.00
C237   C     0.34205   0.01681   0.55425   0.00000  Uiso   1.00
C238   C     0.41167   0.06282   0.58714   0.00000  Uiso   1.00
C239   C     0.50296   0.15188   0.62222   0.00000  Uiso   1.00
C240   C     0.22696   0.88184   0.59095   0.00000  Uiso   1.00
C241   C     0.10235   0.87054   0.57476   0.00000  Uiso   1.00
C242   C     0.06234   0.84965   0.61704   0.00000  Uiso   1.00
C243   C     0.95147   0.81532   0.66941   0.00000  Uiso   1.00
C244   C     0.44085   0.88790   0.65556   0.00000  Uiso   1.00
C245   C     0.47181   0.85062   0.61193   0.00000  Uiso   1.00
C246   C     0.56914   0.81123   0.62443   0.00000  Uiso   1.00
C247   C     0.58184   0.78135   0.57847   0.00000  Uiso   1.00
C248   C     0.43891   0.95210   0.63622   0.00000  Uiso   1.00
C249   C     0.50856   0.99804   0.66916   0.00000  Uiso   1.00
C250   C     0.49357   0.05359   0.64366   0.00000  Uiso   1.00
C251   C     0.30870   0.87262   0.64737   0.00000  Uiso   1.00
C252   C     0.26887   0.85176   0.68967   0.00000  Uiso   1.00
C253   C     0.14424   0.84042   0.67355   0.00000  Uiso   1.00
H254   H     0.22670   0.91205   0.50778   0.00000  Uiso   1.00
H255   H     0.33935   0.83715   0.46587   0.00000  Uiso   1.00
H256   H     0.27877   0.02393   0.51060   0.00000  Uiso   1.00
H257   H     0.03912   0.87767   0.53111   0.00000  Uiso   1.00
H258   H     0.50031   0.75007   0.44428   0.00000  Uiso   1.00
H259   H     0.37256   0.14390   0.53859   0.00000  Uiso   1.00
H260   H     0.86720   0.83550   0.58184   0.00000  Uiso   1.00
H261   H     0.50449   0.88073   0.69949   0.00000  Uiso   1.00
H262   H     0.63238   0.80411   0.66809   0.00000  Uiso   1.00
H263   H     0.57181   0.99089   0.71282   0.00000  Uiso   1.00
H264   H     0.33216   0.84464   0.73333   0.00000  Uiso   1.00
H265   H     0.73815   0.72326   0.60841   0.00000  Uiso   1.00
H266   H     0.61039   0.11709   0.70272   0.00000  Uiso   1.00
H267   H     0.10504   0.80868   0.74597   0.00000  Uiso   1.00
O268   O     0.69837   0.68684   0.50224   0.00000  Uiso   1.00
O269   O     0.53075   0.20354   0.62597   0.00000  Uiso   1.00
O270   O     0.86774   0.79892   0.68271   0.00000  Uiso   1.00
N271   N     0.53872   0.75427   0.48722   0.00000  Uiso   1.00
N272   N     0.41929   0.12248   0.57539   0.00000  Uiso   1.00
N273   N     0.94682   0.83416   0.61583   0.00000  Uiso   1.00
N274   N     0.66670   0.73984   0.57554   0.00000  Uiso   1.00
N275   N     0.54727   0.10805   0.66371   0.00000  Uiso   1.00
N276   N     0.07480   0.81973   0.70414   0.00000  Uiso   1.00
C277   C     0.20966   0.40487   0.94830   0.00000  Uiso   1.00
C278   C     0.10994   0.35983   0.94449   0.00000  Uiso   1.00
C279   C     0.09738   0.33000   0.99048   0.00000  Uiso   1.00
C280   C     0.00005   0.29059   0.97805   0.00000  Uiso   1.00
C281   C     0.85762   0.22208   0.98071   0.00000  Uiso   1.00
C282   C     0.14284   0.46131   0.92019   0.00000  Uiso   1.00
C283   C     0.15795   0.51681   0.94575   0.00000  Uiso   1.00
C284   C     0.08833   0.56282   0.91286   0.00000  Uiso   1.00
C285   C     0.99704   0.65188   0.87778   0.00000  Uiso   1.00
C286   C     0.27304   0.38184   0.90905   0.00000  Uiso   1.00
C287   C     0.39765   0.37054   0.92524   0.00000  Uiso   1.00
C288   C     0.43766   0.34965   0.88296   0.00000  Uiso   1.00
C289   C     0.54853   0.31532   0.83059   0.00000  Uiso   1.00
C290   C     0.05915   0.38790   0.84444   0.00000  Uiso   1.00
C291   C     0.02819   0.35062   0.88807   0.00000  Uiso   1.00
C292   C     0.93086   0.31123   0.87557   0.00000  Uiso   1.00
C293   C     0.91816   0.28135   0.92153   0.00000  Uiso   1.00
C294   C     0.06109   0.45210   0.86378   0.00000  Uiso   1.00
C295   C     0.99144   0.49804   0.83084   0.00000  Uiso   1.00
C296   C     0.00643   0.55359   0.85634   0.00000  Uiso   1.00
C297   C     0.19130   0.37262   0.85263   0.00000  Uiso   1.00
C298   C     0.23113   0.35176   0.81033   0.00000  Uiso   1.00
C299   C     0.35576   0.34042   0.82645   0.00000  Uiso   1.00
H300   H     0.27330   0.41205   0.99222   0.00000  Uiso   1.00
H301   H     0.16065   0.33715   0.03413   0.00000  Uiso   1.00
H302   H     0.22123   0.52393   0.98940   0.00000  Uiso   1.00
H303   H     0.46088   0.37767   0.96889   0.00000  Uiso   1.00
H304   H     0.99969   0.25007   0.05572   0.00000  Uiso   1.00
H305   H     0.12744   0.64390   0.96141   0.00000  Uiso   1.00
H306   H     0.63280   0.33550   0.91816   0.00000  Uiso   1.00
H307   H     0.99551   0.38073   0.80051   0.00000  Uiso   1.00
H308   H     0.86762   0.30411   0.83191   0.00000  Uiso   1.00
H309   H     0.92819   0.49089   0.78718   0.00000  Uiso   1.00
H310   H     0.16784   0.34464   0.76667   0.00000  Uiso   1.00
H311   H     0.76185   0.22326   0.89159   0.00000  Uiso   1.00
H312   H     0.88961   0.61709   0.79728   0.00000  Uiso   1.00
H313   H     0.39496   0.30868   0.75403   0.00000  Uiso   1.00
O314   O     0.80163   0.18684   0.99776   0.00000  Uiso   1.00
O315   O     0.96925   0.70354   0.87403   0.00000  Uiso   1.00
O316   O     0.63226   0.29892   0.81729   0.00000  Uiso   1.00
N317   N     0.96128   0.25427   0.01278   0.00000  Uiso   1.00
N318   N     0.08071   0.62248   0.92461   0.00000  Uiso   1.00
N319   N     0.55318   0.33416   0.88417   0.00000  Uiso   1.00
N320   N     0.83330   0.23984   0.92446   0.00000  Uiso   1.00
N321   N     0.95273   0.60805   0.83629   0.00000  Uiso   1.00
N322   N     0.42520   0.31973   0.79586   0.00000  Uiso   1.00
C323   C     0.70966   0.90487   0.94830   0.00000  Uiso   1.00
C324   C     0.60994   0.85983   0.94449   0.00000  Uiso   1.00
C325   C     0.59738   0.83000   0.99048   0.00000  Uiso   1.00
C326   C     0.50005   0.79059   0.97805   0.00000  Uiso   1.00
C327   C     0.35762   0.72208   0.98071   0.00000  Uiso   1.00
C328   C     0.64284   0.96131   0.92019   0.00000  Uiso   1.00
C329   C     0.65795   0.01681   0.94575   0.00000  Uiso   1.00
C330   C     0.58833   0.06282   0.91286   0.00000  Uiso   1.00
C331   C     0.49704   0.15188   0.87778   0.00000  Uiso   1.00
C332   C     0.77304   0.88184   0.90905   0.00000  Uiso   1.00
C333   C     0.89765   0.87054   0.92524   0.00000  Uiso   1.00
C334   C     0.93766   0.84965   0.88296   0.00000  Uiso   1.00
C335   C     0.04853   0.81532   0.83059   0.00000  Uiso   1.00
C336   C     0.55915   0.88790   0.84444   0.00000  Uiso   1.00
C337   C     0.52819   0.85062   0.88807   0.00000  Uiso   1.00
C338   C     0.43086   0.81123   0.87557   0.00000  Uiso   1.00
C339   C     0.41816   0.78135   0.92153   0.00000  Uiso   1.00
C340   C     0.56109   0.95210   0.86378   0.00000  Uiso   1.00
C341   C     0.49144   0.99804   0.83084   0.00000  Uiso   1.00
C342   C     0.50643   0.05359   0.85634   0.00000  Uiso   1.00
C343   C     0.69130   0.87262   0.85263   0.00000  Uiso   1.00
C344   C     0.73113   0.85176   0.81033   0.00000  Uiso   1.00
C345   C     0.85576   0.84042   0.82645   0.00000  Uiso   1.00
H346   H     0.77330   0.91205   0.99222   0.00000  Uiso   1.00
H347   H     0.66065   0.83715   0.03413   0.00000  Uiso   1.00
H348   H     0.72123   0.02393   0.98940   0.00000  Uiso   1.00
H349   H     0.96088   0.87767   0.96889   0.00000  Uiso   1.00
H350   H     0.49969   0.75007   0.05572   0.00000  Uiso   1.00
H351   H     0.62744   0.14390   0.96141   0.00000  Uiso   1.00
H352   H     0.13280   0.83550   0.91816   0.00000  Uiso   1.00
H353   H     0.49551   0.88073   0.80051   0.00000  Uiso   1.00
H354   H     0.36762   0.80411   0.83191   0.00000  Uiso   1.00
H355   H     0.42819   0.99089   0.78718   0.00000  Uiso   1.00
H356   H     0.66784   0.84464   0.76667   0.00000  Uiso   1.00
H357   H     0.26185   0.72326   0.89159   0.00000  Uiso   1.00
H358   H     0.38961   0.11709   0.79728   0.00000  Uiso   1.00
H359   H     0.89496   0.80868   0.75403   0.00000  Uiso   1.00
O360   O     0.30163   0.68684   0.99776   0.00000  Uiso   1.00
O361   O     0.46925   0.20354   0.87403   0.00000  Uiso   1.00
O362   O     0.13226   0.79892   0.81729   0.00000  Uiso   1.00
N363   N     0.46128   0.75427   0.01278   0.00000  Uiso   1.00
N364   N     0.58071   0.12248   0.92461   0.00000  Uiso   1.00
N365   N     0.05318   0.83416   0.88417   0.00000  Uiso   1.00
N366   N     0.33330   0.73984   0.92446   0.00000  Uiso   1.00
N367   N     0.45273   0.10805   0.83629   0.00000  Uiso   1.00
N368   N     0.92520   0.81973   0.79586   0.00000  Uiso   1.00
