data_job_01492
_audit_creation_date              2018-12-19
_audit_creation_method            'Materials Studio'
_symmetry_space_group_name_H-M    'P1'
_symmetry_Int_Tables_number       1
_symmetry_cell_setting            triclinic
loop_
_symmetry_equiv_pos_as_xyz
  x,y,z
_cell_length_a                    12.4352
_cell_length_b                    20.1409
_cell_length_c                    26.9992
_cell_angle_alpha                 90.0000
_cell_angle_beta                  130.9548
_cell_angle_gamma                 90.0000
loop_
_atom_site_label
_atom_site_type_symbol
_atom_site_fract_x
_atom_site_fract_y
_atom_site_fract_z
_atom_site_U_iso_or_equiv
_atom_site_adp_type
_atom_site_occupancy
C1     C     0.43734   0.17216   0.92698   0.00000  Uiso   1.00
C2     C     0.42160   0.24590   0.91064   0.00000  Uiso   1.00
C3     C     0.46201   0.29778   0.95361   0.00000  Uiso   1.00
C4     C     0.43868   0.36175   0.92922   0.00000  Uiso   1.00
C5     C     0.42354   0.47449   0.91374   0.00000  Uiso   1.00
C6     C     0.28856   0.14247   0.87742   0.00000  Uiso   1.00
C7     C     0.21712   0.10738   0.89246   0.00000  Uiso   1.00
C8     C     0.08181   0.08429   0.84010   0.00000  Uiso   1.00
C9     C     0.86017   0.03641   0.77304   0.00000  Uiso   1.00
C10    C     0.52420   0.14275   0.91083   0.00000  Uiso   1.00
C11    C     0.65088   0.10787   0.95395   0.00000  Uiso   1.00
C12    C     0.71395   0.08499   0.92972   0.00000  Uiso   1.00
C13    C     0.85817   0.03754   0.91454   0.00000  Uiso   1.00
C14    C     0.32406   0.19352   0.80727   0.00000  Uiso   1.00
C15    C     0.36007   0.25750   0.84562   0.00000  Uiso   1.00
C16    C     0.33668   0.32142   0.82116   0.00000  Uiso   1.00
C17    C     0.37705   0.37338   0.86409   0.00000  Uiso   1.00
C18    C     0.22703   0.15407   0.81240   0.00000  Uiso   1.00
C19    C     0.09179   0.13102   0.76001   0.00000  Uiso   1.00
C20    C     0.02017   0.09591   0.77496   0.00000  Uiso   1.00
C21    C     0.46268   0.15435   0.84581   0.00000  Uiso   1.00
C22    C     0.52555   0.13151   0.82151   0.00000  Uiso   1.00
C23    C     0.65230   0.09662   0.86458   0.00000  Uiso   1.00
H24    H     0.48523   0.16312   0.97760   0.00000  Uiso   1.00
H25    H     0.50961   0.28878   0.00393   0.00000  Uiso   1.00
H26    H     0.26477   0.09841   0.94278   0.00000  Uiso   1.00
H27    H     0.69846   0.09890   0.00427   0.00000  Uiso   1.00
H28    H     0.50945   0.43321   0.00443   0.00000  Uiso   1.00
H29    H     0.99322   0.03178   0.87551   0.00000  Uiso   1.00
H30    H     0.90774   0.03282   0.00516   0.00000  Uiso   1.00
H31    H     0.27615   0.20256   0.75664   0.00000  Uiso   1.00
H32    H     0.28906   0.33038   0.77084   0.00000  Uiso   1.00
H33    H     0.04422   0.14001   0.70970   0.00000  Uiso   1.00
H34    H     0.47791   0.14050   0.77118   0.00000  Uiso   1.00
H35    H     0.33044   0.46697   0.81525   0.00000  Uiso   1.00
H36    H     0.81421   0.06555   0.68633   0.00000  Uiso   1.00
H37    H     0.72873   0.06659   0.81598   0.00000  Uiso   1.00
O38    O     0.43217   0.53346   0.92316   0.00000  Uiso   1.00
O39    O     0.75490   0.00680   0.75402   0.00000  Uiso   1.00
O40    O     0.95473   0.00816   0.92413   0.00000  Uiso   1.00
N41    N     0.46558   0.42361   0.95796   0.00000  Uiso   1.00
N42    N     0.98292   0.04831   0.83742   0.00000  Uiso   1.00
N43    N     0.83790   0.04927   0.95864   0.00000  Uiso   1.00
N44    N     0.36925   0.44178   0.85616   0.00000  Uiso   1.00
N45    N     0.88660   0.06648   0.73563   0.00000  Uiso   1.00
N46    N     0.74158   0.06744   0.85684   0.00000  Uiso   1.00
C47    C     0.56266   0.67216   0.57302   0.00000  Uiso   1.00
C48    C     0.57840   0.74590   0.58936   0.00000  Uiso   1.00
C49    C     0.53799   0.79778   0.54639   0.00000  Uiso   1.00
C50    C     0.56132   0.86175   0.57078   0.00000  Uiso   1.00
C51    C     0.57646   0.97449   0.58626   0.00000  Uiso   1.00
C52    C     0.71144   0.64247   0.62258   0.00000  Uiso   1.00
C53    C     0.78288   0.60738   0.60754   0.00000  Uiso   1.00
C54    C     0.91819   0.58429   0.65990   0.00000  Uiso   1.00
C55    C     0.13983   0.53641   0.72696   0.00000  Uiso   1.00
C56    C     0.47580   0.64275   0.58917   0.00000  Uiso   1.00
C57    C     0.34912   0.60787   0.54605   0.00000  Uiso   1.00
C58    C     0.28605   0.58499   0.57028   0.00000  Uiso   1.00
C59    C     0.14183   0.53754   0.58546   0.00000  Uiso   1.00
C60    C     0.67594   0.69352   0.69273   0.00000  Uiso   1.00
C61    C     0.63993   0.75750   0.65438   0.00000  Uiso   1.00
C62    C     0.66332   0.82142   0.67884   0.00000  Uiso   1.00
C63    C     0.62295   0.87338   0.63591   0.00000  Uiso   1.00
C64    C     0.77297   0.65407   0.68760   0.00000  Uiso   1.00
C65    C     0.90821   0.63102   0.73999   0.00000  Uiso   1.00
C66    C     0.97983   0.59591   0.72504   0.00000  Uiso   1.00
C67    C     0.53732   0.65435   0.65419   0.00000  Uiso   1.00
C68    C     0.47445   0.63151   0.67849   0.00000  Uiso   1.00
C69    C     0.34770   0.59662   0.63542   0.00000  Uiso   1.00
H70    H     0.51477   0.66312   0.52240   0.00000  Uiso   1.00
H71    H     0.49039   0.78878   0.49607   0.00000  Uiso   1.00
H72    H     0.73523   0.59841   0.55722   0.00000  Uiso   1.00
H73    H     0.30154   0.59890   0.49573   0.00000  Uiso   1.00
H74    H     0.49055   0.93321   0.49557   0.00000  Uiso   1.00
H75    H     0.00678   0.53178   0.62449   0.00000  Uiso   1.00
H76    H     0.09226   0.53282   0.49484   0.00000  Uiso   1.00
H77    H     0.72385   0.70256   0.74336   0.00000  Uiso   1.00
H78    H     0.71094   0.83038   0.72916   0.00000  Uiso   1.00
H79    H     0.95578   0.64001   0.79030   0.00000  Uiso   1.00
H80    H     0.52209   0.64050   0.72882   0.00000  Uiso   1.00
H81    H     0.66956   0.96697   0.68475   0.00000  Uiso   1.00
H82    H     0.18579   0.56555   0.81367   0.00000  Uiso   1.00
H83    H     0.27127   0.56659   0.68402   0.00000  Uiso   1.00
O84    O     0.56783   0.03346   0.57684   0.00000  Uiso   1.00
O85    O     0.24510   0.50680   0.74598   0.00000  Uiso   1.00
O86    O     0.04527   0.50816   0.57587   0.00000  Uiso   1.00
N87    N     0.53442   0.92361   0.54204   0.00000  Uiso   1.00
N88    N     0.01708   0.54831   0.66258   0.00000  Uiso   1.00
N89    N     0.16210   0.54927   0.54136   0.00000  Uiso   1.00
N90    N     0.63075   0.94178   0.64384   0.00000  Uiso   1.00
N91    N     0.11340   0.56648   0.76437   0.00000  Uiso   1.00
N92    N     0.25842   0.56744   0.64316   0.00000  Uiso   1.00
C93    C     0.56266   0.82784   0.07302   0.00000  Uiso   1.00
C94    C     0.57840   0.75410   0.08936   0.00000  Uiso   1.00
C95    C     0.53799   0.70222   0.04639   0.00000  Uiso   1.00
C96    C     0.56132   0.63825   0.07078   0.00000  Uiso   1.00
C97    C     0.57646   0.52551   0.08626   0.00000  Uiso   1.00
C98    C     0.71144   0.85753   0.12258   0.00000  Uiso   1.00
C99    C     0.78288   0.89262   0.10754   0.00000  Uiso   1.00
C100   C     0.91819   0.91571   0.15990   0.00000  Uiso   1.00
C101   C     0.13983   0.96359   0.22696   0.00000  Uiso   1.00
C102   C     0.47580   0.85725   0.08917   0.00000  Uiso   1.00
C103   C     0.34912   0.89213   0.04605   0.00000  Uiso   1.00
C104   C     0.28605   0.91501   0.07028   0.00000  Uiso   1.00
C105   C     0.14183   0.96246   0.08546   0.00000  Uiso   1.00
C106   C     0.67594   0.80648   0.19273   0.00000  Uiso   1.00
C107   C     0.63993   0.74250   0.15438   0.00000  Uiso   1.00
C108   C     0.66332   0.67858   0.17884   0.00000  Uiso   1.00
C109   C     0.62295   0.62662   0.13591   0.00000  Uiso   1.00
C110   C     0.77297   0.84593   0.18760   0.00000  Uiso   1.00
C111   C     0.90821   0.86898   0.23999   0.00000  Uiso   1.00
C112   C     0.97983   0.90409   0.22504   0.00000  Uiso   1.00
C113   C     0.53732   0.84565   0.15419   0.00000  Uiso   1.00
C114   C     0.47445   0.86849   0.17849   0.00000  Uiso   1.00
C115   C     0.34770   0.90338   0.13542   0.00000  Uiso   1.00
H116   H     0.51477   0.83688   0.02240   0.00000  Uiso   1.00
H117   H     0.49039   0.71122   0.99607   0.00000  Uiso   1.00
H118   H     0.73523   0.90159   0.05722   0.00000  Uiso   1.00
H119   H     0.30154   0.90110   0.99573   0.00000  Uiso   1.00
H120   H     0.49055   0.56679   0.99557   0.00000  Uiso   1.00
H121   H     0.00678   0.96822   0.12449   0.00000  Uiso   1.00
H122   H     0.09226   0.96718   0.99484   0.00000  Uiso   1.00
H123   H     0.72385   0.79744   0.24336   0.00000  Uiso   1.00
H124   H     0.71094   0.66962   0.22916   0.00000  Uiso   1.00
H125   H     0.95578   0.85999   0.29030   0.00000  Uiso   1.00
H126   H     0.52209   0.85950   0.22882   0.00000  Uiso   1.00
H127   H     0.66956   0.53303   0.18475   0.00000  Uiso   1.00
H128   H     0.18579   0.93445   0.31367   0.00000  Uiso   1.00
H129   H     0.27127   0.93341   0.18402   0.00000  Uiso   1.00
O130   O     0.56783   0.46654   0.07684   0.00000  Uiso   1.00
O131   O     0.24510   0.99320   0.24598   0.00000  Uiso   1.00
O132   O     0.04527   0.99184   0.07587   0.00000  Uiso   1.00
N133   N     0.53442   0.57639   0.04204   0.00000  Uiso   1.00
N134   N     0.01708   0.95169   0.16258   0.00000  Uiso   1.00
N135   N     0.16210   0.95073   0.04136   0.00000  Uiso   1.00
N136   N     0.63075   0.55822   0.14384   0.00000  Uiso   1.00
N137   N     0.11340   0.93352   0.26437   0.00000  Uiso   1.00
N138   N     0.25842   0.93256   0.14316   0.00000  Uiso   1.00
C139   C     0.43734   0.32784   0.42698   0.00000  Uiso   1.00
C140   C     0.42160   0.25410   0.41064   0.00000  Uiso   1.00
C141   C     0.46201   0.20222   0.45361   0.00000  Uiso   1.00
C142   C     0.43868   0.13825   0.42922   0.00000  Uiso   1.00
C143   C     0.42354   0.02551   0.41374   0.00000  Uiso   1.00
C144   C     0.28856   0.35753   0.37742   0.00000  Uiso   1.00
C145   C     0.21712   0.39262   0.39246   0.00000  Uiso   1.00
C146   C     0.08181   0.41571   0.34010   0.00000  Uiso   1.00
C147   C     0.86017   0.46359   0.27304   0.00000  Uiso   1.00
C148   C     0.52420   0.35725   0.41083   0.00000  Uiso   1.00
C149   C     0.65088   0.39213   0.45395   0.00000  Uiso   1.00
C150   C     0.71395   0.41501   0.42972   0.00000  Uiso   1.00
C151   C     0.85817   0.46246   0.41454   0.00000  Uiso   1.00
C152   C     0.32406   0.30648   0.30727   0.00000  Uiso   1.00
C153   C     0.36007   0.24250   0.34562   0.00000  Uiso   1.00
C154   C     0.33668   0.17858   0.32116   0.00000  Uiso   1.00
C155   C     0.37705   0.12662   0.36409   0.00000  Uiso   1.00
C156   C     0.22703   0.34593   0.31240   0.00000  Uiso   1.00
C157   C     0.09179   0.36898   0.26001   0.00000  Uiso   1.00
C158   C     0.02017   0.40409   0.27496   0.00000  Uiso   1.00
C159   C     0.46268   0.34565   0.34581   0.00000  Uiso   1.00
C160   C     0.52555   0.36849   0.32151   0.00000  Uiso   1.00
C161   C     0.65230   0.40338   0.36458   0.00000  Uiso   1.00
H162   H     0.48523   0.33688   0.47760   0.00000  Uiso   1.00
H163   H     0.50961   0.21122   0.50393   0.00000  Uiso   1.00
H164   H     0.26477   0.40159   0.44278   0.00000  Uiso   1.00
H165   H     0.69846   0.40110   0.50427   0.00000  Uiso   1.00
H166   H     0.50945   0.06679   0.50443   0.00000  Uiso   1.00
H167   H     0.99322   0.46822   0.37551   0.00000  Uiso   1.00
H168   H     0.90774   0.46718   0.50516   0.00000  Uiso   1.00
H169   H     0.27615   0.29744   0.25664   0.00000  Uiso   1.00
H170   H     0.28906   0.16962   0.27084   0.00000  Uiso   1.00
H171   H     0.04422   0.35999   0.20970   0.00000  Uiso   1.00
H172   H     0.47791   0.35950   0.27118   0.00000  Uiso   1.00
H173   H     0.33044   0.03303   0.31525   0.00000  Uiso   1.00
H174   H     0.81421   0.43445   0.18633   0.00000  Uiso   1.00
H175   H     0.72873   0.43341   0.31598   0.00000  Uiso   1.00
O176   O     0.43217   0.96654   0.42316   0.00000  Uiso   1.00
O177   O     0.75490   0.49320   0.25402   0.00000  Uiso   1.00
O178   O     0.95473   0.49184   0.42413   0.00000  Uiso   1.00
N179   N     0.46558   0.07639   0.45796   0.00000  Uiso   1.00
N180   N     0.98292   0.45169   0.33742   0.00000  Uiso   1.00
N181   N     0.83790   0.45073   0.45864   0.00000  Uiso   1.00
N182   N     0.36925   0.05822   0.35616   0.00000  Uiso   1.00
N183   N     0.88660   0.43352   0.23563   0.00000  Uiso   1.00
N184   N     0.74158   0.43256   0.35684   0.00000  Uiso   1.00
