data_job_04764
_audit_creation_date              2018-12-19
_audit_creation_method            'Materials Studio'
_symmetry_space_group_name_H-M    'P1'
_symmetry_Int_Tables_number       1
_symmetry_cell_setting            triclinic
loop_
_symmetry_equiv_pos_as_xyz
  x,y,z
_cell_length_a                    15.2602
_cell_length_b                    12.3453
_cell_length_c                    12.3286
_cell_angle_alpha                 90.0000
_cell_angle_beta                  90.0000
_cell_angle_gamma                 90.0000
loop_
_atom_site_label
_atom_site_type_symbol
_atom_site_fract_x
_atom_site_fract_y
_atom_site_fract_z
_atom_site_U_iso_or_equiv
_atom_site_adp_type
_atom_site_occupancy
C1     C     0.74392   0.13828   0.62698   0.00000  Uiso   1.00
C2     C     0.79123   0.06213   0.70479   0.00000  Uiso   1.00
C3     C     0.83566   0.09286   0.79806   0.00000  Uiso   1.00
C4     C     0.87463   0.01098   0.85834   0.00000  Uiso   1.00
C5     C     0.94894   0.90927   0.98400   0.00000  Uiso   1.00
C6     C     0.78407   0.11815   0.51552   0.00000  Uiso   1.00
C7     C     0.82246   0.19599   0.44965   0.00000  Uiso   1.00
C8     C     0.85540   0.16128   0.35059   0.00000  Uiso   1.00
C9     C     0.91853   0.14656   0.18236   0.00000  Uiso   1.00
C10    C     0.64976   0.09748   0.62031   0.00000  Uiso   1.00
C11    C     0.57522   0.15794   0.64253   0.00000  Uiso   1.00
C12    C     0.49507   0.10582   0.63167   0.00000  Uiso   1.00
C13    C     0.34967   0.05899   0.62615   0.00000  Uiso   1.00
C14    C     0.73413   0.93823   0.56816   0.00000  Uiso   1.00
C15    C     0.78592   0.95347   0.67284   0.00000  Uiso   1.00
C16    C     0.82483   0.87152   0.73300   0.00000  Uiso   1.00
C17    C     0.86930   0.90213   0.82635   0.00000  Uiso   1.00
C18    C     0.77876   0.00950   0.48357   0.00000  Uiso   1.00
C19    C     0.81163   0.97466   0.38458   0.00000  Uiso   1.00
C20    C     0.85007   0.05242   0.31858   0.00000  Uiso   1.00
C21    C     0.64444   0.98881   0.58837   0.00000  Uiso   1.00
C22    C     0.56439   0.93660   0.57746   0.00000  Uiso   1.00
C23    C     0.48975   0.99696   0.59967   0.00000  Uiso   1.00
H24    H     0.74807   0.22288   0.65184   0.00000  Uiso   1.00
H25    H     0.83977   0.17696   0.82275   0.00000  Uiso   1.00
H26    H     0.82656   0.28008   0.47439   0.00000  Uiso   1.00
H27    H     0.57936   0.24202   0.66725   0.00000  Uiso   1.00
H28    H     0.93912   0.07813   0.99813   0.00000  Uiso   1.00
H29    H     0.91125   0.29557   0.26357   0.00000  Uiso   1.00
H30    H     0.38998   0.21532   0.67024   0.00000  Uiso   1.00
H31    H     0.72999   0.85363   0.54329   0.00000  Uiso   1.00
H32    H     0.82070   0.78744   0.70825   0.00000  Uiso   1.00
H33    H     0.80750   0.89056   0.35988   0.00000  Uiso   1.00
H34    H     0.56030   0.85251   0.55274   0.00000  Uiso   1.00
H35    H     0.92364   0.76199   0.90520   0.00000  Uiso   1.00
H36    H     0.89578   0.97942   0.17063   0.00000  Uiso   1.00
H37    H     0.37451   0.89918   0.57731   0.00000  Uiso   1.00
O38    O     0.99140   0.88319   0.06212   0.00000  Uiso   1.00
O39    O     0.95483   0.16846   0.09840   0.00000  Uiso   1.00
O40    O     0.27094   0.06318   0.63195   0.00000  Uiso   1.00
N41    N     0.92301   0.01281   0.95363   0.00000  Uiso   1.00
N42    N     0.89697   0.21609   0.26687   0.00000  Uiso   1.00
N43    N     0.40963   0.14108   0.64705   0.00000  Uiso   1.00
N44    N     0.91468   0.84269   0.90363   0.00000  Uiso   1.00
N45    N     0.88865   0.04598   0.21686   0.00000  Uiso   1.00
N46    N     0.40130   0.97097   0.59704   0.00000  Uiso   1.00
C47    C     0.25608   0.86172   0.12698   0.00000  Uiso   1.00
C48    C     0.20877   0.93787   0.20479   0.00000  Uiso   1.00
C49    C     0.16434   0.90714   0.29806   0.00000  Uiso   1.00
C50    C     0.12537   0.98902   0.35834   0.00000  Uiso   1.00
C51    C     0.05106   0.09073   0.48400   0.00000  Uiso   1.00
C52    C     0.21593   0.88185   0.01552   0.00000  Uiso   1.00
C53    C     0.17754   0.80401   0.94965   0.00000  Uiso   1.00
C54    C     0.14460   0.83872   0.85059   0.00000  Uiso   1.00
C55    C     0.08147   0.85344   0.68236   0.00000  Uiso   1.00
C56    C     0.35024   0.90252   0.12031   0.00000  Uiso   1.00
C57    C     0.42478   0.84206   0.14253   0.00000  Uiso   1.00
C58    C     0.50493   0.89418   0.13167   0.00000  Uiso   1.00
C59    C     0.65033   0.94101   0.12615   0.00000  Uiso   1.00
C60    C     0.26587   0.06177   0.06816   0.00000  Uiso   1.00
C61    C     0.21408   0.04653   0.17284   0.00000  Uiso   1.00
C62    C     0.17517   0.12848   0.23300   0.00000  Uiso   1.00
C63    C     0.13070   0.09787   0.32635   0.00000  Uiso   1.00
C64    C     0.22124   0.99050   0.98357   0.00000  Uiso   1.00
C65    C     0.18837   0.02534   0.88458   0.00000  Uiso   1.00
C66    C     0.14993   0.94758   0.81858   0.00000  Uiso   1.00
C67    C     0.35556   0.01119   0.08837   0.00000  Uiso   1.00
C68    C     0.43561   0.06340   0.07746   0.00000  Uiso   1.00
C69    C     0.51025   0.00304   0.09967   0.00000  Uiso   1.00
H70    H     0.25193   0.77712   0.15184   0.00000  Uiso   1.00
H71    H     0.16023   0.82304   0.32275   0.00000  Uiso   1.00
H72    H     0.17344   0.71992   0.97439   0.00000  Uiso   1.00
H73    H     0.42064   0.75798   0.16725   0.00000  Uiso   1.00
H74    H     0.06088   0.92187   0.49813   0.00000  Uiso   1.00
H75    H     0.08875   0.70443   0.76357   0.00000  Uiso   1.00
H76    H     0.61002   0.78468   0.17024   0.00000  Uiso   1.00
H77    H     0.27001   0.14637   0.04329   0.00000  Uiso   1.00
H78    H     0.17930   0.21256   0.20825   0.00000  Uiso   1.00
H79    H     0.19250   0.10944   0.85988   0.00000  Uiso   1.00
H80    H     0.43970   0.14749   0.05274   0.00000  Uiso   1.00
H81    H     0.07636   0.23801   0.40520   0.00000  Uiso   1.00
H82    H     0.10422   0.02058   0.67063   0.00000  Uiso   1.00
H83    H     0.62549   0.10082   0.07731   0.00000  Uiso   1.00
O84    O     0.00860   0.11681   0.56212   0.00000  Uiso   1.00
O85    O     0.04517   0.83154   0.59840   0.00000  Uiso   1.00
O86    O     0.72906   0.93682   0.13195   0.00000  Uiso   1.00
N87    N     0.07699   0.98719   0.45363   0.00000  Uiso   1.00
N88    N     0.10303   0.78391   0.76687   0.00000  Uiso   1.00
N89    N     0.59037   0.85892   0.14705   0.00000  Uiso   1.00
N90    N     0.08532   0.15731   0.40363   0.00000  Uiso   1.00
N91    N     0.11135   0.95402   0.71686   0.00000  Uiso   1.00
N92    N     0.59870   0.02903   0.09704   0.00000  Uiso   1.00
C93    C     0.24392   0.36172   0.62698   0.00000  Uiso   1.00
C94    C     0.29123   0.43787   0.70479   0.00000  Uiso   1.00
C95    C     0.33566   0.40714   0.79806   0.00000  Uiso   1.00
C96    C     0.37463   0.48902   0.85834   0.00000  Uiso   1.00
C97    C     0.44894   0.59073   0.98400   0.00000  Uiso   1.00
C98    C     0.28407   0.38185   0.51552   0.00000  Uiso   1.00
C99    C     0.32246   0.30401   0.44965   0.00000  Uiso   1.00
C100   C     0.35540   0.33872   0.35059   0.00000  Uiso   1.00
C101   C     0.41853   0.35344   0.18236   0.00000  Uiso   1.00
C102   C     0.14976   0.40252   0.62031   0.00000  Uiso   1.00
C103   C     0.07522   0.34206   0.64253   0.00000  Uiso   1.00
C104   C     0.99507   0.39418   0.63167   0.00000  Uiso   1.00
C105   C     0.84967   0.44101   0.62615   0.00000  Uiso   1.00
C106   C     0.23413   0.56177   0.56816   0.00000  Uiso   1.00
C107   C     0.28592   0.54653   0.67284   0.00000  Uiso   1.00
C108   C     0.32483   0.62848   0.73300   0.00000  Uiso   1.00
C109   C     0.36930   0.59787   0.82635   0.00000  Uiso   1.00
C110   C     0.27876   0.49050   0.48357   0.00000  Uiso   1.00
C111   C     0.31163   0.52534   0.38458   0.00000  Uiso   1.00
C112   C     0.35007   0.44758   0.31858   0.00000  Uiso   1.00
C113   C     0.14444   0.51119   0.58837   0.00000  Uiso   1.00
C114   C     0.06439   0.56340   0.57746   0.00000  Uiso   1.00
C115   C     0.98975   0.50304   0.59967   0.00000  Uiso   1.00
H116   H     0.24807   0.27712   0.65184   0.00000  Uiso   1.00
H117   H     0.33977   0.32304   0.82275   0.00000  Uiso   1.00
H118   H     0.32656   0.21992   0.47439   0.00000  Uiso   1.00
H119   H     0.07936   0.25798   0.66725   0.00000  Uiso   1.00
H120   H     0.43912   0.42187   0.99813   0.00000  Uiso   1.00
H121   H     0.41125   0.20443   0.26357   0.00000  Uiso   1.00
H122   H     0.88998   0.28468   0.67024   0.00000  Uiso   1.00
H123   H     0.22999   0.64637   0.54329   0.00000  Uiso   1.00
H124   H     0.32070   0.71256   0.70825   0.00000  Uiso   1.00
H125   H     0.30750   0.60944   0.35988   0.00000  Uiso   1.00
H126   H     0.06030   0.64749   0.55274   0.00000  Uiso   1.00
H127   H     0.42364   0.73801   0.90520   0.00000  Uiso   1.00
H128   H     0.39578   0.52058   0.17063   0.00000  Uiso   1.00
H129   H     0.87451   0.60082   0.57731   0.00000  Uiso   1.00
O130   O     0.49140   0.61681   0.06212   0.00000  Uiso   1.00
O131   O     0.45483   0.33154   0.09840   0.00000  Uiso   1.00
O132   O     0.77094   0.43682   0.63195   0.00000  Uiso   1.00
N133   N     0.42301   0.48719   0.95363   0.00000  Uiso   1.00
N134   N     0.39697   0.28391   0.26687   0.00000  Uiso   1.00
N135   N     0.90963   0.35892   0.64705   0.00000  Uiso   1.00
N136   N     0.41468   0.65731   0.90363   0.00000  Uiso   1.00
N137   N     0.38865   0.45402   0.21686   0.00000  Uiso   1.00
N138   N     0.90130   0.52903   0.59704   0.00000  Uiso   1.00
C139   C     0.75608   0.63828   0.12698   0.00000  Uiso   1.00
C140   C     0.70877   0.56213   0.20479   0.00000  Uiso   1.00
C141   C     0.66434   0.59286   0.29806   0.00000  Uiso   1.00
C142   C     0.62537   0.51098   0.35834   0.00000  Uiso   1.00
C143   C     0.55106   0.40927   0.48400   0.00000  Uiso   1.00
C144   C     0.71593   0.61815   0.01552   0.00000  Uiso   1.00
C145   C     0.67754   0.69599   0.94965   0.00000  Uiso   1.00
C146   C     0.64460   0.66128   0.85059   0.00000  Uiso   1.00
C147   C     0.58147   0.64656   0.68236   0.00000  Uiso   1.00
C148   C     0.85024   0.59748   0.12031   0.00000  Uiso   1.00
C149   C     0.92478   0.65794   0.14253   0.00000  Uiso   1.00
C150   C     0.00493   0.60582   0.13167   0.00000  Uiso   1.00
C151   C     0.15033   0.55899   0.12615   0.00000  Uiso   1.00
C152   C     0.76587   0.43823   0.06816   0.00000  Uiso   1.00
C153   C     0.71408   0.45347   0.17284   0.00000  Uiso   1.00
C154   C     0.67517   0.37152   0.23300   0.00000  Uiso   1.00
C155   C     0.63070   0.40213   0.32635   0.00000  Uiso   1.00
C156   C     0.72124   0.50950   0.98357   0.00000  Uiso   1.00
C157   C     0.68837   0.47466   0.88458   0.00000  Uiso   1.00
C158   C     0.64993   0.55242   0.81858   0.00000  Uiso   1.00
C159   C     0.85556   0.48881   0.08837   0.00000  Uiso   1.00
C160   C     0.93561   0.43660   0.07746   0.00000  Uiso   1.00
C161   C     0.01025   0.49696   0.09967   0.00000  Uiso   1.00
H162   H     0.75193   0.72288   0.15184   0.00000  Uiso   1.00
H163   H     0.66023   0.67696   0.32275   0.00000  Uiso   1.00
H164   H     0.67344   0.78008   0.97439   0.00000  Uiso   1.00
H165   H     0.92064   0.74202   0.16725   0.00000  Uiso   1.00
H166   H     0.56088   0.57813   0.49813   0.00000  Uiso   1.00
H167   H     0.58875   0.79557   0.76357   0.00000  Uiso   1.00
H168   H     0.11002   0.71532   0.17024   0.00000  Uiso   1.00
H169   H     0.77001   0.35363   0.04329   0.00000  Uiso   1.00
H170   H     0.67930   0.28744   0.20825   0.00000  Uiso   1.00
H171   H     0.69250   0.39056   0.85988   0.00000  Uiso   1.00
H172   H     0.93970   0.35251   0.05274   0.00000  Uiso   1.00
H173   H     0.57636   0.26199   0.40520   0.00000  Uiso   1.00
H174   H     0.60422   0.47942   0.67063   0.00000  Uiso   1.00
H175   H     0.12549   0.39918   0.07731   0.00000  Uiso   1.00
O176   O     0.50860   0.38319   0.56212   0.00000  Uiso   1.00
O177   O     0.54517   0.66846   0.59840   0.00000  Uiso   1.00
O178   O     0.22906   0.56318   0.13195   0.00000  Uiso   1.00
N179   N     0.57699   0.51281   0.45363   0.00000  Uiso   1.00
N180   N     0.60303   0.71609   0.76687   0.00000  Uiso   1.00
N181   N     0.09037   0.64108   0.14705   0.00000  Uiso   1.00
N182   N     0.58532   0.34269   0.40363   0.00000  Uiso   1.00
N183   N     0.61135   0.54598   0.71686   0.00000  Uiso   1.00
N184   N     0.09870   0.47097   0.09704   0.00000  Uiso   1.00
