data_job_07039
_audit_creation_date              2018-12-19
_audit_creation_method            'Materials Studio'
_symmetry_space_group_name_H-M    'P1'
_symmetry_Int_Tables_number       1
_symmetry_cell_setting            triclinic
loop_
_symmetry_equiv_pos_as_xyz
  x,y,z
_cell_length_a                    20.1710
_cell_length_b                    20.8587
_cell_length_c                    21.8013
_cell_angle_alpha                 95.6829
_cell_angle_beta                  78.3147
_cell_angle_gamma                 102.2330
loop_
_atom_site_label
_atom_site_type_symbol
_atom_site_fract_x
_atom_site_fract_y
_atom_site_fract_z
_atom_site_U_iso_or_equiv
_atom_site_adp_type
_atom_site_occupancy
C1     C     0.58209   0.46948   0.91944   0.00000  Uiso   1.00
C2     C     0.58238   0.42380   0.96980   0.00000  Uiso   1.00
C3     C     0.57346   0.43976   0.03387   0.00000  Uiso   1.00
C4     C     0.57544   0.39112   0.07219   0.00000  Uiso   1.00
C5     C     0.57432   0.32968   0.15418   0.00000  Uiso   1.00
C6     C     0.65072   0.47194   0.87397   0.00000  Uiso   1.00
C7     C     0.69924   0.52837   0.85746   0.00000  Uiso   1.00
C8     C     0.75873   0.52025   0.81510   0.00000  Uiso   1.00
C9     C     0.86368   0.53355   0.74827   0.00000  Uiso   1.00
C10    C     0.52646   0.43406   0.88311   0.00000  Uiso   1.00
C11    C     0.47053   0.45865   0.87427   0.00000  Uiso   1.00
C12    C     0.42541   0.41864   0.83960   0.00000  Uiso   1.00
C13    C     0.33744   0.37312   0.78697   0.00000  Uiso   1.00
C14    C     0.60146   0.35472   0.87356   0.00000  Uiso   1.00
C15    C     0.59290   0.36147   0.94488   0.00000  Uiso   1.00
C16    C     0.59489   0.31278   0.98311   0.00000  Uiso   1.00
C17    C     0.58597   0.32867   0.04723   0.00000  Uiso   1.00
C18    C     0.66123   0.40961   0.84905   0.00000  Uiso   1.00
C19    C     0.72066   0.40140   0.80670   0.00000  Uiso   1.00
C20    C     0.76927   0.45780   0.79014   0.00000  Uiso   1.00
C21    C     0.53698   0.37172   0.85819   0.00000  Uiso   1.00
C22    C     0.49195   0.33167   0.82352   0.00000  Uiso   1.00
C23    C     0.43595   0.35619   0.81463   0.00000  Uiso   1.00
H24    H     0.57391   0.51802   0.93884   0.00000  Uiso   1.00
H25    H     0.56533   0.48801   0.05314   0.00000  Uiso   1.00
H26    H     0.69109   0.57661   0.87675   0.00000  Uiso   1.00
H27    H     0.46240   0.50689   0.89357   0.00000  Uiso   1.00
H28    H     0.56049   0.42726   0.16887   0.00000  Uiso   1.00
H29    H     0.82563   0.61407   0.79693   0.00000  Uiso   1.00
H30    H     0.34341   0.46706   0.83238   0.00000  Uiso   1.00
H31    H     0.60965   0.30618   0.85416   0.00000  Uiso   1.00
H32    H     0.60303   0.26455   0.96381   0.00000  Uiso   1.00
H33    H     0.72878   0.35315   0.78742   0.00000  Uiso   1.00
H34    H     0.50010   0.28343   0.80424   0.00000  Uiso   1.00
H35    H     0.59108   0.24589   0.09637   0.00000  Uiso   1.00
H36    H     0.85623   0.43271   0.72442   0.00000  Uiso   1.00
H37    H     0.37401   0.28569   0.75989   0.00000  Uiso   1.00
O38    O     0.57081   0.31302   0.20628   0.00000  Uiso   1.00
O39    O     0.91866   0.55811   0.71830   0.00000  Uiso   1.00
O40    O     0.28600   0.36524   0.76482   0.00000  Uiso   1.00
N41    N     0.56858   0.39028   0.13676   0.00000  Uiso   1.00
N42    N     0.81648   0.56494   0.78902   0.00000  Uiso   1.00
N43    N     0.36566   0.42751   0.82216   0.00000  Uiso   1.00
N44    N     0.58504   0.29269   0.09775   0.00000  Uiso   1.00
N45    N     0.83295   0.46735   0.75001   0.00000  Uiso   1.00
N46    N     0.38212   0.32991   0.78315   0.00000  Uiso   1.00
C47    C     0.75440   0.53376   0.53516   0.00000  Uiso   1.00
C48    C     0.82477   0.57784   0.53711   0.00000  Uiso   1.00
C49    C     0.86177   0.58293   0.58515   0.00000  Uiso   1.00
C50    C     0.92516   0.62605   0.57810   0.00000  Uiso   1.00
C51    C     0.03053   0.68894   0.58924   0.00000  Uiso   1.00
C52    C     0.70703   0.57902   0.52674   0.00000  Uiso   1.00
C53    C     0.64502   0.58509   0.56606   0.00000  Uiso   1.00
C54    C     0.60929   0.62918   0.55028   0.00000  Uiso   1.00
C55    C     0.53185   0.69386   0.54530   0.00000  Uiso   1.00
C56    C     0.76347   0.49070   0.47451   0.00000  Uiso   1.00
C57    C     0.74891   0.42251   0.46989   0.00000  Uiso   1.00
C58    C     0.76068   0.39224   0.41013   0.00000  Uiso   1.00
C59    C     0.77087   0.31979   0.32404   0.00000  Uiso   1.00
C60    C     0.80118   0.60127   0.43723   0.00000  Uiso   1.00
C61    C     0.85017   0.61451   0.48392   0.00000  Uiso   1.00
C62    C     0.91353   0.65762   0.47680   0.00000  Uiso   1.00
C63    C     0.95061   0.66278   0.52481   0.00000  Uiso   1.00
C64    C     0.73243   0.61568   0.47356   0.00000  Uiso   1.00
C65    C     0.69678   0.65977   0.45771   0.00000  Uiso   1.00
C66    C     0.63475   0.66591   0.49699   0.00000  Uiso   1.00
C67    C     0.78888   0.52736   0.42131   0.00000  Uiso   1.00
C68    C     0.80067   0.49720   0.36154   0.00000  Uiso   1.00
C69    C     0.78614   0.42898   0.35684   0.00000  Uiso   1.00
H70    H     0.73462   0.50522   0.57657   0.00000  Uiso   1.00
H71    H     0.84208   0.55455   0.62631   0.00000  Uiso   1.00
H72    H     0.62537   0.55670   0.60722   0.00000  Uiso   1.00
H73    H     0.72925   0.39415   0.51106   0.00000  Uiso   1.00
H74    H     0.97242   0.62544   0.65800   0.00000  Uiso   1.00
H75    H     0.51547   0.62995   0.61774   0.00000  Uiso   1.00
H76    H     0.73450   0.28718   0.41498   0.00000  Uiso   1.00
H77    H     0.82096   0.62982   0.39581   0.00000  Uiso   1.00
H78    H     0.93318   0.68599   0.43563   0.00000  Uiso   1.00
H79    H     0.71646   0.68814   0.41654   0.00000  Uiso   1.00
H80    H     0.82033   0.52559   0.32039   0.00000  Uiso   1.00
H81    H     0.04636   0.73212   0.50325   0.00000  Uiso   1.00
H82    H     0.58939   0.73663   0.46298   0.00000  Uiso   1.00
H83    H     0.80843   0.39386   0.26022   0.00000  Uiso   1.00
O84    O     0.08164   0.71350   0.61009   0.00000  Uiso   1.00
O85    O     0.48212   0.71941   0.55726   0.00000  Uiso   1.00
O86    O     0.76949   0.26970   0.29125   0.00000  Uiso   1.00
N87    N     0.97443   0.64283   0.61611   0.00000  Uiso   1.00
N88    N     0.54721   0.64705   0.57847   0.00000  Uiso   1.00
N89    N     0.75197   0.32659   0.38891   0.00000  Uiso   1.00
N90    N     0.01421   0.70023   0.53284   0.00000  Uiso   1.00
N91    N     0.58699   0.70446   0.49520   0.00000  Uiso   1.00
N92    N     0.79175   0.38399   0.30564   0.00000  Uiso   1.00
C93    C     0.41438   0.90623   0.64632   0.00000  Uiso   1.00
C94    C     0.47199   0.95882   0.66678   0.00000  Uiso   1.00
C95    C     0.54196   0.96492   0.64225   0.00000  Uiso   1.00
C96    C     0.58642   0.01633   0.66730   0.00000  Uiso   1.00
C97    C     0.67964   0.09132   0.69181   0.00000  Uiso   1.00
C98    C     0.37526   0.87200   0.70545   0.00000  Uiso   1.00
C99    C     0.36391   0.80511   0.71342   0.00000  Uiso   1.00
C100   C     0.32694   0.78343   0.77102   0.00000  Uiso   1.00
C101   C     0.26995   0.72363   0.85555   0.00000  Uiso   1.00
C102   C     0.36472   0.94300   0.62713   0.00000  Uiso   1.00
C103   C     0.34449   0.93579   0.56926   0.00000  Uiso   1.00
C104   C     0.29863   0.97389   0.56093   0.00000  Uiso   1.00
C105   C     0.22527   0.02432   0.52385   0.00000  Uiso   1.00
C106   C     0.36891   0.98668   0.73444   0.00000  Uiso   1.00
C107   C     0.44729   0.00252   0.71464   0.00000  Uiso   1.00
C108   C     0.49166   0.05393   0.73974   0.00000  Uiso   1.00
C109   C     0.56169   0.06011   0.71525   0.00000  Uiso   1.00
C110   C     0.35057   0.91570   0.75331   0.00000  Uiso   1.00
C111   C     0.31361   0.89412   0.81091   0.00000  Uiso   1.00
C112   C     0.30220   0.82721   0.81897   0.00000  Uiso   1.00
C113   C     0.34003   0.98670   0.67499   0.00000  Uiso   1.00
C114   C     0.29419   0.02481   0.66675   0.00000  Uiso   1.00
C115   C     0.27389   0.01766   0.60888   0.00000  Uiso   1.00
H116   H     0.43360   0.87221   0.60906   0.00000  Uiso   1.00
H117   H     0.56105   0.93109   0.60521   0.00000  Uiso   1.00
H118   H     0.38302   0.77130   0.67637   0.00000  Uiso   1.00
H119   H     0.36361   0.90197   0.53223   0.00000  Uiso   1.00
H120   H     0.69146   0.01563   0.62207   0.00000  Uiso   1.00
H121   H     0.31605   0.67870   0.77210   0.00000  Uiso   1.00
H122   H     0.27512   0.95425   0.46816   0.00000  Uiso   1.00
H123   H     0.34969   0.02070   0.77170   0.00000  Uiso   1.00
H124   H     0.47254   0.08774   0.77678   0.00000  Uiso   1.00
H125   H     0.29450   0.92795   0.84794   0.00000  Uiso   1.00
H126   H     0.27509   0.05862   0.70380   0.00000  Uiso   1.00
H127   H     0.61962   0.14277   0.76132   0.00000  Uiso   1.00
H128   H     0.24421   0.80584   0.91135   0.00000  Uiso   1.00
H129   H     0.20328   0.08139   0.60741   0.00000  Uiso   1.00
O130   O     0.73787   0.12061   0.69211   0.00000  Uiso   1.00
O131   O     0.24534   0.67856   0.88895   0.00000  Uiso   1.00
O132   O     0.19164   0.04008   0.49017   0.00000  Uiso   1.00
N133   N     0.65770   0.03636   0.65413   0.00000  Uiso   1.00
N134   N     0.30672   0.72135   0.79441   0.00000  Uiso   1.00
N135   N     0.26844   0.97895   0.51025   0.00000  Uiso   1.00
N136   N     0.61904   0.10478   0.72906   0.00000  Uiso   1.00
N137   N     0.26806   0.78977   0.86934   0.00000  Uiso   1.00
N138   N     0.22978   0.04736   0.58518   0.00000  Uiso   1.00
C139   C     0.02794   0.39759   0.05762   0.00000  Uiso   1.00
C140   C     0.06148   0.46818   0.04200   0.00000  Uiso   1.00
C141   C     0.05553   0.52361   0.08192   0.00000  Uiso   1.00
C142   C     0.09019   0.58377   0.05883   0.00000  Uiso   1.00
C143   C     0.13634   0.69268   0.04384   0.00000  Uiso   1.00
C144   C     0.08664   0.35979   0.04685   0.00000  Uiso   1.00
C145   C     0.10183   0.32408   0.09085   0.00000  Uiso   1.00
C146   C     0.15766   0.29299   0.07183   0.00000  Uiso   1.00
C147   C     0.24285   0.23359   0.06436   0.00000  Uiso   1.00
C148   C     0.98513   0.37048   0.00726   0.00000  Uiso   1.00
C149   C     0.91496   0.34373   0.01797   0.00000  Uiso   1.00
C150   C     0.88533   0.32162   0.96562   0.00000  Uiso   1.00
C151   C     0.81289   0.27882   0.89667   0.00000  Uiso   1.00
C152   C     0.10007   0.40587   0.94561   0.00000  Uiso   1.00
C153   C     0.10067   0.47267   0.98116   0.00000  Uiso   1.00
C154   C     0.13534   0.53276   0.95800   0.00000  Uiso   1.00
C155   C     0.12944   0.58827   0.99788   0.00000  Uiso   1.00
C156   C     0.12582   0.36428   0.98601   0.00000  Uiso   1.00
C157   C     0.18164   0.33324   0.96693   0.00000  Uiso   1.00
C158   C     0.19692   0.29749   0.01088   0.00000  Uiso   1.00
C159   C     0.02431   0.37497   0.94642   0.00000  Uiso   1.00
C160   C     0.99477   0.35289   0.89404   0.00000  Uiso   1.00
C161   C     0.92458   0.32613   0.90467   0.00000  Uiso   1.00
H162   H     0.99744   0.39409   0.10499   0.00000  Uiso   1.00
H163   H     0.02521   0.52011   0.12900   0.00000  Uiso   1.00
H164   H     0.07150   0.32061   0.13792   0.00000  Uiso   1.00
H165   H     0.88466   0.34026   0.06505   0.00000  Uiso   1.00
H166   H     0.07330   0.66180   0.12881   0.00000  Uiso   1.00
H167   H     0.17089   0.24112   0.14761   0.00000  Uiso   1.00
H168   H     0.77690   0.28257   0.99395   0.00000  Uiso   1.00
H169   H     0.13058   0.40936   0.89825   0.00000  Uiso   1.00
H170   H     0.16566   0.53622   0.91092   0.00000  Uiso   1.00
H171   H     0.21195   0.33672   0.91984   0.00000  Uiso   1.00
H172   H     0.02511   0.35638   0.84697   0.00000  Uiso   1.00
H173   H     0.18729   0.67488   0.95180   0.00000  Uiso   1.00
H174   H     0.28489   0.25420   0.97061   0.00000  Uiso   1.00
H175   H     0.89090   0.29565   0.81695   0.00000  Uiso   1.00
O176   O     0.15099   0.75152   0.05238   0.00000  Uiso   1.00
O177   O     0.27902   0.19959   0.07705   0.00000  Uiso   1.00
O178   O     0.76211   0.25397   0.87545   0.00000  Uiso   1.00
N179   N     0.09530   0.64747   0.08541   0.00000  Uiso   1.00
N180   N     0.18655   0.25417   0.10299   0.00000  Uiso   1.00
N181   N     0.81821   0.29290   0.95933   0.00000  Uiso   1.00
N182   N     0.15664   0.65451   0.99016   0.00000  Uiso   1.00
N183   N     0.24789   0.26121   0.00775   0.00000  Uiso   1.00
N184   N     0.87955   0.29994   0.86409   0.00000  Uiso   1.00
C185   C     0.39381   0.07774   0.17903   0.00000  Uiso   1.00
C186   C     0.44403   0.04117   0.19754   0.00000  Uiso   1.00
C187   C     0.51552   0.05842   0.18348   0.00000  Uiso   1.00
C188   C     0.55232   0.01863   0.20463   0.00000  Uiso   1.00
C189   C     0.63540   0.97023   0.22824   0.00000  Uiso   1.00
C190   C     0.34728   0.09531   0.23999   0.00000  Uiso   1.00
C191   C     0.33743   0.15808   0.26161   0.00000  Uiso   1.00
C192   C     0.29277   0.16386   0.31849   0.00000  Uiso   1.00
C193   C     0.22562   0.19951   0.40798   0.00000  Uiso   1.00
C194   C     0.34777   0.02732   0.14243   0.00000  Uiso   1.00
C195   C     0.33830   0.03293   0.08203   0.00000  Uiso   1.00
C196   C     0.29404   0.98148   0.05678   0.00000  Uiso   1.00
C197   C     0.22764   0.91156   0.99479   0.00000  Uiso   1.00
C198   C     0.33202   0.97641   0.24159   0.00000  Uiso   1.00
C199   C     0.41047   0.98613   0.23153   0.00000  Uiso   1.00
C200   C     0.44716   0.94630   0.25270   0.00000  Uiso   1.00
C201   C     0.51870   0.96349   0.23867   0.00000  Uiso   1.00
C202   C     0.31372   0.04027   0.27397   0.00000  Uiso   1.00
C203   C     0.26907   0.04596   0.33084   0.00000  Uiso   1.00
C204   C     0.25915   0.10873   0.35254   0.00000  Uiso   1.00
C205   C     0.31421   0.97228   0.17641   0.00000  Uiso   1.00
C206   C     0.26994   0.92081   0.15125   0.00000  Uiso   1.00
C207   C     0.26042   0.92634   0.09083   0.00000  Uiso   1.00
H208   H     0.41993   0.12060   0.15257   0.00000  Uiso   1.00
H209   H     0.54147   0.10102   0.15718   0.00000  Uiso   1.00
H210   H     0.36340   0.20066   0.23530   0.00000  Uiso   1.00
H211   H     0.36428   0.07553   0.05574   0.00000  Uiso   1.00
H212   H     0.66143   0.05506   0.17730   0.00000  Uiso   1.00
H213   H     0.28593   0.26515   0.34201   0.00000  Uiso   1.00
H214   H     0.28778   0.00129   0.96338   0.00000  Uiso   1.00
H215   H     0.30589   0.93356   0.26806   0.00000  Uiso   1.00
H216   H     0.42118   0.90371   0.27900   0.00000  Uiso   1.00
H217   H     0.24310   0.00336   0.35712   0.00000  Uiso   1.00
H218   H     0.24398   0.87823   0.17757   0.00000  Uiso   1.00
H219   H     0.56379   0.89492   0.27618   0.00000  Uiso   1.00
H220   H     0.18829   0.10502   0.44088   0.00000  Uiso   1.00
H221   H     0.19014   0.84115   0.06226   0.00000  Uiso   1.00
O222   O     0.69050   0.95874   0.23188   0.00000  Uiso   1.00
O223   O     0.19786   0.23438   0.44795   0.00000  Uiso   1.00
O224   O     0.20029   0.88820   0.95121   0.00000  Uiso   1.00
N225   N     0.62263   0.02145   0.19906   0.00000  Uiso   1.00
N226   N     0.27157   0.21788   0.35305   0.00000  Uiso   1.00
N227   N     0.27328   0.97120   0.99907   0.00000  Uiso   1.00
N228   N     0.57009   0.93529   0.25226   0.00000  Uiso   1.00
N229   N     0.21903   0.13172   0.40626   0.00000  Uiso   1.00
N230   N     0.22075   0.88503   0.05228   0.00000  Uiso   1.00
C231   C     0.02383   0.11875   0.43130   0.00000  Uiso   1.00
C232   C     0.98775   0.13793   0.49694   0.00000  Uiso   1.00
C233   C     0.01986   0.17377   0.54363   0.00000  Uiso   1.00
C234   C     0.97777   0.18623   0.60047   0.00000  Uiso   1.00
C235   C     0.93262   0.21947   0.70090   0.00000  Uiso   1.00
C236   C     0.98970   0.14570   0.38579   0.00000  Uiso   1.00
C237   C     0.02346   0.18807   0.33904   0.00000  Uiso   1.00
C238   C     0.98302   0.20706   0.30231   0.00000  Uiso   1.00
C239   C     0.94092   0.25233   0.23015   0.00000  Uiso   1.00
C240   C     0.00369   0.04412   0.42346   0.00000  Uiso   1.00
C241   C     0.04921   0.00107   0.40835   0.00000  Uiso   1.00
C242   C     0.02054   0.93454   0.40332   0.00000  Uiso   1.00
C243   C     0.00016   0.82209   0.38964   0.00000  Uiso   1.00
C244   C     0.89198   0.07714   0.44922   0.00000  Uiso   1.00
C245   C     0.91613   0.11533   0.50667   0.00000  Uiso   1.00
C246   C     0.87398   0.12773   0.56346   0.00000  Uiso   1.00
C247   C     0.90602   0.16358   0.61023   0.00000  Uiso   1.00
C248   C     0.91809   0.12310   0.39553   0.00000  Uiso   1.00
C249   C     0.87758   0.14203   0.35886   0.00000  Uiso   1.00
C250   C     0.91127   0.18442   0.31206   0.00000  Uiso   1.00
C251   C     0.93207   0.02152   0.43319   0.00000  Uiso   1.00
C252   C     0.90333   0.95504   0.42818   0.00000  Uiso   1.00
C253   C     0.94879   0.91190   0.41307   0.00000  Uiso   1.00
H254   H     0.07959   0.13635   0.42372   0.00000  Uiso   1.00
H255   H     0.07528   0.19126   0.53608   0.00000  Uiso   1.00
H256   H     0.07889   0.20555   0.33151   0.00000  Uiso   1.00
H257   H     0.10463   0.01858   0.40082   0.00000  Uiso   1.00
H258   H     0.03892   0.24218   0.66493   0.00000  Uiso   1.00
H259   H     0.04653   0.27230   0.23358   0.00000  Uiso   1.00
H260   H     0.10081   0.87805   0.37972   0.00000  Uiso   1.00
H261   H     0.83622   0.05954   0.45680   0.00000  Uiso   1.00
H262   H     0.81856   0.11023   0.57097   0.00000  Uiso   1.00
H263   H     0.82216   0.12453   0.36640   0.00000  Uiso   1.00
H264   H     0.84790   0.93756   0.43571   0.00000  Uiso   1.00
H265   H     0.83055   0.17643   0.69325   0.00000  Uiso   1.00
H266   H     0.83816   0.20654   0.26189   0.00000  Uiso   1.00
H267   H     0.89244   0.81229   0.40804   0.00000  Uiso   1.00
O268   O     0.92751   0.24406   0.75359   0.00000  Uiso   1.00
O269   O     0.93749   0.28355   0.18767   0.00000  Uiso   1.00
O270   O     0.00870   0.76631   0.37941   0.00000  Uiso   1.00
N271   N     0.99231   0.21974   0.65593   0.00000  Uiso   1.00
N272   N     0.99942   0.24790   0.25265   0.00000  Uiso   1.00
N273   N     0.05016   0.87931   0.38926   0.00000  Uiso   1.00
N274   N     0.88019   0.18436   0.67117   0.00000  Uiso   1.00
N275   N     0.88730   0.21252   0.26788   0.00000  Uiso   1.00
N276   N     0.93804   0.84393   0.40450   0.00000  Uiso   1.00
C277   C     0.29253   0.44593   0.20258   0.00000  Uiso   1.00
C278   C     0.30044   0.47912   0.14154   0.00000  Uiso   1.00
C279   C     0.29224   0.44718   0.08383   0.00000  Uiso   1.00
C280   C     0.30168   0.48634   0.03363   0.00000  Uiso   1.00
C281   C     0.31134   0.52743   0.93774   0.00000  Uiso   1.00
C282   C     0.23817   0.47500   0.24965   0.00000  Uiso   1.00
C283   C     0.17763   0.43959   0.28284   0.00000  Uiso   1.00
C284   C     0.13465   0.47528   0.32366   0.00000  Uiso   1.00
C285   C     0.04766   0.50998   0.39565   0.00000  Uiso   1.00
C286   C     0.36043   0.47026   0.22581   0.00000  Uiso   1.00
C287   C     0.40267   0.43087   0.23897   0.00000  Uiso   1.00
C288   C     0.46262   0.46258   0.25973   0.00000  Uiso   1.00
C289   C     0.56545   0.48991   0.29470   0.00000  Uiso   1.00
C290   C     0.32385   0.57228   0.21607   0.00000  Uiso   1.00
C291   C     0.31745   0.54775   0.14887   0.00000  Uiso   1.00
C292   C     0.32690   0.58697   0.09875   0.00000  Uiso   1.00
C293   C     0.31873   0.55509   0.04097   0.00000  Uiso   1.00
C294   C     0.25518   0.54363   0.25698   0.00000  Uiso   1.00
C295   C     0.21228   0.57938   0.29776   0.00000  Uiso   1.00
C296   C     0.15169   0.54403   0.33100   0.00000  Uiso   1.00
C297   C     0.37744   0.53889   0.23313   0.00000  Uiso   1.00
C298   C     0.43733   0.57066   0.25389   0.00000  Uiso   1.00
C299   C     0.47966   0.53133   0.26707   0.00000  Uiso   1.00
H300   H     0.27928   0.39250   0.19688   0.00000  Uiso   1.00
H301   H     0.27907   0.39406   0.07818   0.00000  Uiso   1.00
H302   H     0.16448   0.38648   0.27717   0.00000  Uiso   1.00
H303   H     0.38949   0.37776   0.23329   0.00000  Uiso   1.00
H304   H     0.28632   0.42606   0.94981   0.00000  Uiso   1.00
H305   H     0.04471   0.41007   0.36940   0.00000  Uiso   1.00
H306   H     0.51918   0.39169   0.27689   0.00000  Uiso   1.00
H307   H     0.33710   0.62571   0.22178   0.00000  Uiso   1.00
H308   H     0.34007   0.64007   0.10444   0.00000  Uiso   1.00
H309   H     0.22547   0.63249   0.30342   0.00000  Uiso   1.00
H310   H     0.45048   0.62377   0.25955   0.00000  Uiso   1.00
H311   H     0.33583   0.62573   0.97112   0.00000  Uiso   1.00
H312   H     0.09421   0.60974   0.39071   0.00000  Uiso   1.00
H313   H     0.56869   0.59136   0.29820   0.00000  Uiso   1.00
O314   O     0.31196   0.53114   0.88283   0.00000  Uiso   1.00
O315   O     0.99498   0.51015   0.43332   0.00000  Uiso   1.00
O316   O     0.61748   0.48603   0.31195   0.00000  Uiso   1.00
N317   N     0.29758   0.47108   0.97092   0.00000  Uiso   1.00
N318   N     0.07168   0.45613   0.36321   0.00000  Uiso   1.00
N319   N     0.51526   0.43894   0.27674   0.00000  Uiso   1.00
N320   N     0.32422   0.57853   0.98239   0.00000  Uiso   1.00
N321   N     0.09831   0.56357   0.37468   0.00000  Uiso   1.00
N322   N     0.54190   0.54638   0.28821   0.00000  Uiso   1.00
C323   C     0.11758   0.59442   0.68162   0.00000  Uiso   1.00
C324   C     0.07865   0.53036   0.65500   0.00000  Uiso   1.00
C325   C     0.05279   0.52251   0.59981   0.00000  Uiso   1.00
C326   C     0.01873   0.45995   0.58354   0.00000  Uiso   1.00
C327   C     0.95950   0.36850   0.53647   0.00000  Uiso   1.00
C328   C     0.18647   0.58043   0.68960   0.00000  Uiso   1.00
C329   C     0.25126   0.61470   0.66350   0.00000  Uiso   1.00
C330   C     0.30796   0.59430   0.67636   0.00000  Uiso   1.00
C331   C     0.41612   0.58062   0.68303   0.00000  Uiso   1.00
C332   C     0.07771   0.60589   0.74773   0.00000  Uiso   1.00
C333   C     0.05107   0.66156   0.77052   0.00000  Uiso   1.00
C334   C     0.01621   0.66259   0.83234   0.00000  Uiso   1.00
C335   C     0.95551   0.68844   0.92928   0.00000  Uiso   1.00
C336   C     0.10308   0.49727   0.75089   0.00000  Uiso   1.00
C337   C     0.07077   0.47759   0.69263   0.00000  Uiso   1.00
C338   C     0.03674   0.41503   0.67644   0.00000  Uiso   1.00
C339   C     0.01083   0.40709   0.62123   0.00000  Uiso   1.00
C340   C     0.17859   0.52767   0.72722   0.00000  Uiso   1.00
C341   C     0.23521   0.50722   0.74013   0.00000  Uiso   1.00
C342   C     0.30007   0.54144   0.71405   0.00000  Uiso   1.00
C343   C     0.06982   0.55312   0.78536   0.00000  Uiso   1.00
C344   C     0.03501   0.55407   0.84715   0.00000  Uiso   1.00
C345   C     0.00832   0.60973   0.87003   0.00000  Uiso   1.00
H346   H     0.12372   0.63550   0.65234   0.00000  Uiso   1.00
H347   H     0.05890   0.56336   0.57070   0.00000  Uiso   1.00
H348   H     0.25734   0.65553   0.63439   0.00000  Uiso   1.00
H349   H     0.05717   0.70238   0.74140   0.00000  Uiso   1.00
H350   H     0.98359   0.46010   0.49678   0.00000  Uiso   1.00
H351   H     0.40200   0.65447   0.63108   0.00000  Uiso   1.00
H352   H     0.97991   0.75326   0.85673   0.00000  Uiso   1.00
H353   H     0.09695   0.45619   0.78018   0.00000  Uiso   1.00
H354   H     0.03065   0.37421   0.70556   0.00000  Uiso   1.00
H355   H     0.22909   0.46638   0.76925   0.00000  Uiso   1.00
H356   H     0.02893   0.51323   0.87625   0.00000  Uiso   1.00
H357   H     0.96066   0.30658   0.60623   0.00000  Uiso   1.00
H358   H     0.37908   0.50095   0.74054   0.00000  Uiso   1.00
H359   H     0.95699   0.59974   0.96618   0.00000  Uiso   1.00
O360   O     0.92902   0.33264   0.50010   0.00000  Uiso   1.00
O361   O     0.47796   0.58766   0.67631   0.00000  Uiso   1.00
O362   O     0.92419   0.71727   0.97235   0.00000  Uiso   1.00
N363   N     0.98727   0.43522   0.53279   0.00000  Uiso   1.00
N364   N     0.37847   0.61694   0.65834   0.00000  Uiso   1.00
N365   N     0.98387   0.70931   0.86931   0.00000  Uiso   1.00
N366   N     0.97494   0.35261   0.59168   0.00000  Uiso   1.00
N367   N     0.36613   0.53433   0.71724   0.00000  Uiso   1.00
N368   N     0.97153   0.62670   0.92820   0.00000  Uiso   1.00
C369   C     0.55867   0.12356   0.50737   0.00000  Uiso   1.00
C370   C     0.57761   0.05996   0.47496   0.00000  Uiso   1.00
C371   C     0.54555   0.99693   0.49214   0.00000  Uiso   1.00
C372   C     0.57049   0.94517   0.45652   0.00000  Uiso   1.00
C373   C     0.59152   0.84474   0.41392   0.00000  Uiso   1.00
C374   C     0.54325   0.16053   0.45662   0.00000  Uiso   1.00
C375   C     0.48231   0.18206   0.45837   0.00000  Uiso   1.00
C376   C     0.47833   0.21497   0.40731   0.00000  Uiso   1.00
C377   C     0.44603   0.27072   0.33626   0.00000  Uiso   1.00
C378   C     0.62455   0.16402   0.52625   0.00000  Uiso   1.00
C379   C     0.63196   0.18852   0.58656   0.00000  Uiso   1.00
C380   C     0.69642   0.22438   0.59412   0.00000  Uiso   1.00
C381   C     0.79035   0.28556   0.63119   0.00000  Uiso   1.00
C382   C     0.65997   0.14372   0.41357   0.00000  Uiso   1.00
C383   C     0.63264   0.07091   0.42401   0.00000  Uiso   1.00
C384   C     0.65763   0.01923   0.38836   0.00000  Uiso   1.00
C385   C     0.62562   0.95614   0.40548   0.00000  Uiso   1.00
C386   C     0.59827   0.17147   0.40567   0.00000  Uiso   1.00
C387   C     0.59439   0.20436   0.35460   0.00000  Uiso   1.00
C388   C     0.53345   0.22594   0.35627   0.00000  Uiso   1.00
C389   C     0.67958   0.17497   0.47531   0.00000  Uiso   1.00
C390   C     0.74404   0.21081   0.48278   0.00000  Uiso   1.00
C391   C     0.75154   0.23535   0.54308   0.00000  Uiso   1.00
H392   H     0.51583   0.11504   0.54704   0.00000  Uiso   1.00
H393   H     0.50297   0.98848   0.53157   0.00000  Uiso   1.00
H394   H     0.43974   0.17359   0.49781   0.00000  Uiso   1.00
H395   H     0.58937   0.18003   0.62597   0.00000  Uiso   1.00
H396   H     0.51296   0.85298   0.49193   0.00000  Uiso   1.00
H397   H     0.37964   0.24332   0.42076   0.00000  Uiso   1.00
H398   H     0.69516   0.25691   0.69103   0.00000  Uiso   1.00
H399   H     0.70281   0.15225   0.37391   0.00000  Uiso   1.00
H400   H     0.70021   0.02772   0.34893   0.00000  Uiso   1.00
H401   H     0.63698   0.21283   0.31518   0.00000  Uiso   1.00
H402   H     0.78661   0.21928   0.44334   0.00000  Uiso   1.00
H403   H     0.67305   0.88483   0.34370   0.00000  Uiso   1.00
H404   H     0.53973   0.27517   0.27253   0.00000  Uiso   1.00
H405   H     0.85525   0.28876   0.54279   0.00000  Uiso   1.00
O406   O     0.58791   0.78632   0.40450   0.00000  Uiso   1.00
O407   O     0.41301   0.29843   0.31114   0.00000  Uiso   1.00
O408   O     0.82696   0.31627   0.66571   0.00000  Uiso   1.00
N409   N     0.55100   0.87757   0.46048   0.00000  Uiso   1.00
N410   N     0.42635   0.24250   0.39394   0.00000  Uiso   1.00
N411   N     0.72134   0.25523   0.64661   0.00000  Uiso   1.00
N412   N     0.63715   0.89471   0.38072   0.00000  Uiso   1.00
N413   N     0.51250   0.25964   0.31418   0.00000  Uiso   1.00
N414   N     0.80748   0.27236   0.56685   0.00000  Uiso   1.00
C415   C     0.80094   0.65091   0.12308   0.00000  Uiso   1.00
C416   C     0.78473   0.57653   0.12756   0.00000  Uiso   1.00
C417   C     0.78280   0.53027   0.07729   0.00000  Uiso   1.00
C418   C     0.76695   0.46460   0.09120   0.00000  Uiso   1.00
C419   C     0.74379   0.35195   0.08873   0.00000  Uiso   1.00
C420   C     0.73944   0.67592   0.16341   0.00000  Uiso   1.00
C421   C     0.69945   0.71323   0.14328   0.00000  Uiso   1.00
C422   C     0.64548   0.73123   0.18737   0.00000  Uiso   1.00
C423   C     0.55204   0.77292   0.24057   0.00000  Uiso   1.00
C424   C     0.86169   0.67674   0.15645   0.00000  Uiso   1.00
C425   C     0.92448   0.71475   0.13048   0.00000  Uiso   1.00
C426   C     0.97343   0.73346   0.16871   0.00000  Uiso   1.00
C427   C     0.06981   0.77642   0.21111   0.00000  Uiso   1.00
C428   C     0.77622   0.61657   0.23717   0.00000  Uiso   1.00
C429   C     0.77131   0.55788   0.18953   0.00000  Uiso   1.00
C430   C     0.75546   0.49227   0.20352   0.00000  Uiso   1.00
C431   C     0.75351   0.44591   0.15327   0.00000  Uiso   1.00
C432   C     0.72602   0.65727   0.22538   0.00000  Uiso   1.00
C433   C     0.67210   0.67523   0.26951   0.00000  Uiso   1.00
C434   C     0.63203   0.71254   0.24945   0.00000  Uiso   1.00
C435   C     0.84827   0.65808   0.21842   0.00000  Uiso   1.00
C436   C     0.89714   0.67674   0.25671   0.00000  Uiso   1.00
C437   C     0.95999   0.71477   0.23079   0.00000  Uiso   1.00
H438   H     0.81138   0.66544   0.07484   0.00000  Uiso   1.00
H439   H     0.79319   0.54473   0.02934   0.00000  Uiso   1.00
H440   H     0.70985   0.72766   0.09533   0.00000  Uiso   1.00
H441   H     0.93485   0.72918   0.08253   0.00000  Uiso   1.00
H442   H     0.76706   0.40267   0.00623   0.00000  Uiso   1.00
H443   H     0.59136   0.78841   0.14536   0.00000  Uiso   1.00
H444   H     0.06581   0.79162   0.11837   0.00000  Uiso   1.00
H445   H     0.76577   0.60204   0.28542   0.00000  Uiso   1.00
H446   H     0.74507   0.47785   0.25148   0.00000  Uiso   1.00
H447   H     0.66173   0.66078   0.31746   0.00000  Uiso   1.00
H448   H     0.88673   0.66230   0.30466   0.00000  Uiso   1.00
H449   H     0.72801   0.34838   0.18652   0.00000  Uiso   1.00
H450   H     0.55230   0.73414   0.32566   0.00000  Uiso   1.00
H451   H     0.02676   0.73733   0.29866   0.00000  Uiso   1.00
O452   O     0.73472   0.29497   0.07025   0.00000  Uiso   1.00
O453   O     0.50421   0.80107   0.25279   0.00000  Uiso   1.00
O454   O     0.12668   0.80526   0.21738   0.00000  Uiso   1.00
N455   N     0.76073   0.40693   0.05332   0.00000  Uiso   1.00
N456   N     0.59645   0.76758   0.18340   0.00000  Uiso   1.00
N457   N     0.04002   0.77059   0.15817   0.00000  Uiso   1.00
N458   N     0.73971   0.37773   0.15033   0.00000  Uiso   1.00
N459   N     0.57543   0.73837   0.28041   0.00000  Uiso   1.00
N460   N     0.01900   0.74138   0.25518   0.00000  Uiso   1.00
C461   C     0.67269   0.96678   0.92225   0.00000  Uiso   1.00
C462   C     0.61507   0.00202   0.91762   0.00000  Uiso   1.00
C463   C     0.54520   0.97425   0.92619   0.00000  Uiso   1.00
C464   C     0.50071   0.01467   0.91995   0.00000  Uiso   1.00
C465   C     0.40750   0.05936   0.91491   0.00000  Uiso   1.00
C466   C     0.72301   0.97446   0.85977   0.00000  Uiso   1.00
C467   C     0.74388   0.92352   0.81970   0.00000  Uiso   1.00
C468   C     0.79026   0.94075   0.76476   0.00000  Uiso   1.00
C469   C     0.86466   0.94267   0.66992   0.00000  Uiso   1.00
C470   C     0.71101   0.00689   0.97131   0.00000  Uiso   1.00
C471   C     0.72182   0.98322   0.02502   0.00000  Uiso   1.00
C472   C     0.75811   0.02775   0.06399   0.00000  Uiso   1.00
C473   C     0.81389   0.08002   0.14234   0.00000  Uiso   1.00
C474   C     0.71794   0.08795   0.89593   0.00000  Uiso   1.00
C475   C     0.63965   0.06783   0.90332   0.00000  Uiso   1.00
C476   C     0.59526   0.10831   0.89707   0.00000  Uiso   1.00
C477   C     0.52532   0.08060   0.90563   0.00000  Uiso   1.00
C478   C     0.74758   0.04027   0.84547   0.00000  Uiso   1.00
C479   C     0.79394   0.05758   0.79058   0.00000  Uiso   1.00
C480   C     0.81488   0.00669   0.75044   0.00000  Uiso   1.00
C481   C     0.73559   0.07271   0.95702   0.00000  Uiso   1.00
C482   C     0.77188   0.11728   0.99591   0.00000  Uiso   1.00
C483   C     0.78273   0.09369   0.04967   0.00000  Uiso   1.00
H484   H     0.65356   0.91554   0.93337   0.00000  Uiso   1.00
H485   H     0.52620   0.92331   0.93724   0.00000  Uiso   1.00
H486   H     0.72486   0.87260   0.83077   0.00000  Uiso   1.00
H487   H     0.70279   0.93229   0.03607   0.00000  Uiso   1.00
H488   H     0.39583   0.96094   0.93521   0.00000  Uiso   1.00
H489   H     0.81474   0.85401   0.71072   0.00000  Uiso   1.00
H490   H     0.76821   0.97988   0.14363   0.00000  Uiso   1.00
H491   H     0.73708   0.13919   0.88480   0.00000  Uiso   1.00
H492   H     0.61429   0.15924   0.88601   0.00000  Uiso   1.00
H493   H     0.81295   0.10852   0.77954   0.00000  Uiso   1.00
H494   H     0.79089   0.16821   0.98483   0.00000  Uiso   1.00
H495   H     0.46733   0.15243   0.89362   0.00000  Uiso   1.00
H496   H     0.88624   0.04550   0.66913   0.00000  Uiso   1.00
H497   H     0.83971   0.17137   0.10204   0.00000  Uiso   1.00
O498   O     0.34930   0.06583   0.91607   0.00000  Uiso   1.00
O499   O     0.89890   0.92554   0.62155   0.00000  Uiso   1.00
O500   O     0.83786   0.09068   0.18951   0.00000  Uiso   1.00
N501   N     0.42951   0.00326   0.92527   0.00000  Uiso   1.00
N502   N     0.82115   0.90329   0.71538   0.00000  Uiso   1.00
N503   N     0.77767   0.02096   0.12010   0.00000  Uiso   1.00
N504   N     0.46798   0.10630   0.90289   0.00000  Uiso   1.00
N505   N     0.85963   0.00632   0.69300   0.00000  Uiso   1.00
N506   N     0.81614   0.12400   0.09772   0.00000  Uiso   1.00
C507   C     0.03816   0.01046   0.77297   0.00000  Uiso   1.00
C508   C     0.06502   0.96617   0.71771   0.00000  Uiso   1.00
C509   C     0.05488   0.96616   0.65662   0.00000  Uiso   1.00
C510   C     0.08360   0.92188   0.61285   0.00000  Uiso   1.00
C511   C     0.11956   0.85958   0.52450   0.00000  Uiso   1.00
C512   C     0.99548   0.96463   0.82308   0.00000  Uiso   1.00
C513   C     0.92688   0.96333   0.85058   0.00000  Uiso   1.00
C514   C     0.89708   0.91777   0.89551   0.00000  Uiso   1.00
C515   C     0.82510   0.85312   0.97078   0.00000  Uiso   1.00
C516   C     0.10131   0.04671   0.79929   0.00000  Uiso   1.00
C517   C     0.12168   0.11442   0.80682   0.00000  Uiso   1.00
C518   C     0.18097   0.13796   0.83173   0.00000  Uiso   1.00
C519   C     0.27330   0.20074   0.87007   0.00000  Uiso   1.00
C520   C     0.10721   0.93186   0.80386   0.00000  Uiso   1.00
C521   C     0.10252   0.92348   0.73449   0.00000  Uiso   1.00
C522   C     0.13127   0.87920   0.69080   0.00000  Uiso   1.00
C523   C     0.12118   0.87912   0.62965   0.00000  Uiso   1.00
C524   C     0.03298   0.92194   0.83986   0.00000  Uiso   1.00
C525   C     0.00328   0.87637   0.88476   0.00000  Uiso   1.00
C526   C     0.93465   0.87500   0.91232   0.00000  Uiso   1.00
C527   C     0.13881   0.00402   0.81607   0.00000  Uiso   1.00
C528   C     0.19808   0.02746   0.84099   0.00000  Uiso   1.00
C529   C     0.21854   0.09519   0.84854   0.00000  Uiso   1.00
H530   H     0.00896   0.04369   0.75991   0.00000  Uiso   1.00
H531   H     0.02584   0.99920   0.64366   0.00000  Uiso   1.00
H532   H     0.89788   0.99638   0.83759   0.00000  Uiso   1.00
H533   H     0.09264   0.14744   0.79383   0.00000  Uiso   1.00
H534   H     0.06108   0.93102   0.52217   0.00000  Uiso   1.00
H535   H     0.79126   0.92509   0.93111   0.00000  Uiso   1.00
H536   H     0.20196   0.24364   0.83883   0.00000  Uiso   1.00
H537   H     0.13641   0.89862   0.81693   0.00000  Uiso   1.00
H538   H     0.16029   0.84616   0.70380   0.00000  Uiso   1.00
H539   H     0.03232   0.84335   0.89773   0.00000  Uiso   1.00
H540   H     0.22709   0.99441   0.85397   0.00000  Uiso   1.00
H541   H     0.17020   0.80681   0.57098   0.00000  Uiso   1.00
H542   H     0.90038   0.80089   0.97993   0.00000  Uiso   1.00
H543   H     0.31108   0.11943   0.88764   0.00000  Uiso   1.00
O544   O     0.12903   0.83701   0.47113   0.00000  Uiso   1.00
O545   O     0.77504   0.82924   0.00765   0.00000  Uiso   1.00
O546   O     0.31387   0.24717   0.88657   0.00000  Uiso   1.00
N547   N     0.08350   0.90900   0.54918   0.00000  Uiso   1.00
N548   N     0.83122   0.90345   0.93151   0.00000  Uiso   1.00
N549   N     0.21519   0.20126   0.84525   0.00000  Uiso   1.00
N550   N     0.14221   0.84216   0.57545   0.00000  Uiso   1.00
N551   N     0.88994   0.83661   0.95778   0.00000  Uiso   1.00
N552   N     0.27391   0.13442   0.87151   0.00000  Uiso   1.00
