data_job_02910
_audit_creation_date              2018-12-19
_audit_creation_method            'Materials Studio'
_symmetry_space_group_name_H-M    'P1'
_symmetry_Int_Tables_number       1
_symmetry_cell_setting            triclinic
loop_
_symmetry_equiv_pos_as_xyz
  x,y,z
_cell_length_a                    11.5499
_cell_length_b                    21.9985
_cell_length_c                    26.7299
_cell_angle_alpha                 90.0000
_cell_angle_beta                  117.0097
_cell_angle_gamma                 90.0000
loop_
_atom_site_label
_atom_site_type_symbol
_atom_site_fract_x
_atom_site_fract_y
_atom_site_fract_z
_atom_site_U_iso_or_equiv
_atom_site_adp_type
_atom_site_occupancy
C1     C     0.38232   0.84905   0.84411   0.00000  Uiso   1.00
C2     C     0.38022   0.78016   0.83741   0.00000  Uiso   1.00
C3     C     0.37029   0.74923   0.79038   0.00000  Uiso   1.00
C4     C     0.37004   0.68617   0.79250   0.00000  Uiso   1.00
C5     C     0.36530   0.58391   0.77487   0.00000  Uiso   1.00
C6     C     0.27127   0.86425   0.85797   0.00000  Uiso   1.00
C7     C     0.16975   0.90403   0.82822   0.00000  Uiso   1.00
C8     C     0.07779   0.91177   0.84765   0.00000  Uiso   1.00
C9     C     0.90395   0.94009   0.86195   0.00000  Uiso   1.00
C10    C     0.50723   0.86369   0.89685   0.00000  Uiso   1.00
C11    C     0.60410   0.90301   0.89980   0.00000  Uiso   1.00
C12    C     0.71079   0.91029   0.95196   0.00000  Uiso   1.00
C13    C     0.90332   0.93775   0.02663   0.00000  Uiso   1.00
C14    C     0.39953   0.79207   0.93152   0.00000  Uiso   1.00
C15    C     0.38957   0.74921   0.88489   0.00000  Uiso   1.00
C16    C     0.38933   0.68618   0.88708   0.00000  Uiso   1.00
C17    C     0.37941   0.65516   0.84006   0.00000  Uiso   1.00
C18    C     0.28062   0.83330   0.90544   0.00000  Uiso   1.00
C19    C     0.18879   0.84099   0.92492   0.00000  Uiso   1.00
C20    C     0.08715   0.88076   0.89521   0.00000  Uiso   1.00
C21    C     0.51659   0.83274   0.94433   0.00000  Uiso   1.00
C22    C     0.62314   0.83996   0.99650   0.00000  Uiso   1.00
C23    C     0.72015   0.87928   0.99953   0.00000  Uiso   1.00
H24    H     0.37503   0.87315   0.80715   0.00000  Uiso   1.00
H25    H     0.36304   0.77320   0.75364   0.00000  Uiso   1.00
H26    H     0.16255   0.92798   0.79148   0.00000  Uiso   1.00
H27    H     0.59683   0.92696   0.86305   0.00000  Uiso   1.00
H28    H     0.35383   0.64873   0.71525   0.00000  Uiso   1.00
H29    H     0.93109   0.97511   0.79505   0.00000  Uiso   1.00
H30    H     0.84686   0.97296   0.94596   0.00000  Uiso   1.00
H31    H     0.40680   0.76797   0.96848   0.00000  Uiso   1.00
H32    H     0.39657   0.66225   0.92383   0.00000  Uiso   1.00
H33    H     0.19606   0.81703   0.96167   0.00000  Uiso   1.00
H34    H     0.63034   0.81601   0.03323   0.00000  Uiso   1.00
H35    H     0.38104   0.55868   0.85338   0.00000  Uiso   1.00
H36    H     0.95829   0.88507   0.93317   0.00000  Uiso   1.00
H37    H     0.87406   0.88291   0.08408   0.00000  Uiso   1.00
O38    O     0.36008   0.53605   0.75202   0.00000  Uiso   1.00
O39    O     0.80548   0.96426   0.85672   0.00000  Uiso   1.00
O40    O     0.00694   0.96143   0.05470   0.00000  Uiso   1.00
N41    N     0.36167   0.64205   0.75389   0.00000  Uiso   1.00
N42    N     0.96641   0.94719   0.82849   0.00000  Uiso   1.00
N43    N     0.82257   0.94519   0.96958   0.00000  Uiso   1.00
N44    N     0.37631   0.59359   0.82822   0.00000  Uiso   1.00
N45    N     0.98105   0.89873   0.90282   0.00000  Uiso   1.00
N46    N     0.83721   0.89673   0.04391   0.00000  Uiso   1.00
C47    C     0.88232   0.34905   0.84411   0.00000  Uiso   1.00
C48    C     0.88022   0.28016   0.83741   0.00000  Uiso   1.00
C49    C     0.87029   0.24923   0.79038   0.00000  Uiso   1.00
C50    C     0.87004   0.18617   0.79250   0.00000  Uiso   1.00
C51    C     0.86530   0.08391   0.77487   0.00000  Uiso   1.00
C52    C     0.77127   0.36425   0.85797   0.00000  Uiso   1.00
C53    C     0.66975   0.40403   0.82822   0.00000  Uiso   1.00
C54    C     0.57779   0.41177   0.84765   0.00000  Uiso   1.00
C55    C     0.40395   0.44009   0.86195   0.00000  Uiso   1.00
C56    C     0.00723   0.36369   0.89685   0.00000  Uiso   1.00
C57    C     0.10410   0.40301   0.89980   0.00000  Uiso   1.00
C58    C     0.21079   0.41029   0.95196   0.00000  Uiso   1.00
C59    C     0.40332   0.43775   0.02663   0.00000  Uiso   1.00
C60    C     0.89953   0.29207   0.93152   0.00000  Uiso   1.00
C61    C     0.88957   0.24921   0.88489   0.00000  Uiso   1.00
C62    C     0.88933   0.18618   0.88708   0.00000  Uiso   1.00
C63    C     0.87941   0.15516   0.84006   0.00000  Uiso   1.00
C64    C     0.78062   0.33330   0.90544   0.00000  Uiso   1.00
C65    C     0.68879   0.34099   0.92492   0.00000  Uiso   1.00
C66    C     0.58715   0.38076   0.89521   0.00000  Uiso   1.00
C67    C     0.01659   0.33274   0.94433   0.00000  Uiso   1.00
C68    C     0.12314   0.33996   0.99650   0.00000  Uiso   1.00
C69    C     0.22015   0.37928   0.99953   0.00000  Uiso   1.00
H70    H     0.87503   0.37315   0.80715   0.00000  Uiso   1.00
H71    H     0.86304   0.27320   0.75364   0.00000  Uiso   1.00
H72    H     0.66255   0.42798   0.79148   0.00000  Uiso   1.00
H73    H     0.09683   0.42696   0.86305   0.00000  Uiso   1.00
H74    H     0.85383   0.14873   0.71525   0.00000  Uiso   1.00
H75    H     0.43109   0.47511   0.79505   0.00000  Uiso   1.00
H76    H     0.34686   0.47296   0.94596   0.00000  Uiso   1.00
H77    H     0.90680   0.26797   0.96848   0.00000  Uiso   1.00
H78    H     0.89657   0.16225   0.92383   0.00000  Uiso   1.00
H79    H     0.69606   0.31703   0.96167   0.00000  Uiso   1.00
H80    H     0.13034   0.31601   0.03323   0.00000  Uiso   1.00
H81    H     0.88104   0.05868   0.85338   0.00000  Uiso   1.00
H82    H     0.45829   0.38507   0.93317   0.00000  Uiso   1.00
H83    H     0.37406   0.38291   0.08408   0.00000  Uiso   1.00
O84    O     0.86008   0.03605   0.75202   0.00000  Uiso   1.00
O85    O     0.30548   0.46426   0.85672   0.00000  Uiso   1.00
O86    O     0.50694   0.46143   0.05470   0.00000  Uiso   1.00
N87    N     0.86167   0.14205   0.75389   0.00000  Uiso   1.00
N88    N     0.46641   0.44719   0.82849   0.00000  Uiso   1.00
N89    N     0.32257   0.44519   0.96958   0.00000  Uiso   1.00
N90    N     0.87631   0.09359   0.82822   0.00000  Uiso   1.00
N91    N     0.48105   0.39873   0.90282   0.00000  Uiso   1.00
N92    N     0.33721   0.39673   0.04391   0.00000  Uiso   1.00
C93    C     0.61768   0.84905   0.65589   0.00000  Uiso   1.00
C94    C     0.61978   0.78016   0.66259   0.00000  Uiso   1.00
C95    C     0.62971   0.74923   0.70962   0.00000  Uiso   1.00
C96    C     0.62996   0.68617   0.70750   0.00000  Uiso   1.00
C97    C     0.63470   0.58391   0.72513   0.00000  Uiso   1.00
C98    C     0.72873   0.86425   0.64203   0.00000  Uiso   1.00
C99    C     0.83025   0.90403   0.67178   0.00000  Uiso   1.00
C100   C     0.92221   0.91177   0.65235   0.00000  Uiso   1.00
C101   C     0.09605   0.94009   0.63805   0.00000  Uiso   1.00
C102   C     0.49277   0.86369   0.60315   0.00000  Uiso   1.00
C103   C     0.39590   0.90301   0.60020   0.00000  Uiso   1.00
C104   C     0.28921   0.91029   0.54804   0.00000  Uiso   1.00
C105   C     0.09668   0.93775   0.47337   0.00000  Uiso   1.00
C106   C     0.60047   0.79207   0.56848   0.00000  Uiso   1.00
C107   C     0.61043   0.74921   0.61511   0.00000  Uiso   1.00
C108   C     0.61067   0.68618   0.61292   0.00000  Uiso   1.00
C109   C     0.62059   0.65516   0.65994   0.00000  Uiso   1.00
C110   C     0.71938   0.83330   0.59456   0.00000  Uiso   1.00
C111   C     0.81121   0.84099   0.57508   0.00000  Uiso   1.00
C112   C     0.91285   0.88076   0.60479   0.00000  Uiso   1.00
C113   C     0.48341   0.83274   0.55567   0.00000  Uiso   1.00
C114   C     0.37686   0.83996   0.50350   0.00000  Uiso   1.00
C115   C     0.27985   0.87928   0.50047   0.00000  Uiso   1.00
H116   H     0.62497   0.87315   0.69285   0.00000  Uiso   1.00
H117   H     0.63696   0.77320   0.74636   0.00000  Uiso   1.00
H118   H     0.83745   0.92798   0.70852   0.00000  Uiso   1.00
H119   H     0.40317   0.92696   0.63695   0.00000  Uiso   1.00
H120   H     0.64617   0.64873   0.78475   0.00000  Uiso   1.00
H121   H     0.06891   0.97511   0.70495   0.00000  Uiso   1.00
H122   H     0.15314   0.97296   0.55404   0.00000  Uiso   1.00
H123   H     0.59320   0.76797   0.53152   0.00000  Uiso   1.00
H124   H     0.60343   0.66225   0.57617   0.00000  Uiso   1.00
H125   H     0.80394   0.81703   0.53833   0.00000  Uiso   1.00
H126   H     0.36966   0.81601   0.46677   0.00000  Uiso   1.00
H127   H     0.61896   0.55868   0.64662   0.00000  Uiso   1.00
H128   H     0.04171   0.88507   0.56683   0.00000  Uiso   1.00
H129   H     0.12594   0.88291   0.41592   0.00000  Uiso   1.00
O130   O     0.63992   0.53605   0.74798   0.00000  Uiso   1.00
O131   O     0.19452   0.96426   0.64328   0.00000  Uiso   1.00
O132   O     0.99306   0.96143   0.44530   0.00000  Uiso   1.00
N133   N     0.63833   0.64205   0.74611   0.00000  Uiso   1.00
N134   N     0.03359   0.94719   0.67151   0.00000  Uiso   1.00
N135   N     0.17743   0.94519   0.53042   0.00000  Uiso   1.00
N136   N     0.62369   0.59359   0.67178   0.00000  Uiso   1.00
N137   N     0.01895   0.89873   0.59718   0.00000  Uiso   1.00
N138   N     0.16279   0.89673   0.45609   0.00000  Uiso   1.00
C139   C     0.11768   0.34905   0.65589   0.00000  Uiso   1.00
C140   C     0.11978   0.28016   0.66259   0.00000  Uiso   1.00
C141   C     0.12971   0.24923   0.70962   0.00000  Uiso   1.00
C142   C     0.12996   0.18617   0.70750   0.00000  Uiso   1.00
C143   C     0.13470   0.08391   0.72513   0.00000  Uiso   1.00
C144   C     0.22873   0.36425   0.64203   0.00000  Uiso   1.00
C145   C     0.33025   0.40403   0.67178   0.00000  Uiso   1.00
C146   C     0.42221   0.41177   0.65235   0.00000  Uiso   1.00
C147   C     0.59605   0.44009   0.63805   0.00000  Uiso   1.00
C148   C     0.99277   0.36369   0.60315   0.00000  Uiso   1.00
C149   C     0.89590   0.40301   0.60020   0.00000  Uiso   1.00
C150   C     0.78921   0.41029   0.54804   0.00000  Uiso   1.00
C151   C     0.59668   0.43775   0.47337   0.00000  Uiso   1.00
C152   C     0.10047   0.29207   0.56848   0.00000  Uiso   1.00
C153   C     0.11043   0.24921   0.61511   0.00000  Uiso   1.00
C154   C     0.11067   0.18618   0.61292   0.00000  Uiso   1.00
C155   C     0.12059   0.15516   0.65994   0.00000  Uiso   1.00
C156   C     0.21938   0.33330   0.59456   0.00000  Uiso   1.00
C157   C     0.31121   0.34099   0.57508   0.00000  Uiso   1.00
C158   C     0.41285   0.38076   0.60479   0.00000  Uiso   1.00
C159   C     0.98341   0.33274   0.55567   0.00000  Uiso   1.00
C160   C     0.87686   0.33996   0.50350   0.00000  Uiso   1.00
C161   C     0.77985   0.37928   0.50047   0.00000  Uiso   1.00
H162   H     0.12497   0.37315   0.69285   0.00000  Uiso   1.00
H163   H     0.13696   0.27320   0.74636   0.00000  Uiso   1.00
H164   H     0.33745   0.42798   0.70852   0.00000  Uiso   1.00
H165   H     0.90317   0.42696   0.63695   0.00000  Uiso   1.00
H166   H     0.14617   0.14873   0.78475   0.00000  Uiso   1.00
H167   H     0.56891   0.47511   0.70495   0.00000  Uiso   1.00
H168   H     0.65314   0.47296   0.55404   0.00000  Uiso   1.00
H169   H     0.09320   0.26797   0.53152   0.00000  Uiso   1.00
H170   H     0.10343   0.16225   0.57617   0.00000  Uiso   1.00
H171   H     0.30394   0.31703   0.53833   0.00000  Uiso   1.00
H172   H     0.86966   0.31601   0.46677   0.00000  Uiso   1.00
H173   H     0.11896   0.05868   0.64662   0.00000  Uiso   1.00
H174   H     0.54171   0.38507   0.56683   0.00000  Uiso   1.00
H175   H     0.62594   0.38291   0.41592   0.00000  Uiso   1.00
O176   O     0.13992   0.03605   0.74798   0.00000  Uiso   1.00
O177   O     0.69452   0.46426   0.64328   0.00000  Uiso   1.00
O178   O     0.49306   0.46143   0.44530   0.00000  Uiso   1.00
N179   N     0.13833   0.14205   0.74611   0.00000  Uiso   1.00
N180   N     0.53359   0.44719   0.67151   0.00000  Uiso   1.00
N181   N     0.67743   0.44519   0.53042   0.00000  Uiso   1.00
N182   N     0.12369   0.09359   0.67178   0.00000  Uiso   1.00
N183   N     0.51895   0.39873   0.59718   0.00000  Uiso   1.00
N184   N     0.66279   0.39673   0.45609   0.00000  Uiso   1.00
C185   C     0.61768   0.15095   0.15589   0.00000  Uiso   1.00
C186   C     0.61978   0.21984   0.16259   0.00000  Uiso   1.00
C187   C     0.62971   0.25077   0.20962   0.00000  Uiso   1.00
C188   C     0.62996   0.31383   0.20750   0.00000  Uiso   1.00
C189   C     0.63470   0.41609   0.22513   0.00000  Uiso   1.00
C190   C     0.72873   0.13575   0.14203   0.00000  Uiso   1.00
C191   C     0.83025   0.09597   0.17178   0.00000  Uiso   1.00
C192   C     0.92221   0.08823   0.15235   0.00000  Uiso   1.00
C193   C     0.09605   0.05991   0.13805   0.00000  Uiso   1.00
C194   C     0.49277   0.13631   0.10315   0.00000  Uiso   1.00
C195   C     0.39590   0.09699   0.10020   0.00000  Uiso   1.00
C196   C     0.28921   0.08971   0.04804   0.00000  Uiso   1.00
C197   C     0.09668   0.06225   0.97337   0.00000  Uiso   1.00
C198   C     0.60047   0.20793   0.06848   0.00000  Uiso   1.00
C199   C     0.61043   0.25079   0.11511   0.00000  Uiso   1.00
C200   C     0.61067   0.31382   0.11292   0.00000  Uiso   1.00
C201   C     0.62059   0.34484   0.15994   0.00000  Uiso   1.00
C202   C     0.71938   0.16670   0.09456   0.00000  Uiso   1.00
C203   C     0.81121   0.15901   0.07508   0.00000  Uiso   1.00
C204   C     0.91285   0.11924   0.10479   0.00000  Uiso   1.00
C205   C     0.48341   0.16726   0.05567   0.00000  Uiso   1.00
C206   C     0.37686   0.16004   0.00350   0.00000  Uiso   1.00
C207   C     0.27985   0.12072   0.00047   0.00000  Uiso   1.00
H208   H     0.62497   0.12685   0.19285   0.00000  Uiso   1.00
H209   H     0.63696   0.22680   0.24636   0.00000  Uiso   1.00
H210   H     0.83745   0.07202   0.20852   0.00000  Uiso   1.00
H211   H     0.40317   0.07304   0.13695   0.00000  Uiso   1.00
H212   H     0.64617   0.35127   0.28475   0.00000  Uiso   1.00
H213   H     0.06891   0.02489   0.20495   0.00000  Uiso   1.00
H214   H     0.15314   0.02704   0.05404   0.00000  Uiso   1.00
H215   H     0.59320   0.23203   0.03152   0.00000  Uiso   1.00
H216   H     0.60343   0.33775   0.07617   0.00000  Uiso   1.00
H217   H     0.80394   0.18297   0.03833   0.00000  Uiso   1.00
H218   H     0.36966   0.18399   0.96677   0.00000  Uiso   1.00
H219   H     0.61896   0.44132   0.14662   0.00000  Uiso   1.00
H220   H     0.04171   0.11493   0.06683   0.00000  Uiso   1.00
H221   H     0.12594   0.11709   0.91592   0.00000  Uiso   1.00
O222   O     0.63992   0.46395   0.24798   0.00000  Uiso   1.00
O223   O     0.19452   0.03574   0.14328   0.00000  Uiso   1.00
O224   O     0.99306   0.03857   0.94530   0.00000  Uiso   1.00
N225   N     0.63833   0.35795   0.24611   0.00000  Uiso   1.00
N226   N     0.03359   0.05281   0.17151   0.00000  Uiso   1.00
N227   N     0.17743   0.05481   0.03042   0.00000  Uiso   1.00
N228   N     0.62369   0.40641   0.17178   0.00000  Uiso   1.00
N229   N     0.01895   0.10127   0.09718   0.00000  Uiso   1.00
N230   N     0.16279   0.10327   0.95609   0.00000  Uiso   1.00
C231   C     0.11768   0.65095   0.15589   0.00000  Uiso   1.00
C232   C     0.11978   0.71984   0.16259   0.00000  Uiso   1.00
C233   C     0.12971   0.75077   0.20962   0.00000  Uiso   1.00
C234   C     0.12996   0.81383   0.20750   0.00000  Uiso   1.00
C235   C     0.13470   0.91609   0.22513   0.00000  Uiso   1.00
C236   C     0.22873   0.63575   0.14203   0.00000  Uiso   1.00
C237   C     0.33025   0.59597   0.17178   0.00000  Uiso   1.00
C238   C     0.42221   0.58823   0.15235   0.00000  Uiso   1.00
C239   C     0.59605   0.55991   0.13805   0.00000  Uiso   1.00
C240   C     0.99277   0.63631   0.10315   0.00000  Uiso   1.00
C241   C     0.89590   0.59699   0.10020   0.00000  Uiso   1.00
C242   C     0.78921   0.58971   0.04804   0.00000  Uiso   1.00
C243   C     0.59668   0.56225   0.97337   0.00000  Uiso   1.00
C244   C     0.10047   0.70793   0.06848   0.00000  Uiso   1.00
C245   C     0.11043   0.75079   0.11511   0.00000  Uiso   1.00
C246   C     0.11067   0.81382   0.11292   0.00000  Uiso   1.00
C247   C     0.12059   0.84484   0.15994   0.00000  Uiso   1.00
C248   C     0.21938   0.66670   0.09456   0.00000  Uiso   1.00
C249   C     0.31121   0.65901   0.07508   0.00000  Uiso   1.00
C250   C     0.41285   0.61924   0.10479   0.00000  Uiso   1.00
C251   C     0.98341   0.66726   0.05567   0.00000  Uiso   1.00
C252   C     0.87686   0.66004   0.00350   0.00000  Uiso   1.00
C253   C     0.77985   0.62072   0.00047   0.00000  Uiso   1.00
H254   H     0.12497   0.62685   0.19285   0.00000  Uiso   1.00
H255   H     0.13696   0.72680   0.24636   0.00000  Uiso   1.00
H256   H     0.33745   0.57202   0.20852   0.00000  Uiso   1.00
H257   H     0.90317   0.57304   0.13695   0.00000  Uiso   1.00
H258   H     0.14617   0.85127   0.28475   0.00000  Uiso   1.00
H259   H     0.56891   0.52489   0.20495   0.00000  Uiso   1.00
H260   H     0.65314   0.52704   0.05404   0.00000  Uiso   1.00
H261   H     0.09320   0.73203   0.03152   0.00000  Uiso   1.00
H262   H     0.10343   0.83775   0.07617   0.00000  Uiso   1.00
H263   H     0.30394   0.68297   0.03833   0.00000  Uiso   1.00
H264   H     0.86966   0.68399   0.96677   0.00000  Uiso   1.00
H265   H     0.11896   0.94132   0.14662   0.00000  Uiso   1.00
H266   H     0.54171   0.61493   0.06683   0.00000  Uiso   1.00
H267   H     0.62594   0.61709   0.91592   0.00000  Uiso   1.00
O268   O     0.13992   0.96395   0.24798   0.00000  Uiso   1.00
O269   O     0.69452   0.53574   0.14328   0.00000  Uiso   1.00
O270   O     0.49306   0.53857   0.94530   0.00000  Uiso   1.00
N271   N     0.13833   0.85795   0.24611   0.00000  Uiso   1.00
N272   N     0.53359   0.55281   0.17151   0.00000  Uiso   1.00
N273   N     0.67743   0.55481   0.03042   0.00000  Uiso   1.00
N274   N     0.12369   0.90641   0.17178   0.00000  Uiso   1.00
N275   N     0.51895   0.60127   0.09718   0.00000  Uiso   1.00
N276   N     0.66279   0.60327   0.95609   0.00000  Uiso   1.00
C277   C     0.38232   0.15095   0.34411   0.00000  Uiso   1.00
C278   C     0.38022   0.21984   0.33741   0.00000  Uiso   1.00
C279   C     0.37029   0.25077   0.29038   0.00000  Uiso   1.00
C280   C     0.37004   0.31383   0.29250   0.00000  Uiso   1.00
C281   C     0.36530   0.41609   0.27487   0.00000  Uiso   1.00
C282   C     0.27127   0.13575   0.35797   0.00000  Uiso   1.00
C283   C     0.16975   0.09597   0.32822   0.00000  Uiso   1.00
C284   C     0.07779   0.08823   0.34765   0.00000  Uiso   1.00
C285   C     0.90395   0.05991   0.36195   0.00000  Uiso   1.00
C286   C     0.50723   0.13631   0.39685   0.00000  Uiso   1.00
C287   C     0.60410   0.09699   0.39980   0.00000  Uiso   1.00
C288   C     0.71079   0.08971   0.45196   0.00000  Uiso   1.00
C289   C     0.90332   0.06225   0.52663   0.00000  Uiso   1.00
C290   C     0.39953   0.20793   0.43152   0.00000  Uiso   1.00
C291   C     0.38957   0.25079   0.38489   0.00000  Uiso   1.00
C292   C     0.38933   0.31382   0.38708   0.00000  Uiso   1.00
C293   C     0.37941   0.34484   0.34006   0.00000  Uiso   1.00
C294   C     0.28062   0.16670   0.40544   0.00000  Uiso   1.00
C295   C     0.18879   0.15901   0.42492   0.00000  Uiso   1.00
C296   C     0.08715   0.11924   0.39521   0.00000  Uiso   1.00
C297   C     0.51659   0.16726   0.44433   0.00000  Uiso   1.00
C298   C     0.62314   0.16004   0.49650   0.00000  Uiso   1.00
C299   C     0.72015   0.12072   0.49953   0.00000  Uiso   1.00
H300   H     0.37503   0.12685   0.30715   0.00000  Uiso   1.00
H301   H     0.36304   0.22680   0.25364   0.00000  Uiso   1.00
H302   H     0.16255   0.07202   0.29148   0.00000  Uiso   1.00
H303   H     0.59683   0.07304   0.36305   0.00000  Uiso   1.00
H304   H     0.35383   0.35127   0.21525   0.00000  Uiso   1.00
H305   H     0.93109   0.02489   0.29505   0.00000  Uiso   1.00
H306   H     0.84686   0.02704   0.44596   0.00000  Uiso   1.00
H307   H     0.40680   0.23203   0.46848   0.00000  Uiso   1.00
H308   H     0.39657   0.33775   0.42383   0.00000  Uiso   1.00
H309   H     0.19606   0.18297   0.46167   0.00000  Uiso   1.00
H310   H     0.63034   0.18399   0.53323   0.00000  Uiso   1.00
H311   H     0.38104   0.44132   0.35338   0.00000  Uiso   1.00
H312   H     0.95829   0.11493   0.43317   0.00000  Uiso   1.00
H313   H     0.87406   0.11709   0.58408   0.00000  Uiso   1.00
O314   O     0.36008   0.46395   0.25202   0.00000  Uiso   1.00
O315   O     0.80548   0.03574   0.35672   0.00000  Uiso   1.00
O316   O     0.00694   0.03857   0.55470   0.00000  Uiso   1.00
N317   N     0.36167   0.35795   0.25389   0.00000  Uiso   1.00
N318   N     0.96641   0.05281   0.32849   0.00000  Uiso   1.00
N319   N     0.82257   0.05481   0.46958   0.00000  Uiso   1.00
N320   N     0.37631   0.40641   0.32822   0.00000  Uiso   1.00
N321   N     0.98105   0.10127   0.40282   0.00000  Uiso   1.00
N322   N     0.83721   0.10327   0.54391   0.00000  Uiso   1.00
C323   C     0.88232   0.65095   0.34411   0.00000  Uiso   1.00
C324   C     0.88022   0.71984   0.33741   0.00000  Uiso   1.00
C325   C     0.87029   0.75077   0.29038   0.00000  Uiso   1.00
C326   C     0.87004   0.81383   0.29250   0.00000  Uiso   1.00
C327   C     0.86530   0.91609   0.27487   0.00000  Uiso   1.00
C328   C     0.77127   0.63575   0.35797   0.00000  Uiso   1.00
C329   C     0.66975   0.59597   0.32822   0.00000  Uiso   1.00
C330   C     0.57779   0.58823   0.34765   0.00000  Uiso   1.00
C331   C     0.40395   0.55991   0.36195   0.00000  Uiso   1.00
C332   C     0.00723   0.63631   0.39685   0.00000  Uiso   1.00
C333   C     0.10410   0.59699   0.39980   0.00000  Uiso   1.00
C334   C     0.21079   0.58971   0.45196   0.00000  Uiso   1.00
C335   C     0.40332   0.56225   0.52663   0.00000  Uiso   1.00
C336   C     0.89953   0.70793   0.43152   0.00000  Uiso   1.00
C337   C     0.88957   0.75079   0.38489   0.00000  Uiso   1.00
C338   C     0.88933   0.81382   0.38708   0.00000  Uiso   1.00
C339   C     0.87941   0.84484   0.34006   0.00000  Uiso   1.00
C340   C     0.78062   0.66670   0.40544   0.00000  Uiso   1.00
C341   C     0.68879   0.65901   0.42492   0.00000  Uiso   1.00
C342   C     0.58715   0.61924   0.39521   0.00000  Uiso   1.00
C343   C     0.01659   0.66726   0.44433   0.00000  Uiso   1.00
C344   C     0.12314   0.66004   0.49650   0.00000  Uiso   1.00
C345   C     0.22015   0.62072   0.49953   0.00000  Uiso   1.00
H346   H     0.87503   0.62685   0.30715   0.00000  Uiso   1.00
H347   H     0.86304   0.72680   0.25364   0.00000  Uiso   1.00
H348   H     0.66255   0.57202   0.29148   0.00000  Uiso   1.00
H349   H     0.09683   0.57304   0.36305   0.00000  Uiso   1.00
H350   H     0.85383   0.85127   0.21525   0.00000  Uiso   1.00
H351   H     0.43109   0.52489   0.29505   0.00000  Uiso   1.00
H352   H     0.34686   0.52704   0.44596   0.00000  Uiso   1.00
H353   H     0.90680   0.73203   0.46848   0.00000  Uiso   1.00
H354   H     0.89657   0.83775   0.42383   0.00000  Uiso   1.00
H355   H     0.69606   0.68297   0.46167   0.00000  Uiso   1.00
H356   H     0.13034   0.68399   0.53323   0.00000  Uiso   1.00
H357   H     0.88104   0.94132   0.35338   0.00000  Uiso   1.00
H358   H     0.45829   0.61493   0.43317   0.00000  Uiso   1.00
H359   H     0.37406   0.61709   0.58408   0.00000  Uiso   1.00
O360   O     0.86008   0.96395   0.25202   0.00000  Uiso   1.00
O361   O     0.30548   0.53574   0.35672   0.00000  Uiso   1.00
O362   O     0.50694   0.53857   0.55470   0.00000  Uiso   1.00
N363   N     0.86167   0.85795   0.25389   0.00000  Uiso   1.00
N364   N     0.46641   0.55281   0.32849   0.00000  Uiso   1.00
N365   N     0.32257   0.55481   0.46958   0.00000  Uiso   1.00
N366   N     0.87631   0.90641   0.32822   0.00000  Uiso   1.00
N367   N     0.48105   0.60127   0.40282   0.00000  Uiso   1.00
N368   N     0.33721   0.60327   0.54391   0.00000  Uiso   1.00
