data_job_00742
_audit_creation_date              2018-12-19
_audit_creation_method            'Materials Studio'
_symmetry_space_group_name_H-M    'P1'
_symmetry_Int_Tables_number       1
_symmetry_cell_setting            triclinic
loop_
_symmetry_equiv_pos_as_xyz
  x,y,z
_cell_length_a                    40.5421
_cell_length_b                    9.5970
_cell_length_c                    19.3550
_cell_angle_alpha                 90.0000
_cell_angle_beta                  90.0000
_cell_angle_gamma                 90.0000
loop_
_atom_site_label
_atom_site_type_symbol
_atom_site_fract_x
_atom_site_fract_y
_atom_site_fract_z
_atom_site_U_iso_or_equiv
_atom_site_adp_type
_atom_site_occupancy
C1     C     0.17758   0.17088   0.97448   0.00000  Uiso   1.00
C2     C     0.19201   0.13096   0.04450   0.00000  Uiso   1.00
C3     C     0.21823   0.04061   0.05525   0.00000  Uiso   1.00
C4     C     0.22773   0.01763   0.12322   0.00000  Uiso   1.00
C5     C     0.25257   0.94569   0.22356   0.00000  Uiso   1.00
C6     C     0.14101   0.13441   0.97793   0.00000  Uiso   1.00
C7     C     0.12436   0.04696   0.93271   0.00000  Uiso   1.00
C8     C     0.09093   0.02690   0.94464   0.00000  Uiso   1.00
C9     C     0.03660   0.96038   0.94160   0.00000  Uiso   1.00
C10    C     0.17932   0.32941   0.97063   0.00000  Uiso   1.00
C11    C     0.19488   0.40593   0.91924   0.00000  Uiso   1.00
C12    C     0.19370   0.55005   0.92502   0.00000  Uiso   1.00
C13    C     0.19886   0.78630   0.91062   0.00000  Uiso   1.00
C14    C     0.14781   0.29076   0.07608   0.00000  Uiso   1.00
C15    C     0.17583   0.19608   0.09968   0.00000  Uiso   1.00
C16    C     0.18529   0.17324   0.16766   0.00000  Uiso   1.00
C17    C     0.21153   0.08287   0.17851   0.00000  Uiso   1.00
C18    C     0.12484   0.19952   0.03312   0.00000  Uiso   1.00
C19    C     0.09142   0.17959   0.04512   0.00000  Uiso   1.00
C20    C     0.07472   0.09213   0.99993   0.00000  Uiso   1.00
C21    C     0.16315   0.39453   0.02581   0.00000  Uiso   1.00
C22    C     0.16194   0.53856   0.03166   0.00000  Uiso   1.00
C23    C     0.17750   0.61528   0.98030   0.00000  Uiso   1.00
H24    H     0.19017   0.12018   0.93151   0.00000  Uiso   1.00
H25    H     0.23074   0.99022   0.01253   0.00000  Uiso   1.00
H26    H     0.13688   0.99659   0.89001   0.00000  Uiso   1.00
H27    H     0.20739   0.35550   0.87655   0.00000  Uiso   1.00
H28    H     0.26858   0.87482   0.12669   0.00000  Uiso   1.00
H29    H     0.07067   0.88828   0.86833   0.00000  Uiso   1.00
H30    H     0.21936   0.64511   0.83994   0.00000  Uiso   1.00
H31    H     0.13522   0.34146   0.11904   0.00000  Uiso   1.00
H32    H     0.17277   0.22365   0.21035   0.00000  Uiso   1.00
H33    H     0.07891   0.23001   0.08782   0.00000  Uiso   1.00
H34    H     0.14942   0.58891   0.07437   0.00000  Uiso   1.00
H35    H     0.22153   0.06427   0.28725   0.00000  Uiso   1.00
H36    H     0.02362   0.07773   0.02888   0.00000  Uiso   1.00
H37    H     0.17231   0.83456   0.00050   0.00000  Uiso   1.00
O38    O     0.27074   0.88801   0.26366   0.00000  Uiso   1.00
O39    O     0.01110   0.90569   0.92468   0.00000  Uiso   1.00
O40    O     0.20617   0.89863   0.88745   0.00000  Uiso   1.00
N41    N     0.25235   0.93560   0.15195   0.00000  Uiso   1.00
N42    N     0.06733   0.94816   0.91040   0.00000  Uiso   1.00
N43    N     0.20633   0.65574   0.88385   0.00000  Uiso   1.00
N44    N     0.22704   0.03754   0.23834   0.00000  Uiso   1.00
N45    N     0.04201   0.05010   0.99679   0.00000  Uiso   1.00
N46    N     0.18101   0.75768   0.97025   0.00000  Uiso   1.00
C47    C     0.32242   0.32912   0.47448   0.00000  Uiso   1.00
C48    C     0.30799   0.36904   0.54450   0.00000  Uiso   1.00
C49    C     0.28177   0.45939   0.55525   0.00000  Uiso   1.00
C50    C     0.27227   0.48237   0.62322   0.00000  Uiso   1.00
C51    C     0.24743   0.55431   0.72356   0.00000  Uiso   1.00
C52    C     0.35899   0.36559   0.47793   0.00000  Uiso   1.00
C53    C     0.37564   0.45304   0.43271   0.00000  Uiso   1.00
C54    C     0.40907   0.47310   0.44464   0.00000  Uiso   1.00
C55    C     0.46340   0.53962   0.44160   0.00000  Uiso   1.00
C56    C     0.32068   0.17059   0.47063   0.00000  Uiso   1.00
C57    C     0.30512   0.09407   0.41924   0.00000  Uiso   1.00
C58    C     0.30630   0.94995   0.42502   0.00000  Uiso   1.00
C59    C     0.30114   0.71370   0.41062   0.00000  Uiso   1.00
C60    C     0.35219   0.20924   0.57608   0.00000  Uiso   1.00
C61    C     0.32417   0.30392   0.59968   0.00000  Uiso   1.00
C62    C     0.31471   0.32676   0.66766   0.00000  Uiso   1.00
C63    C     0.28847   0.41713   0.67851   0.00000  Uiso   1.00
C64    C     0.37516   0.30048   0.53312   0.00000  Uiso   1.00
C65    C     0.40858   0.32041   0.54512   0.00000  Uiso   1.00
C66    C     0.42528   0.40787   0.49993   0.00000  Uiso   1.00
C67    C     0.33685   0.10547   0.52581   0.00000  Uiso   1.00
C68    C     0.33806   0.96144   0.53166   0.00000  Uiso   1.00
C69    C     0.32250   0.88472   0.48030   0.00000  Uiso   1.00
H70    H     0.30983   0.37982   0.43151   0.00000  Uiso   1.00
H71    H     0.26926   0.50978   0.51253   0.00000  Uiso   1.00
H72    H     0.36312   0.50341   0.39001   0.00000  Uiso   1.00
H73    H     0.29261   0.14450   0.37655   0.00000  Uiso   1.00
H74    H     0.23142   0.62518   0.62669   0.00000  Uiso   1.00
H75    H     0.42933   0.61172   0.36833   0.00000  Uiso   1.00
H76    H     0.28064   0.85489   0.33994   0.00000  Uiso   1.00
H77    H     0.36478   0.15854   0.61904   0.00000  Uiso   1.00
H78    H     0.32723   0.27635   0.71035   0.00000  Uiso   1.00
H79    H     0.42109   0.26999   0.58782   0.00000  Uiso   1.00
H80    H     0.35058   0.91109   0.57437   0.00000  Uiso   1.00
H81    H     0.27847   0.43573   0.78725   0.00000  Uiso   1.00
H82    H     0.47638   0.42227   0.52888   0.00000  Uiso   1.00
H83    H     0.32769   0.66544   0.50050   0.00000  Uiso   1.00
O84    O     0.22926   0.61199   0.76366   0.00000  Uiso   1.00
O85    O     0.48890   0.59431   0.42468   0.00000  Uiso   1.00
O86    O     0.29383   0.60137   0.38745   0.00000  Uiso   1.00
N87    N     0.24765   0.56440   0.65195   0.00000  Uiso   1.00
N88    N     0.43267   0.55184   0.41040   0.00000  Uiso   1.00
N89    N     0.29367   0.84426   0.38385   0.00000  Uiso   1.00
N90    N     0.27296   0.46246   0.73834   0.00000  Uiso   1.00
N91    N     0.45799   0.44990   0.49679   0.00000  Uiso   1.00
N92    N     0.31899   0.74232   0.47025   0.00000  Uiso   1.00
C93    C     0.82242   0.17088   0.52552   0.00000  Uiso   1.00
C94    C     0.80799   0.13096   0.45550   0.00000  Uiso   1.00
C95    C     0.78177   0.04061   0.44475   0.00000  Uiso   1.00
C96    C     0.77227   0.01763   0.37678   0.00000  Uiso   1.00
C97    C     0.74743   0.94569   0.27644   0.00000  Uiso   1.00
C98    C     0.85899   0.13441   0.52207   0.00000  Uiso   1.00
C99    C     0.87564   0.04696   0.56729   0.00000  Uiso   1.00
C100   C     0.90907   0.02690   0.55536   0.00000  Uiso   1.00
C101   C     0.96340   0.96038   0.55840   0.00000  Uiso   1.00
C102   C     0.82068   0.32941   0.52937   0.00000  Uiso   1.00
C103   C     0.80512   0.40593   0.58076   0.00000  Uiso   1.00
C104   C     0.80630   0.55005   0.57498   0.00000  Uiso   1.00
C105   C     0.80114   0.78630   0.58938   0.00000  Uiso   1.00
C106   C     0.85219   0.29076   0.42392   0.00000  Uiso   1.00
C107   C     0.82417   0.19608   0.40032   0.00000  Uiso   1.00
C108   C     0.81471   0.17324   0.33234   0.00000  Uiso   1.00
C109   C     0.78847   0.08287   0.32149   0.00000  Uiso   1.00
C110   C     0.87516   0.19952   0.46688   0.00000  Uiso   1.00
C111   C     0.90858   0.17959   0.45488   0.00000  Uiso   1.00
C112   C     0.92528   0.09213   0.50007   0.00000  Uiso   1.00
C113   C     0.83685   0.39453   0.47419   0.00000  Uiso   1.00
C114   C     0.83806   0.53856   0.46834   0.00000  Uiso   1.00
C115   C     0.82250   0.61528   0.51970   0.00000  Uiso   1.00
H116   H     0.80983   0.12018   0.56849   0.00000  Uiso   1.00
H117   H     0.76926   0.99022   0.48747   0.00000  Uiso   1.00
H118   H     0.86312   0.99659   0.60999   0.00000  Uiso   1.00
H119   H     0.79261   0.35550   0.62345   0.00000  Uiso   1.00
H120   H     0.73142   0.87482   0.37331   0.00000  Uiso   1.00
H121   H     0.92933   0.88828   0.63167   0.00000  Uiso   1.00
H122   H     0.78064   0.64511   0.66006   0.00000  Uiso   1.00
H123   H     0.86478   0.34146   0.38096   0.00000  Uiso   1.00
H124   H     0.82723   0.22365   0.28965   0.00000  Uiso   1.00
H125   H     0.92109   0.23001   0.41218   0.00000  Uiso   1.00
H126   H     0.85058   0.58891   0.42563   0.00000  Uiso   1.00
H127   H     0.77847   0.06427   0.21275   0.00000  Uiso   1.00
H128   H     0.97638   0.07773   0.47112   0.00000  Uiso   1.00
H129   H     0.82769   0.83456   0.49950   0.00000  Uiso   1.00
O130   O     0.72926   0.88801   0.23634   0.00000  Uiso   1.00
O131   O     0.98890   0.90569   0.57532   0.00000  Uiso   1.00
O132   O     0.79383   0.89863   0.61255   0.00000  Uiso   1.00
N133   N     0.74765   0.93560   0.34805   0.00000  Uiso   1.00
N134   N     0.93267   0.94816   0.58960   0.00000  Uiso   1.00
N135   N     0.79367   0.65574   0.61615   0.00000  Uiso   1.00
N136   N     0.77296   0.03754   0.26166   0.00000  Uiso   1.00
N137   N     0.95799   0.05010   0.50321   0.00000  Uiso   1.00
N138   N     0.81899   0.75768   0.52975   0.00000  Uiso   1.00
C139   C     0.67758   0.32912   0.02552   0.00000  Uiso   1.00
C140   C     0.69201   0.36904   0.95550   0.00000  Uiso   1.00
C141   C     0.71823   0.45939   0.94475   0.00000  Uiso   1.00
C142   C     0.72773   0.48237   0.87678   0.00000  Uiso   1.00
C143   C     0.75257   0.55431   0.77644   0.00000  Uiso   1.00
C144   C     0.64101   0.36559   0.02207   0.00000  Uiso   1.00
C145   C     0.62436   0.45304   0.06729   0.00000  Uiso   1.00
C146   C     0.59093   0.47310   0.05536   0.00000  Uiso   1.00
C147   C     0.53660   0.53962   0.05840   0.00000  Uiso   1.00
C148   C     0.67932   0.17059   0.02937   0.00000  Uiso   1.00
C149   C     0.69488   0.09407   0.08076   0.00000  Uiso   1.00
C150   C     0.69370   0.94995   0.07498   0.00000  Uiso   1.00
C151   C     0.69886   0.71370   0.08938   0.00000  Uiso   1.00
C152   C     0.64781   0.20924   0.92392   0.00000  Uiso   1.00
C153   C     0.67583   0.30392   0.90032   0.00000  Uiso   1.00
C154   C     0.68529   0.32676   0.83234   0.00000  Uiso   1.00
C155   C     0.71153   0.41713   0.82149   0.00000  Uiso   1.00
C156   C     0.62484   0.30048   0.96688   0.00000  Uiso   1.00
C157   C     0.59142   0.32041   0.95488   0.00000  Uiso   1.00
C158   C     0.57472   0.40787   0.00007   0.00000  Uiso   1.00
C159   C     0.66315   0.10547   0.97419   0.00000  Uiso   1.00
C160   C     0.66194   0.96144   0.96834   0.00000  Uiso   1.00
C161   C     0.67750   0.88472   0.01970   0.00000  Uiso   1.00
H162   H     0.69017   0.37982   0.06849   0.00000  Uiso   1.00
H163   H     0.73074   0.50978   0.98747   0.00000  Uiso   1.00
H164   H     0.63688   0.50341   0.10999   0.00000  Uiso   1.00
H165   H     0.70739   0.14450   0.12345   0.00000  Uiso   1.00
H166   H     0.76858   0.62518   0.87331   0.00000  Uiso   1.00
H167   H     0.57067   0.61172   0.13167   0.00000  Uiso   1.00
H168   H     0.71936   0.85489   0.16006   0.00000  Uiso   1.00
H169   H     0.63522   0.15854   0.88096   0.00000  Uiso   1.00
H170   H     0.67277   0.27635   0.78965   0.00000  Uiso   1.00
H171   H     0.57891   0.26999   0.91218   0.00000  Uiso   1.00
H172   H     0.64942   0.91109   0.92563   0.00000  Uiso   1.00
H173   H     0.72153   0.43573   0.71275   0.00000  Uiso   1.00
H174   H     0.52362   0.42227   0.97112   0.00000  Uiso   1.00
H175   H     0.67231   0.66544   0.99950   0.00000  Uiso   1.00
O176   O     0.77074   0.61199   0.73634   0.00000  Uiso   1.00
O177   O     0.51110   0.59431   0.07532   0.00000  Uiso   1.00
O178   O     0.70617   0.60137   0.11255   0.00000  Uiso   1.00
N179   N     0.75235   0.56440   0.84805   0.00000  Uiso   1.00
N180   N     0.56733   0.55184   0.08960   0.00000  Uiso   1.00
N181   N     0.70633   0.84426   0.11615   0.00000  Uiso   1.00
N182   N     0.72704   0.46246   0.76166   0.00000  Uiso   1.00
N183   N     0.54201   0.44990   0.00321   0.00000  Uiso   1.00
N184   N     0.68101   0.74232   0.02975   0.00000  Uiso   1.00
C185   C     0.82242   0.82912   0.02552   0.00000  Uiso   1.00
C186   C     0.80799   0.86904   0.95550   0.00000  Uiso   1.00
C187   C     0.78177   0.95939   0.94475   0.00000  Uiso   1.00
C188   C     0.77227   0.98237   0.87678   0.00000  Uiso   1.00
C189   C     0.74743   0.05431   0.77644   0.00000  Uiso   1.00
C190   C     0.85899   0.86559   0.02207   0.00000  Uiso   1.00
C191   C     0.87564   0.95304   0.06729   0.00000  Uiso   1.00
C192   C     0.90907   0.97310   0.05536   0.00000  Uiso   1.00
C193   C     0.96340   0.03962   0.05840   0.00000  Uiso   1.00
C194   C     0.82068   0.67059   0.02937   0.00000  Uiso   1.00
C195   C     0.80512   0.59407   0.08076   0.00000  Uiso   1.00
C196   C     0.80630   0.44995   0.07498   0.00000  Uiso   1.00
C197   C     0.80114   0.21370   0.08938   0.00000  Uiso   1.00
C198   C     0.85219   0.70924   0.92392   0.00000  Uiso   1.00
C199   C     0.82417   0.80392   0.90032   0.00000  Uiso   1.00
C200   C     0.81471   0.82676   0.83234   0.00000  Uiso   1.00
C201   C     0.78847   0.91713   0.82149   0.00000  Uiso   1.00
C202   C     0.87516   0.80048   0.96688   0.00000  Uiso   1.00
C203   C     0.90858   0.82041   0.95488   0.00000  Uiso   1.00
C204   C     0.92528   0.90787   0.00007   0.00000  Uiso   1.00
C205   C     0.83685   0.60547   0.97419   0.00000  Uiso   1.00
C206   C     0.83806   0.46144   0.96834   0.00000  Uiso   1.00
C207   C     0.82250   0.38472   0.01970   0.00000  Uiso   1.00
H208   H     0.80983   0.87982   0.06849   0.00000  Uiso   1.00
H209   H     0.76926   0.00978   0.98747   0.00000  Uiso   1.00
H210   H     0.86312   0.00341   0.10999   0.00000  Uiso   1.00
H211   H     0.79261   0.64450   0.12345   0.00000  Uiso   1.00
H212   H     0.73142   0.12518   0.87331   0.00000  Uiso   1.00
H213   H     0.92933   0.11172   0.13167   0.00000  Uiso   1.00
H214   H     0.78064   0.35489   0.16006   0.00000  Uiso   1.00
H215   H     0.86478   0.65854   0.88096   0.00000  Uiso   1.00
H216   H     0.82723   0.77635   0.78965   0.00000  Uiso   1.00
H217   H     0.92109   0.76999   0.91218   0.00000  Uiso   1.00
H218   H     0.85058   0.41109   0.92563   0.00000  Uiso   1.00
H219   H     0.77847   0.93573   0.71275   0.00000  Uiso   1.00
H220   H     0.97638   0.92227   0.97112   0.00000  Uiso   1.00
H221   H     0.82769   0.16544   0.99950   0.00000  Uiso   1.00
O222   O     0.72926   0.11199   0.73634   0.00000  Uiso   1.00
O223   O     0.98890   0.09431   0.07532   0.00000  Uiso   1.00
O224   O     0.79383   0.10137   0.11255   0.00000  Uiso   1.00
N225   N     0.74765   0.06440   0.84805   0.00000  Uiso   1.00
N226   N     0.93267   0.05184   0.08960   0.00000  Uiso   1.00
N227   N     0.79367   0.34426   0.11615   0.00000  Uiso   1.00
N228   N     0.77296   0.96246   0.76166   0.00000  Uiso   1.00
N229   N     0.95799   0.94990   0.00321   0.00000  Uiso   1.00
N230   N     0.81899   0.24232   0.02975   0.00000  Uiso   1.00
C231   C     0.67758   0.67088   0.52552   0.00000  Uiso   1.00
C232   C     0.69201   0.63096   0.45550   0.00000  Uiso   1.00
C233   C     0.71823   0.54061   0.44475   0.00000  Uiso   1.00
C234   C     0.72773   0.51763   0.37678   0.00000  Uiso   1.00
C235   C     0.75257   0.44569   0.27644   0.00000  Uiso   1.00
C236   C     0.64101   0.63441   0.52207   0.00000  Uiso   1.00
C237   C     0.62436   0.54696   0.56729   0.00000  Uiso   1.00
C238   C     0.59093   0.52690   0.55536   0.00000  Uiso   1.00
C239   C     0.53660   0.46038   0.55840   0.00000  Uiso   1.00
C240   C     0.67932   0.82941   0.52937   0.00000  Uiso   1.00
C241   C     0.69488   0.90593   0.58076   0.00000  Uiso   1.00
C242   C     0.69370   0.05005   0.57498   0.00000  Uiso   1.00
C243   C     0.69886   0.28630   0.58938   0.00000  Uiso   1.00
C244   C     0.64781   0.79076   0.42392   0.00000  Uiso   1.00
C245   C     0.67583   0.69608   0.40032   0.00000  Uiso   1.00
C246   C     0.68529   0.67324   0.33234   0.00000  Uiso   1.00
C247   C     0.71153   0.58287   0.32149   0.00000  Uiso   1.00
C248   C     0.62484   0.69952   0.46688   0.00000  Uiso   1.00
C249   C     0.59142   0.67959   0.45488   0.00000  Uiso   1.00
C250   C     0.57472   0.59213   0.50007   0.00000  Uiso   1.00
C251   C     0.66315   0.89453   0.47419   0.00000  Uiso   1.00
C252   C     0.66194   0.03856   0.46834   0.00000  Uiso   1.00
C253   C     0.67750   0.11528   0.51970   0.00000  Uiso   1.00
H254   H     0.69017   0.62018   0.56849   0.00000  Uiso   1.00
H255   H     0.73074   0.49022   0.48747   0.00000  Uiso   1.00
H256   H     0.63688   0.49659   0.60999   0.00000  Uiso   1.00
H257   H     0.70739   0.85550   0.62345   0.00000  Uiso   1.00
H258   H     0.76858   0.37482   0.37331   0.00000  Uiso   1.00
H259   H     0.57067   0.38828   0.63167   0.00000  Uiso   1.00
H260   H     0.71936   0.14511   0.66006   0.00000  Uiso   1.00
H261   H     0.63522   0.84146   0.38096   0.00000  Uiso   1.00
H262   H     0.67277   0.72365   0.28965   0.00000  Uiso   1.00
H263   H     0.57891   0.73001   0.41218   0.00000  Uiso   1.00
H264   H     0.64942   0.08891   0.42563   0.00000  Uiso   1.00
H265   H     0.72153   0.56427   0.21275   0.00000  Uiso   1.00
H266   H     0.52362   0.57773   0.47112   0.00000  Uiso   1.00
H267   H     0.67231   0.33456   0.49950   0.00000  Uiso   1.00
O268   O     0.77074   0.38801   0.23634   0.00000  Uiso   1.00
O269   O     0.51110   0.40569   0.57532   0.00000  Uiso   1.00
O270   O     0.70617   0.39863   0.61255   0.00000  Uiso   1.00
N271   N     0.75235   0.43560   0.34805   0.00000  Uiso   1.00
N272   N     0.56733   0.44816   0.58960   0.00000  Uiso   1.00
N273   N     0.70633   0.15574   0.61615   0.00000  Uiso   1.00
N274   N     0.72704   0.53754   0.26166   0.00000  Uiso   1.00
N275   N     0.54201   0.55010   0.50321   0.00000  Uiso   1.00
N276   N     0.68101   0.25768   0.52975   0.00000  Uiso   1.00
C277   C     0.17758   0.82912   0.47448   0.00000  Uiso   1.00
C278   C     0.19201   0.86904   0.54450   0.00000  Uiso   1.00
C279   C     0.21823   0.95939   0.55525   0.00000  Uiso   1.00
C280   C     0.22773   0.98237   0.62322   0.00000  Uiso   1.00
C281   C     0.25257   0.05431   0.72356   0.00000  Uiso   1.00
C282   C     0.14101   0.86559   0.47793   0.00000  Uiso   1.00
C283   C     0.12436   0.95304   0.43271   0.00000  Uiso   1.00
C284   C     0.09093   0.97310   0.44464   0.00000  Uiso   1.00
C285   C     0.03660   0.03962   0.44160   0.00000  Uiso   1.00
C286   C     0.17932   0.67059   0.47063   0.00000  Uiso   1.00
C287   C     0.19488   0.59407   0.41924   0.00000  Uiso   1.00
C288   C     0.19370   0.44995   0.42502   0.00000  Uiso   1.00
C289   C     0.19886   0.21370   0.41062   0.00000  Uiso   1.00
C290   C     0.14781   0.70924   0.57608   0.00000  Uiso   1.00
C291   C     0.17583   0.80392   0.59968   0.00000  Uiso   1.00
C292   C     0.18529   0.82676   0.66766   0.00000  Uiso   1.00
C293   C     0.21153   0.91713   0.67851   0.00000  Uiso   1.00
C294   C     0.12484   0.80048   0.53312   0.00000  Uiso   1.00
C295   C     0.09142   0.82041   0.54512   0.00000  Uiso   1.00
C296   C     0.07472   0.90787   0.49993   0.00000  Uiso   1.00
C297   C     0.16315   0.60547   0.52581   0.00000  Uiso   1.00
C298   C     0.16194   0.46144   0.53166   0.00000  Uiso   1.00
C299   C     0.17750   0.38472   0.48030   0.00000  Uiso   1.00
H300   H     0.19017   0.87982   0.43151   0.00000  Uiso   1.00
H301   H     0.23074   0.00978   0.51253   0.00000  Uiso   1.00
H302   H     0.13688   0.00341   0.39001   0.00000  Uiso   1.00
H303   H     0.20739   0.64450   0.37655   0.00000  Uiso   1.00
H304   H     0.26858   0.12518   0.62669   0.00000  Uiso   1.00
H305   H     0.07067   0.11172   0.36833   0.00000  Uiso   1.00
H306   H     0.21936   0.35489   0.33994   0.00000  Uiso   1.00
H307   H     0.13522   0.65854   0.61904   0.00000  Uiso   1.00
H308   H     0.17277   0.77635   0.71035   0.00000  Uiso   1.00
H309   H     0.07891   0.76999   0.58782   0.00000  Uiso   1.00
H310   H     0.14942   0.41109   0.57437   0.00000  Uiso   1.00
H311   H     0.22153   0.93573   0.78725   0.00000  Uiso   1.00
H312   H     0.02362   0.92227   0.52888   0.00000  Uiso   1.00
H313   H     0.17231   0.16544   0.50050   0.00000  Uiso   1.00
O314   O     0.27074   0.11199   0.76366   0.00000  Uiso   1.00
O315   O     0.01110   0.09431   0.42468   0.00000  Uiso   1.00
O316   O     0.20617   0.10137   0.38745   0.00000  Uiso   1.00
N317   N     0.25235   0.06440   0.65195   0.00000  Uiso   1.00
N318   N     0.06733   0.05184   0.41040   0.00000  Uiso   1.00
N319   N     0.20633   0.34426   0.38385   0.00000  Uiso   1.00
N320   N     0.22704   0.96246   0.73834   0.00000  Uiso   1.00
N321   N     0.04201   0.94990   0.49679   0.00000  Uiso   1.00
N322   N     0.18101   0.24232   0.47025   0.00000  Uiso   1.00
C323   C     0.32242   0.67088   0.97448   0.00000  Uiso   1.00
C324   C     0.30799   0.63096   0.04450   0.00000  Uiso   1.00
C325   C     0.28177   0.54061   0.05525   0.00000  Uiso   1.00
C326   C     0.27227   0.51763   0.12322   0.00000  Uiso   1.00
C327   C     0.24743   0.44569   0.22356   0.00000  Uiso   1.00
C328   C     0.35899   0.63441   0.97793   0.00000  Uiso   1.00
C329   C     0.37564   0.54696   0.93271   0.00000  Uiso   1.00
C330   C     0.40907   0.52690   0.94464   0.00000  Uiso   1.00
C331   C     0.46340   0.46038   0.94160   0.00000  Uiso   1.00
C332   C     0.32068   0.82941   0.97063   0.00000  Uiso   1.00
C333   C     0.30512   0.90593   0.91924   0.00000  Uiso   1.00
C334   C     0.30630   0.05005   0.92502   0.00000  Uiso   1.00
C335   C     0.30114   0.28630   0.91062   0.00000  Uiso   1.00
C336   C     0.35219   0.79076   0.07608   0.00000  Uiso   1.00
C337   C     0.32417   0.69608   0.09968   0.00000  Uiso   1.00
C338   C     0.31471   0.67324   0.16766   0.00000  Uiso   1.00
C339   C     0.28847   0.58287   0.17851   0.00000  Uiso   1.00
C340   C     0.37516   0.69952   0.03312   0.00000  Uiso   1.00
C341   C     0.40858   0.67959   0.04512   0.00000  Uiso   1.00
C342   C     0.42528   0.59213   0.99993   0.00000  Uiso   1.00
C343   C     0.33685   0.89453   0.02581   0.00000  Uiso   1.00
C344   C     0.33806   0.03856   0.03166   0.00000  Uiso   1.00
C345   C     0.32250   0.11528   0.98030   0.00000  Uiso   1.00
H346   H     0.30983   0.62018   0.93151   0.00000  Uiso   1.00
H347   H     0.26926   0.49022   0.01253   0.00000  Uiso   1.00
H348   H     0.36312   0.49659   0.89001   0.00000  Uiso   1.00
H349   H     0.29261   0.85550   0.87655   0.00000  Uiso   1.00
H350   H     0.23142   0.37482   0.12669   0.00000  Uiso   1.00
H351   H     0.42933   0.38828   0.86833   0.00000  Uiso   1.00
H352   H     0.28064   0.14511   0.83994   0.00000  Uiso   1.00
H353   H     0.36478   0.84146   0.11904   0.00000  Uiso   1.00
H354   H     0.32723   0.72365   0.21035   0.00000  Uiso   1.00
H355   H     0.42109   0.73001   0.08782   0.00000  Uiso   1.00
H356   H     0.35058   0.08891   0.07437   0.00000  Uiso   1.00
H357   H     0.27847   0.56427   0.28725   0.00000  Uiso   1.00
H358   H     0.47638   0.57773   0.02888   0.00000  Uiso   1.00
H359   H     0.32769   0.33456   0.00050   0.00000  Uiso   1.00
O360   O     0.22926   0.38801   0.26366   0.00000  Uiso   1.00
O361   O     0.48890   0.40569   0.92468   0.00000  Uiso   1.00
O362   O     0.29383   0.39863   0.88745   0.00000  Uiso   1.00
N363   N     0.24765   0.43560   0.15195   0.00000  Uiso   1.00
N364   N     0.43267   0.44816   0.91040   0.00000  Uiso   1.00
N365   N     0.29367   0.15574   0.88385   0.00000  Uiso   1.00
N366   N     0.27296   0.53754   0.23834   0.00000  Uiso   1.00
N367   N     0.45799   0.55010   0.99679   0.00000  Uiso   1.00
N368   N     0.31899   0.25768   0.97025   0.00000  Uiso   1.00
