data_job_01520
_audit_creation_date              2018-12-19
_audit_creation_method            'Materials Studio'
_symmetry_space_group_name_H-M    'P1'
_symmetry_Int_Tables_number       1
_symmetry_cell_setting            triclinic
loop_
_symmetry_equiv_pos_as_xyz
  x,y,z
_cell_length_a                    19.9443
_cell_length_b                    13.1111
_cell_length_c                    29.1030
_cell_angle_alpha                 90.0000
_cell_angle_beta                  128.9319
_cell_angle_gamma                 90.0000
loop_
_atom_site_label
_atom_site_type_symbol
_atom_site_fract_x
_atom_site_fract_y
_atom_site_fract_z
_atom_site_U_iso_or_equiv
_atom_site_adp_type
_atom_site_occupancy
C1     C     0.36344   0.83861   0.33989   0.00000  Uiso   1.00
C2     C     0.35282   0.86582   0.38595   0.00000  Uiso   1.00
C3     C     0.27556   0.88859   0.37441   0.00000  Uiso   1.00
C4     C     0.27944   0.91154   0.42261   0.00000  Uiso   1.00
C5     C     0.25104   0.95382   0.48535   0.00000  Uiso   1.00
C6     C     0.42795   0.91499   0.34821   0.00000  Uiso   1.00
C7     C     0.41386   0.97908   0.30494   0.00000  Uiso   1.00
C8     C     0.48099   0.04340   0.32136   0.00000  Uiso   1.00
C9     C     0.56925   0.16196   0.32551   0.00000  Uiso   1.00
C10    C     0.40841   0.73522   0.35823   0.00000  Uiso   1.00
C11    C     0.37790   0.64817   0.32338   0.00000  Uiso   1.00
C12    C     0.42858   0.56114   0.34824   0.00000  Uiso   1.00
C13    C     0.48649   0.40058   0.36794   0.00000  Uiso   1.00
C14    C     0.50770   0.83888   0.44599   0.00000  Uiso   1.00
C15    C     0.43118   0.86597   0.44358   0.00000  Uiso   1.00
C16    C     0.43518   0.88889   0.49180   0.00000  Uiso   1.00
C17    C     0.35794   0.91168   0.48034   0.00000  Uiso   1.00
C18    C     0.50631   0.91514   0.40584   0.00000  Uiso   1.00
C19    C     0.57347   0.97937   0.42233   0.00000  Uiso   1.00
C20    C     0.55949   0.04355   0.37910   0.00000  Uiso   1.00
C21    C     0.48676   0.73536   0.41586   0.00000  Uiso   1.00
C22    C     0.53751   0.64846   0.44077   0.00000  Uiso   1.00
C23    C     0.50708   0.56129   0.40597   0.00000  Uiso   1.00
H24    H     0.30244   0.83851   0.29502   0.00000  Uiso   1.00
H25    H     0.21494   0.88848   0.32980   0.00000  Uiso   1.00
H26    H     0.35322   0.97894   0.26034   0.00000  Uiso   1.00
H27    H     0.31726   0.64808   0.27878   0.00000  Uiso   1.00
H28    H     0.15249   0.94399   0.39378   0.00000  Uiso   1.00
H29    H     0.44408   0.13471   0.24731   0.00000  Uiso   1.00
H30    H     0.36824   0.43702   0.28620   0.00000  Uiso   1.00
H31    H     0.56871   0.83899   0.49086   0.00000  Uiso   1.00
H32    H     0.49582   0.88899   0.53640   0.00000  Uiso   1.00
H33    H     0.63410   0.97946   0.46693   0.00000  Uiso   1.00
H34    H     0.59814   0.64860   0.48537   0.00000  Uiso   1.00
H35    H     0.38047   0.94441   0.56146   0.00000  Uiso   1.00
H36    H     0.67206   0.13513   0.41499   0.00000  Uiso   1.00
H37    H     0.59622   0.43744   0.45387   0.00000  Uiso   1.00
O38    O     0.21373   0.97712   0.50404   0.00000  Uiso   1.00
O39    O     0.59628   0.22732   0.31187   0.00000  Uiso   1.00
O40    O     0.49678   0.31197   0.36289   0.00000  Uiso   1.00
N41    N     0.21615   0.93721   0.42700   0.00000  Uiso   1.00
N42    N     0.48876   0.11553   0.29006   0.00000  Uiso   1.00
N43    N     0.41787   0.46326   0.32641   0.00000  Uiso   1.00
N44    N     0.33882   0.93743   0.51722   0.00000  Uiso   1.00
N45    N     0.61143   0.11576   0.38028   0.00000  Uiso   1.00
N46    N     0.54054   0.46349   0.41663   0.00000  Uiso   1.00
C47    C     0.59380   0.66687   0.15611   0.00000  Uiso   1.00
C48    C     0.60493   0.69225   0.11012   0.00000  Uiso   1.00
C49    C     0.68231   0.71509   0.12185   0.00000  Uiso   1.00
C50    C     0.67893   0.73620   0.07368   0.00000  Uiso   1.00
C51    C     0.70808   0.77592   0.01106   0.00000  Uiso   1.00
C52    C     0.52837   0.74322   0.14653   0.00000  Uiso   1.00
C53    C     0.54138   0.80889   0.18889   0.00000  Uiso   1.00
C54    C     0.47354   0.87289   0.17138   0.00000  Uiso   1.00
C55    C     0.38381   0.99169   0.16531   0.00000  Uiso   1.00
C56    C     0.54967   0.56301   0.13876   0.00000  Uiso   1.00
C57    C     0.58058   0.47716   0.17458   0.00000  Uiso   1.00
C58    C     0.53067   0.38944   0.15053   0.00000  Uiso   1.00
C59    C     0.47401   0.22844   0.13239   0.00000  Uiso   1.00
C60    C     0.45019   0.66375   0.04970   0.00000  Uiso   1.00
C61    C     0.52693   0.69056   0.05232   0.00000  Uiso   1.00
C62    C     0.52343   0.71164   0.00412   0.00000  Uiso   1.00
C63    C     0.60079   0.73450   0.01578   0.00000  Uiso   1.00
C64    C     0.45037   0.74153   0.08874   0.00000  Uiso   1.00
C65    C     0.38249   0.80544   0.07116   0.00000  Uiso   1.00
C66    C     0.39540   0.87120   0.11348   0.00000  Uiso   1.00
C67    C     0.47167   0.56131   0.08096   0.00000  Uiso   1.00
C68    C     0.42169   0.47371   0.05686   0.00000  Uiso   1.00
C69    C     0.45252   0.38775   0.09263   0.00000  Uiso   1.00
H70    H     0.65452   0.66819   0.20111   0.00000  Uiso   1.00
H71    H     0.74266   0.71640   0.16658   0.00000  Uiso   1.00
H72    H     0.60175   0.81018   0.23361   0.00000  Uiso   1.00
H73    H     0.64094   0.47850   0.21931   0.00000  Uiso   1.00
H74    H     0.80598   0.76914   0.10282   0.00000  Uiso   1.00
H75    H     0.50884   0.96685   0.24416   0.00000  Uiso   1.00
H76    H     0.59149   0.26744   0.21400   0.00000  Uiso   1.00
H77    H     0.38945   0.66243   0.00471   0.00000  Uiso   1.00
H78    H     0.46306   0.71032   0.95940   0.00000  Uiso   1.00
H79    H     0.32214   0.80411   0.02643   0.00000  Uiso   1.00
H80    H     0.36134   0.47243   0.01213   0.00000  Uiso   1.00
H81    H     0.57904   0.76421   0.93466   0.00000  Uiso   1.00
H82    H     0.28190   0.96192   0.07601   0.00000  Uiso   1.00
H83    H     0.36455   0.26252   0.04584   0.00000  Uiso   1.00
O84    O     0.74571   0.79832   0.99248   0.00000  Uiso   1.00
O85    O     0.35587   0.05769   0.17793   0.00000  Uiso   1.00
O86    O     0.46431   0.14009   0.13835   0.00000  Uiso   1.00
N87    N     0.74247   0.76139   0.06946   0.00000  Uiso   1.00
N88    N     0.46467   0.94625   0.20161   0.00000  Uiso   1.00
N89    N     0.54193   0.29237   0.17341   0.00000  Uiso   1.00
N90    N     0.62036   0.75873   0.97897   0.00000  Uiso   1.00
N91    N     0.34256   0.94359   0.11112   0.00000  Uiso   1.00
N92    N     0.41982   0.28972   0.08293   0.00000  Uiso   1.00
C93    C     0.86344   0.33861   0.33989   0.00000  Uiso   1.00
C94    C     0.85282   0.36582   0.38595   0.00000  Uiso   1.00
C95    C     0.77556   0.38859   0.37441   0.00000  Uiso   1.00
C96    C     0.77944   0.41154   0.42261   0.00000  Uiso   1.00
C97    C     0.75104   0.45382   0.48535   0.00000  Uiso   1.00
C98    C     0.92795   0.41499   0.34821   0.00000  Uiso   1.00
C99    C     0.91386   0.47908   0.30494   0.00000  Uiso   1.00
C100   C     0.98099   0.54340   0.32136   0.00000  Uiso   1.00
C101   C     0.06925   0.66196   0.32551   0.00000  Uiso   1.00
C102   C     0.90841   0.23522   0.35823   0.00000  Uiso   1.00
C103   C     0.87790   0.14817   0.32338   0.00000  Uiso   1.00
C104   C     0.92858   0.06114   0.34824   0.00000  Uiso   1.00
C105   C     0.98649   0.90058   0.36794   0.00000  Uiso   1.00
C106   C     0.00770   0.33888   0.44599   0.00000  Uiso   1.00
C107   C     0.93118   0.36597   0.44358   0.00000  Uiso   1.00
C108   C     0.93518   0.38889   0.49180   0.00000  Uiso   1.00
C109   C     0.85794   0.41168   0.48034   0.00000  Uiso   1.00
C110   C     0.00631   0.41514   0.40584   0.00000  Uiso   1.00
C111   C     0.07347   0.47937   0.42233   0.00000  Uiso   1.00
C112   C     0.05949   0.54355   0.37910   0.00000  Uiso   1.00
C113   C     0.98676   0.23536   0.41586   0.00000  Uiso   1.00
C114   C     0.03751   0.14846   0.44077   0.00000  Uiso   1.00
C115   C     0.00708   0.06129   0.40597   0.00000  Uiso   1.00
H116   H     0.80244   0.33851   0.29502   0.00000  Uiso   1.00
H117   H     0.71494   0.38848   0.32980   0.00000  Uiso   1.00
H118   H     0.85322   0.47894   0.26034   0.00000  Uiso   1.00
H119   H     0.81726   0.14808   0.27878   0.00000  Uiso   1.00
H120   H     0.65249   0.44399   0.39378   0.00000  Uiso   1.00
H121   H     0.94408   0.63471   0.24731   0.00000  Uiso   1.00
H122   H     0.86824   0.93702   0.28620   0.00000  Uiso   1.00
H123   H     0.06871   0.33899   0.49086   0.00000  Uiso   1.00
H124   H     0.99582   0.38899   0.53640   0.00000  Uiso   1.00
H125   H     0.13410   0.47946   0.46693   0.00000  Uiso   1.00
H126   H     0.09814   0.14860   0.48537   0.00000  Uiso   1.00
H127   H     0.88047   0.44441   0.56146   0.00000  Uiso   1.00
H128   H     0.17206   0.63513   0.41499   0.00000  Uiso   1.00
H129   H     0.09622   0.93744   0.45387   0.00000  Uiso   1.00
O130   O     0.71373   0.47712   0.50404   0.00000  Uiso   1.00
O131   O     0.09628   0.72732   0.31187   0.00000  Uiso   1.00
O132   O     0.99678   0.81197   0.36289   0.00000  Uiso   1.00
N133   N     0.71615   0.43721   0.42700   0.00000  Uiso   1.00
N134   N     0.98876   0.61553   0.29006   0.00000  Uiso   1.00
N135   N     0.91787   0.96326   0.32641   0.00000  Uiso   1.00
N136   N     0.83882   0.43743   0.51722   0.00000  Uiso   1.00
N137   N     0.11143   0.61576   0.38028   0.00000  Uiso   1.00
N138   N     0.04054   0.96349   0.41663   0.00000  Uiso   1.00
C139   C     0.09380   0.16687   0.15611   0.00000  Uiso   1.00
C140   C     0.10493   0.19225   0.11012   0.00000  Uiso   1.00
C141   C     0.18231   0.21509   0.12185   0.00000  Uiso   1.00
C142   C     0.17893   0.23620   0.07368   0.00000  Uiso   1.00
C143   C     0.20808   0.27592   0.01106   0.00000  Uiso   1.00
C144   C     0.02837   0.24322   0.14653   0.00000  Uiso   1.00
C145   C     0.04138   0.30889   0.18889   0.00000  Uiso   1.00
C146   C     0.97354   0.37289   0.17138   0.00000  Uiso   1.00
C147   C     0.88381   0.49169   0.16531   0.00000  Uiso   1.00
C148   C     0.04967   0.06301   0.13876   0.00000  Uiso   1.00
C149   C     0.08058   0.97716   0.17458   0.00000  Uiso   1.00
C150   C     0.03067   0.88944   0.15053   0.00000  Uiso   1.00
C151   C     0.97401   0.72844   0.13239   0.00000  Uiso   1.00
C152   C     0.95019   0.16375   0.04970   0.00000  Uiso   1.00
C153   C     0.02693   0.19056   0.05232   0.00000  Uiso   1.00
C154   C     0.02343   0.21164   0.00412   0.00000  Uiso   1.00
C155   C     0.10079   0.23450   0.01578   0.00000  Uiso   1.00
C156   C     0.95037   0.24153   0.08874   0.00000  Uiso   1.00
C157   C     0.88249   0.30544   0.07116   0.00000  Uiso   1.00
C158   C     0.89540   0.37120   0.11348   0.00000  Uiso   1.00
C159   C     0.97167   0.06131   0.08096   0.00000  Uiso   1.00
C160   C     0.92169   0.97371   0.05686   0.00000  Uiso   1.00
C161   C     0.95252   0.88775   0.09263   0.00000  Uiso   1.00
H162   H     0.15452   0.16819   0.20111   0.00000  Uiso   1.00
H163   H     0.24266   0.21640   0.16658   0.00000  Uiso   1.00
H164   H     0.10175   0.31018   0.23361   0.00000  Uiso   1.00
H165   H     0.14094   0.97850   0.21931   0.00000  Uiso   1.00
H166   H     0.30598   0.26914   0.10282   0.00000  Uiso   1.00
H167   H     0.00884   0.46685   0.24416   0.00000  Uiso   1.00
H168   H     0.09149   0.76744   0.21400   0.00000  Uiso   1.00
H169   H     0.88945   0.16243   0.00471   0.00000  Uiso   1.00
H170   H     0.96306   0.21032   0.95940   0.00000  Uiso   1.00
H171   H     0.82214   0.30411   0.02643   0.00000  Uiso   1.00
H172   H     0.86134   0.97243   0.01213   0.00000  Uiso   1.00
H173   H     0.07904   0.26421   0.93466   0.00000  Uiso   1.00
H174   H     0.78190   0.46192   0.07601   0.00000  Uiso   1.00
H175   H     0.86455   0.76252   0.04584   0.00000  Uiso   1.00
O176   O     0.24571   0.29832   0.99248   0.00000  Uiso   1.00
O177   O     0.85587   0.55769   0.17793   0.00000  Uiso   1.00
O178   O     0.96431   0.64009   0.13835   0.00000  Uiso   1.00
N179   N     0.24247   0.26139   0.06946   0.00000  Uiso   1.00
N180   N     0.96467   0.44625   0.20161   0.00000  Uiso   1.00
N181   N     0.04193   0.79237   0.17341   0.00000  Uiso   1.00
N182   N     0.12036   0.25873   0.97897   0.00000  Uiso   1.00
N183   N     0.84256   0.44359   0.11112   0.00000  Uiso   1.00
N184   N     0.91982   0.78972   0.08293   0.00000  Uiso   1.00
C185   C     0.36344   0.16139   0.83989   0.00000  Uiso   1.00
C186   C     0.35282   0.13418   0.88595   0.00000  Uiso   1.00
C187   C     0.27556   0.11141   0.87441   0.00000  Uiso   1.00
C188   C     0.27944   0.08846   0.92261   0.00000  Uiso   1.00
C189   C     0.25104   0.04618   0.98535   0.00000  Uiso   1.00
C190   C     0.42795   0.08501   0.84821   0.00000  Uiso   1.00
C191   C     0.41386   0.02092   0.80494   0.00000  Uiso   1.00
C192   C     0.48099   0.95660   0.82136   0.00000  Uiso   1.00
C193   C     0.56925   0.83804   0.82551   0.00000  Uiso   1.00
C194   C     0.40841   0.26478   0.85823   0.00000  Uiso   1.00
C195   C     0.37790   0.35183   0.82338   0.00000  Uiso   1.00
C196   C     0.42858   0.43886   0.84824   0.00000  Uiso   1.00
C197   C     0.48649   0.59942   0.86794   0.00000  Uiso   1.00
C198   C     0.50770   0.16112   0.94599   0.00000  Uiso   1.00
C199   C     0.43118   0.13403   0.94358   0.00000  Uiso   1.00
C200   C     0.43518   0.11111   0.99180   0.00000  Uiso   1.00
C201   C     0.35794   0.08832   0.98034   0.00000  Uiso   1.00
C202   C     0.50631   0.08486   0.90584   0.00000  Uiso   1.00
C203   C     0.57347   0.02063   0.92233   0.00000  Uiso   1.00
C204   C     0.55949   0.95645   0.87910   0.00000  Uiso   1.00
C205   C     0.48676   0.26464   0.91586   0.00000  Uiso   1.00
C206   C     0.53751   0.35154   0.94077   0.00000  Uiso   1.00
C207   C     0.50708   0.43871   0.90597   0.00000  Uiso   1.00
H208   H     0.30244   0.16149   0.79502   0.00000  Uiso   1.00
H209   H     0.21494   0.11152   0.82980   0.00000  Uiso   1.00
H210   H     0.35322   0.02106   0.76034   0.00000  Uiso   1.00
H211   H     0.31726   0.35192   0.77878   0.00000  Uiso   1.00
H212   H     0.15249   0.05601   0.89378   0.00000  Uiso   1.00
H213   H     0.44408   0.86529   0.74731   0.00000  Uiso   1.00
H214   H     0.36824   0.56298   0.78620   0.00000  Uiso   1.00
H215   H     0.56871   0.16101   0.99086   0.00000  Uiso   1.00
H216   H     0.49582   0.11101   0.03640   0.00000  Uiso   1.00
H217   H     0.63410   0.02054   0.96693   0.00000  Uiso   1.00
H218   H     0.59814   0.35140   0.98537   0.00000  Uiso   1.00
H219   H     0.38047   0.05559   0.06146   0.00000  Uiso   1.00
H220   H     0.67206   0.86487   0.91499   0.00000  Uiso   1.00
H221   H     0.59622   0.56256   0.95387   0.00000  Uiso   1.00
O222   O     0.21373   0.02288   0.00404   0.00000  Uiso   1.00
O223   O     0.59628   0.77268   0.81187   0.00000  Uiso   1.00
O224   O     0.49678   0.68803   0.86289   0.00000  Uiso   1.00
N225   N     0.21615   0.06279   0.92700   0.00000  Uiso   1.00
N226   N     0.48876   0.88447   0.79006   0.00000  Uiso   1.00
N227   N     0.41787   0.53674   0.82641   0.00000  Uiso   1.00
N228   N     0.33882   0.06257   0.01722   0.00000  Uiso   1.00
N229   N     0.61143   0.88424   0.88028   0.00000  Uiso   1.00
N230   N     0.54054   0.53651   0.91663   0.00000  Uiso   1.00
C231   C     0.59380   0.33313   0.65611   0.00000  Uiso   1.00
C232   C     0.60493   0.30775   0.61012   0.00000  Uiso   1.00
C233   C     0.68231   0.28491   0.62185   0.00000  Uiso   1.00
C234   C     0.67893   0.26380   0.57368   0.00000  Uiso   1.00
C235   C     0.70808   0.22408   0.51106   0.00000  Uiso   1.00
C236   C     0.52837   0.25678   0.64653   0.00000  Uiso   1.00
C237   C     0.54138   0.19111   0.68889   0.00000  Uiso   1.00
C238   C     0.47354   0.12711   0.67138   0.00000  Uiso   1.00
C239   C     0.38381   0.00831   0.66531   0.00000  Uiso   1.00
C240   C     0.54967   0.43699   0.63876   0.00000  Uiso   1.00
C241   C     0.58058   0.52284   0.67458   0.00000  Uiso   1.00
C242   C     0.53067   0.61056   0.65053   0.00000  Uiso   1.00
C243   C     0.47401   0.77156   0.63239   0.00000  Uiso   1.00
C244   C     0.45019   0.33625   0.54970   0.00000  Uiso   1.00
C245   C     0.52693   0.30944   0.55232   0.00000  Uiso   1.00
C246   C     0.52343   0.28836   0.50412   0.00000  Uiso   1.00
C247   C     0.60079   0.26550   0.51578   0.00000  Uiso   1.00
C248   C     0.45037   0.25847   0.58874   0.00000  Uiso   1.00
C249   C     0.38249   0.19456   0.57116   0.00000  Uiso   1.00
C250   C     0.39540   0.12880   0.61348   0.00000  Uiso   1.00
C251   C     0.47167   0.43869   0.58096   0.00000  Uiso   1.00
C252   C     0.42169   0.52629   0.55686   0.00000  Uiso   1.00
C253   C     0.45252   0.61225   0.59263   0.00000  Uiso   1.00
H254   H     0.65452   0.33181   0.70111   0.00000  Uiso   1.00
H255   H     0.74266   0.28360   0.66658   0.00000  Uiso   1.00
H256   H     0.60175   0.18982   0.73361   0.00000  Uiso   1.00
H257   H     0.64094   0.52150   0.71931   0.00000  Uiso   1.00
H258   H     0.80598   0.23086   0.60282   0.00000  Uiso   1.00
H259   H     0.50884   0.03315   0.74416   0.00000  Uiso   1.00
H260   H     0.59149   0.73256   0.71400   0.00000  Uiso   1.00
H261   H     0.38945   0.33757   0.50471   0.00000  Uiso   1.00
H262   H     0.46306   0.28968   0.45940   0.00000  Uiso   1.00
H263   H     0.32214   0.19589   0.52643   0.00000  Uiso   1.00
H264   H     0.36134   0.52757   0.51213   0.00000  Uiso   1.00
H265   H     0.57904   0.23579   0.43466   0.00000  Uiso   1.00
H266   H     0.28190   0.03808   0.57601   0.00000  Uiso   1.00
H267   H     0.36455   0.73748   0.54584   0.00000  Uiso   1.00
O268   O     0.74571   0.20168   0.49248   0.00000  Uiso   1.00
O269   O     0.35587   0.94231   0.67793   0.00000  Uiso   1.00
O270   O     0.46431   0.85991   0.63835   0.00000  Uiso   1.00
N271   N     0.74247   0.23861   0.56946   0.00000  Uiso   1.00
N272   N     0.46467   0.05375   0.70161   0.00000  Uiso   1.00
N273   N     0.54193   0.70763   0.67341   0.00000  Uiso   1.00
N274   N     0.62036   0.24127   0.47897   0.00000  Uiso   1.00
N275   N     0.34256   0.05641   0.61112   0.00000  Uiso   1.00
N276   N     0.41982   0.71028   0.58293   0.00000  Uiso   1.00
C277   C     0.86344   0.66139   0.83989   0.00000  Uiso   1.00
C278   C     0.85282   0.63418   0.88595   0.00000  Uiso   1.00
C279   C     0.77556   0.61141   0.87441   0.00000  Uiso   1.00
C280   C     0.77944   0.58846   0.92261   0.00000  Uiso   1.00
C281   C     0.75104   0.54618   0.98535   0.00000  Uiso   1.00
C282   C     0.92795   0.58501   0.84821   0.00000  Uiso   1.00
C283   C     0.91386   0.52092   0.80494   0.00000  Uiso   1.00
C284   C     0.98099   0.45660   0.82136   0.00000  Uiso   1.00
C285   C     0.06925   0.33804   0.82551   0.00000  Uiso   1.00
C286   C     0.90841   0.76478   0.85823   0.00000  Uiso   1.00
C287   C     0.87790   0.85183   0.82338   0.00000  Uiso   1.00
C288   C     0.92858   0.93886   0.84824   0.00000  Uiso   1.00
C289   C     0.98649   0.09942   0.86794   0.00000  Uiso   1.00
C290   C     0.00770   0.66112   0.94599   0.00000  Uiso   1.00
C291   C     0.93118   0.63403   0.94358   0.00000  Uiso   1.00
C292   C     0.93518   0.61111   0.99180   0.00000  Uiso   1.00
C293   C     0.85794   0.58832   0.98034   0.00000  Uiso   1.00
C294   C     0.00631   0.58486   0.90584   0.00000  Uiso   1.00
C295   C     0.07347   0.52063   0.92233   0.00000  Uiso   1.00
C296   C     0.05949   0.45645   0.87910   0.00000  Uiso   1.00
C297   C     0.98676   0.76464   0.91586   0.00000  Uiso   1.00
C298   C     0.03751   0.85154   0.94077   0.00000  Uiso   1.00
C299   C     0.00708   0.93871   0.90597   0.00000  Uiso   1.00
H300   H     0.80244   0.66149   0.79502   0.00000  Uiso   1.00
H301   H     0.71494   0.61152   0.82980   0.00000  Uiso   1.00
H302   H     0.85322   0.52106   0.76034   0.00000  Uiso   1.00
H303   H     0.81726   0.85192   0.77878   0.00000  Uiso   1.00
H304   H     0.65249   0.55601   0.89378   0.00000  Uiso   1.00
H305   H     0.94408   0.36529   0.74731   0.00000  Uiso   1.00
H306   H     0.86824   0.06298   0.78620   0.00000  Uiso   1.00
H307   H     0.06871   0.66101   0.99086   0.00000  Uiso   1.00
H308   H     0.99582   0.61101   0.03640   0.00000  Uiso   1.00
H309   H     0.13410   0.52054   0.96693   0.00000  Uiso   1.00
H310   H     0.09814   0.85140   0.98537   0.00000  Uiso   1.00
H311   H     0.88047   0.55559   0.06146   0.00000  Uiso   1.00
H312   H     0.17206   0.36487   0.91499   0.00000  Uiso   1.00
H313   H     0.09622   0.06256   0.95387   0.00000  Uiso   1.00
O314   O     0.71373   0.52288   0.00404   0.00000  Uiso   1.00
O315   O     0.09628   0.27268   0.81187   0.00000  Uiso   1.00
O316   O     0.99678   0.18803   0.86289   0.00000  Uiso   1.00
N317   N     0.71615   0.56279   0.92700   0.00000  Uiso   1.00
N318   N     0.98876   0.38447   0.79006   0.00000  Uiso   1.00
N319   N     0.91787   0.03674   0.82641   0.00000  Uiso   1.00
N320   N     0.83882   0.56257   0.01722   0.00000  Uiso   1.00
N321   N     0.11143   0.38424   0.88028   0.00000  Uiso   1.00
N322   N     0.04054   0.03651   0.91663   0.00000  Uiso   1.00
C323   C     0.09380   0.83313   0.65611   0.00000  Uiso   1.00
C324   C     0.10493   0.80775   0.61012   0.00000  Uiso   1.00
C325   C     0.18231   0.78491   0.62185   0.00000  Uiso   1.00
C326   C     0.17893   0.76380   0.57368   0.00000  Uiso   1.00
C327   C     0.20808   0.72408   0.51106   0.00000  Uiso   1.00
C328   C     0.02837   0.75678   0.64653   0.00000  Uiso   1.00
C329   C     0.04138   0.69111   0.68889   0.00000  Uiso   1.00
C330   C     0.97354   0.62711   0.67138   0.00000  Uiso   1.00
C331   C     0.88381   0.50831   0.66531   0.00000  Uiso   1.00
C332   C     0.04967   0.93699   0.63876   0.00000  Uiso   1.00
C333   C     0.08058   0.02284   0.67458   0.00000  Uiso   1.00
C334   C     0.03067   0.11056   0.65053   0.00000  Uiso   1.00
C335   C     0.97401   0.27156   0.63239   0.00000  Uiso   1.00
C336   C     0.95019   0.83625   0.54970   0.00000  Uiso   1.00
C337   C     0.02693   0.80944   0.55232   0.00000  Uiso   1.00
C338   C     0.02343   0.78836   0.50412   0.00000  Uiso   1.00
C339   C     0.10079   0.76550   0.51578   0.00000  Uiso   1.00
C340   C     0.95037   0.75847   0.58874   0.00000  Uiso   1.00
C341   C     0.88249   0.69456   0.57116   0.00000  Uiso   1.00
C342   C     0.89540   0.62880   0.61348   0.00000  Uiso   1.00
C343   C     0.97167   0.93869   0.58096   0.00000  Uiso   1.00
C344   C     0.92169   0.02629   0.55686   0.00000  Uiso   1.00
C345   C     0.95252   0.11225   0.59263   0.00000  Uiso   1.00
H346   H     0.15452   0.83181   0.70111   0.00000  Uiso   1.00
H347   H     0.24266   0.78360   0.66658   0.00000  Uiso   1.00
H348   H     0.10175   0.68982   0.73361   0.00000  Uiso   1.00
H349   H     0.14094   0.02150   0.71931   0.00000  Uiso   1.00
H350   H     0.30598   0.73086   0.60282   0.00000  Uiso   1.00
H351   H     0.00884   0.53315   0.74416   0.00000  Uiso   1.00
H352   H     0.09149   0.23256   0.71400   0.00000  Uiso   1.00
H353   H     0.88945   0.83757   0.50471   0.00000  Uiso   1.00
H354   H     0.96306   0.78968   0.45940   0.00000  Uiso   1.00
H355   H     0.82214   0.69589   0.52643   0.00000  Uiso   1.00
H356   H     0.86134   0.02757   0.51213   0.00000  Uiso   1.00
H357   H     0.07904   0.73579   0.43466   0.00000  Uiso   1.00
H358   H     0.78190   0.53808   0.57601   0.00000  Uiso   1.00
H359   H     0.86455   0.23748   0.54584   0.00000  Uiso   1.00
O360   O     0.24571   0.70168   0.49248   0.00000  Uiso   1.00
O361   O     0.85587   0.44231   0.67793   0.00000  Uiso   1.00
O362   O     0.96431   0.35991   0.63835   0.00000  Uiso   1.00
N363   N     0.24247   0.73861   0.56946   0.00000  Uiso   1.00
N364   N     0.96467   0.55375   0.70161   0.00000  Uiso   1.00
N365   N     0.04193   0.20763   0.67341   0.00000  Uiso   1.00
N366   N     0.12036   0.74127   0.47897   0.00000  Uiso   1.00
N367   N     0.84256   0.55641   0.61112   0.00000  Uiso   1.00
N368   N     0.91982   0.21028   0.58293   0.00000  Uiso   1.00
