data_job_03137
_audit_creation_date              2018-12-19
_audit_creation_method            'Materials Studio'
_symmetry_space_group_name_H-M    'P1'
_symmetry_Int_Tables_number       1
_symmetry_cell_setting            triclinic
loop_
_symmetry_equiv_pos_as_xyz
  x,y,z
_cell_length_a                    38.1352
_cell_length_b                    11.8684
_cell_length_c                    12.6578
_cell_angle_alpha                 90.0000
_cell_angle_beta                  90.0000
_cell_angle_gamma                 90.0000
loop_
_atom_site_label
_atom_site_type_symbol
_atom_site_fract_x
_atom_site_fract_y
_atom_site_fract_z
_atom_site_U_iso_or_equiv
_atom_site_adp_type
_atom_site_occupancy
C1     C     0.65266   0.76970   0.34077   0.00000  Uiso   1.00
C2     C     0.61988   0.77411   0.40965   0.00000  Uiso   1.00
C3     C     0.59352   0.85442   0.40325   0.00000  Uiso   1.00
C4     C     0.56570   0.84379   0.47331   0.00000  Uiso   1.00
C5     C     0.51502   0.86404   0.56908   0.00000  Uiso   1.00
C6     C     0.68372   0.77053   0.41666   0.00000  Uiso   1.00
C7     C     0.71102   0.84783   0.41614   0.00000  Uiso   1.00
C8     C     0.73694   0.83417   0.49209   0.00000  Uiso   1.00
C9     C     0.78538   0.84880   0.59869   0.00000  Uiso   1.00
C10    C     0.65266   0.65364   0.28908   0.00000  Uiso   1.00
C11    C     0.65386   0.63265   0.18128   0.00000  Uiso   1.00
C12    C     0.65365   0.52058   0.14982   0.00000  Uiso   1.00
C13    C     0.65386   0.35374   0.05832   0.00000  Uiso   1.00
C14    C     0.65014   0.60799   0.47658   0.00000  Uiso   1.00
C15    C     0.61852   0.68628   0.48342   0.00000  Uiso   1.00
C16    C     0.59073   0.67552   0.55351   0.00000  Uiso   1.00
C17    C     0.56433   0.75580   0.54721   0.00000  Uiso   1.00
C18    C     0.68235   0.68270   0.49043   0.00000  Uiso   1.00
C19    C     0.70824   0.66892   0.56640   0.00000  Uiso   1.00
C20    C     0.73557   0.74618   0.56600   0.00000  Uiso   1.00
C21    C     0.65129   0.56581   0.36285   0.00000  Uiso   1.00
C22    C     0.65107   0.45375   0.33154   0.00000  Uiso   1.00
C23    C     0.65228   0.43259   0.22372   0.00000  Uiso   1.00
H24    H     0.65373   0.83808   0.28334   0.00000  Uiso   1.00
H25    H     0.59459   0.92239   0.34615   0.00000  Uiso   1.00
H26    H     0.71208   0.91578   0.35904   0.00000  Uiso   1.00
H27    H     0.65492   0.70064   0.12422   0.00000  Uiso   1.00
H28    H     0.52843   0.97715   0.44835   0.00000  Uiso   1.00
H29    H     0.77616   0.96320   0.47549   0.00000  Uiso   1.00
H30    H     0.65564   0.50954   0.98032   0.00000  Uiso   1.00
H31    H     0.64908   0.53961   0.53402   0.00000  Uiso   1.00
H32    H     0.58968   0.60754   0.61059   0.00000  Uiso   1.00
H33    H     0.70717   0.60094   0.62347   0.00000  Uiso   1.00
H34    H     0.65001   0.38580   0.38865   0.00000  Uiso   1.00
H35    H     0.52444   0.72162   0.66298   0.00000  Uiso   1.00
H36    H     0.77218   0.70766   0.69011   0.00000  Uiso   1.00
H37    H     0.65166   0.25400   0.19495   0.00000  Uiso   1.00
O38    O     0.48745   0.89948   0.60153   0.00000  Uiso   1.00
O39    O     0.81247   0.88115   0.63712   0.00000  Uiso   1.00
O40    O     0.65435   0.28597   0.98748   0.00000  Uiso   1.00
N41    N     0.53564   0.90768   0.48834   0.00000  Uiso   1.00
N42    N     0.76725   0.89464   0.51372   0.00000  Uiso   1.00
N43    N     0.65459   0.47051   0.05079   0.00000  Uiso   1.00
N44    N     0.53349   0.77017   0.60383   0.00000  Uiso   1.00
N45    N     0.76511   0.75714   0.62921   0.00000  Uiso   1.00
N46    N     0.65244   0.33300   0.16628   0.00000  Uiso   1.00
C47    C     0.84734   0.23030   0.84077   0.00000  Uiso   1.00
C48    C     0.88012   0.22589   0.90965   0.00000  Uiso   1.00
C49    C     0.90648   0.14558   0.90325   0.00000  Uiso   1.00
C50    C     0.93430   0.15621   0.97331   0.00000  Uiso   1.00
C51    C     0.98498   0.13596   0.06908   0.00000  Uiso   1.00
C52    C     0.81628   0.22947   0.91666   0.00000  Uiso   1.00
C53    C     0.78898   0.15217   0.91614   0.00000  Uiso   1.00
C54    C     0.76306   0.16583   0.99209   0.00000  Uiso   1.00
C55    C     0.71462   0.15120   0.09869   0.00000  Uiso   1.00
C56    C     0.84734   0.34636   0.78908   0.00000  Uiso   1.00
C57    C     0.84614   0.36735   0.68128   0.00000  Uiso   1.00
C58    C     0.84635   0.47942   0.64982   0.00000  Uiso   1.00
C59    C     0.84614   0.64626   0.55832   0.00000  Uiso   1.00
C60    C     0.84986   0.39201   0.97658   0.00000  Uiso   1.00
C61    C     0.88148   0.31372   0.98342   0.00000  Uiso   1.00
C62    C     0.90927   0.32448   0.05351   0.00000  Uiso   1.00
C63    C     0.93567   0.24420   0.04721   0.00000  Uiso   1.00
C64    C     0.81765   0.31730   0.99043   0.00000  Uiso   1.00
C65    C     0.79176   0.33108   0.06640   0.00000  Uiso   1.00
C66    C     0.76443   0.25382   0.06600   0.00000  Uiso   1.00
C67    C     0.84871   0.43419   0.86285   0.00000  Uiso   1.00
C68    C     0.84893   0.54625   0.83154   0.00000  Uiso   1.00
C69    C     0.84772   0.56741   0.72372   0.00000  Uiso   1.00
H70    H     0.84627   0.16192   0.78334   0.00000  Uiso   1.00
H71    H     0.90541   0.07761   0.84615   0.00000  Uiso   1.00
H72    H     0.78792   0.08422   0.85904   0.00000  Uiso   1.00
H73    H     0.84508   0.29936   0.62422   0.00000  Uiso   1.00
H74    H     0.97157   0.02285   0.94835   0.00000  Uiso   1.00
H75    H     0.72384   0.03680   0.97549   0.00000  Uiso   1.00
H76    H     0.84436   0.49046   0.48032   0.00000  Uiso   1.00
H77    H     0.85092   0.46039   0.03402   0.00000  Uiso   1.00
H78    H     0.91032   0.39246   0.11059   0.00000  Uiso   1.00
H79    H     0.79283   0.39906   0.12347   0.00000  Uiso   1.00
H80    H     0.84999   0.61420   0.88865   0.00000  Uiso   1.00
H81    H     0.97556   0.27838   0.16298   0.00000  Uiso   1.00
H82    H     0.72782   0.29234   0.19011   0.00000  Uiso   1.00
H83    H     0.84834   0.74600   0.69495   0.00000  Uiso   1.00
O84    O     0.01255   0.10052   0.10153   0.00000  Uiso   1.00
O85    O     0.68753   0.11885   0.13712   0.00000  Uiso   1.00
O86    O     0.84565   0.71403   0.48748   0.00000  Uiso   1.00
N87    N     0.96436   0.09232   0.98834   0.00000  Uiso   1.00
N88    N     0.73275   0.10536   0.01372   0.00000  Uiso   1.00
N89    N     0.84541   0.52949   0.55079   0.00000  Uiso   1.00
N90    N     0.96651   0.22983   0.10383   0.00000  Uiso   1.00
N91    N     0.73489   0.24286   0.12921   0.00000  Uiso   1.00
N92    N     0.84756   0.66700   0.66628   0.00000  Uiso   1.00
C93    C     0.34734   0.26970   0.15923   0.00000  Uiso   1.00
C94    C     0.38012   0.27411   0.09035   0.00000  Uiso   1.00
C95    C     0.40648   0.35442   0.09675   0.00000  Uiso   1.00
C96    C     0.43430   0.34379   0.02669   0.00000  Uiso   1.00
C97    C     0.48498   0.36404   0.93092   0.00000  Uiso   1.00
C98    C     0.31628   0.27053   0.08334   0.00000  Uiso   1.00
C99    C     0.28898   0.34783   0.08386   0.00000  Uiso   1.00
C100   C     0.26306   0.33417   0.00791   0.00000  Uiso   1.00
C101   C     0.21462   0.34880   0.90131   0.00000  Uiso   1.00
C102   C     0.34734   0.15364   0.21092   0.00000  Uiso   1.00
C103   C     0.34614   0.13265   0.31872   0.00000  Uiso   1.00
C104   C     0.34635   0.02058   0.35018   0.00000  Uiso   1.00
C105   C     0.34614   0.85374   0.44168   0.00000  Uiso   1.00
C106   C     0.34986   0.10799   0.02342   0.00000  Uiso   1.00
C107   C     0.38148   0.18628   0.01658   0.00000  Uiso   1.00
C108   C     0.40927   0.17552   0.94649   0.00000  Uiso   1.00
C109   C     0.43567   0.25580   0.95279   0.00000  Uiso   1.00
C110   C     0.31765   0.18270   0.00957   0.00000  Uiso   1.00
C111   C     0.29176   0.16892   0.93360   0.00000  Uiso   1.00
C112   C     0.26443   0.24618   0.93400   0.00000  Uiso   1.00
C113   C     0.34871   0.06581   0.13715   0.00000  Uiso   1.00
C114   C     0.34893   0.95375   0.16846   0.00000  Uiso   1.00
C115   C     0.34772   0.93259   0.27628   0.00000  Uiso   1.00
H116   H     0.34627   0.33808   0.21666   0.00000  Uiso   1.00
H117   H     0.40541   0.42239   0.15385   0.00000  Uiso   1.00
H118   H     0.28792   0.41578   0.14096   0.00000  Uiso   1.00
H119   H     0.34508   0.20064   0.37578   0.00000  Uiso   1.00
H120   H     0.47157   0.47715   0.05165   0.00000  Uiso   1.00
H121   H     0.22384   0.46320   0.02451   0.00000  Uiso   1.00
H122   H     0.34436   0.00954   0.51968   0.00000  Uiso   1.00
H123   H     0.35092   0.03961   0.96598   0.00000  Uiso   1.00
H124   H     0.41032   0.10754   0.88941   0.00000  Uiso   1.00
H125   H     0.29283   0.10094   0.87653   0.00000  Uiso   1.00
H126   H     0.34999   0.88580   0.11135   0.00000  Uiso   1.00
H127   H     0.47556   0.22162   0.83702   0.00000  Uiso   1.00
H128   H     0.22782   0.20766   0.80989   0.00000  Uiso   1.00
H129   H     0.34834   0.75400   0.30505   0.00000  Uiso   1.00
O130   O     0.51255   0.39948   0.89847   0.00000  Uiso   1.00
O131   O     0.18753   0.38115   0.86288   0.00000  Uiso   1.00
O132   O     0.34565   0.78597   0.51252   0.00000  Uiso   1.00
N133   N     0.46436   0.40768   0.01166   0.00000  Uiso   1.00
N134   N     0.23275   0.39464   0.98628   0.00000  Uiso   1.00
N135   N     0.34541   0.97051   0.44921   0.00000  Uiso   1.00
N136   N     0.46651   0.27017   0.89617   0.00000  Uiso   1.00
N137   N     0.23489   0.25714   0.87079   0.00000  Uiso   1.00
N138   N     0.34756   0.83300   0.33372   0.00000  Uiso   1.00
C139   C     0.15266   0.73030   0.65923   0.00000  Uiso   1.00
C140   C     0.11988   0.72589   0.59035   0.00000  Uiso   1.00
C141   C     0.09352   0.64558   0.59675   0.00000  Uiso   1.00
C142   C     0.06570   0.65621   0.52669   0.00000  Uiso   1.00
C143   C     0.01502   0.63596   0.43092   0.00000  Uiso   1.00
C144   C     0.18372   0.72947   0.58334   0.00000  Uiso   1.00
C145   C     0.21102   0.65217   0.58386   0.00000  Uiso   1.00
C146   C     0.23694   0.66583   0.50791   0.00000  Uiso   1.00
C147   C     0.28538   0.65120   0.40131   0.00000  Uiso   1.00
C148   C     0.15266   0.84636   0.71092   0.00000  Uiso   1.00
C149   C     0.15386   0.86735   0.81872   0.00000  Uiso   1.00
C150   C     0.15365   0.97942   0.85018   0.00000  Uiso   1.00
C151   C     0.15386   0.14626   0.94168   0.00000  Uiso   1.00
C152   C     0.15014   0.89201   0.52342   0.00000  Uiso   1.00
C153   C     0.11852   0.81372   0.51658   0.00000  Uiso   1.00
C154   C     0.09073   0.82448   0.44649   0.00000  Uiso   1.00
C155   C     0.06433   0.74420   0.45279   0.00000  Uiso   1.00
C156   C     0.18235   0.81730   0.50957   0.00000  Uiso   1.00
C157   C     0.20824   0.83108   0.43360   0.00000  Uiso   1.00
C158   C     0.23557   0.75382   0.43400   0.00000  Uiso   1.00
C159   C     0.15129   0.93419   0.63715   0.00000  Uiso   1.00
C160   C     0.15107   0.04625   0.66846   0.00000  Uiso   1.00
C161   C     0.15228   0.06741   0.77628   0.00000  Uiso   1.00
H162   H     0.15373   0.66192   0.71666   0.00000  Uiso   1.00
H163   H     0.09459   0.57761   0.65385   0.00000  Uiso   1.00
H164   H     0.21208   0.58422   0.64096   0.00000  Uiso   1.00
H165   H     0.15492   0.79936   0.87578   0.00000  Uiso   1.00
H166   H     0.02843   0.52285   0.55165   0.00000  Uiso   1.00
H167   H     0.27616   0.53680   0.52451   0.00000  Uiso   1.00
H168   H     0.15564   0.99046   0.01968   0.00000  Uiso   1.00
H169   H     0.14908   0.96039   0.46598   0.00000  Uiso   1.00
H170   H     0.08968   0.89246   0.38941   0.00000  Uiso   1.00
H171   H     0.20717   0.89906   0.37653   0.00000  Uiso   1.00
H172   H     0.15001   0.11420   0.61135   0.00000  Uiso   1.00
H173   H     0.02444   0.77838   0.33702   0.00000  Uiso   1.00
H174   H     0.27218   0.79234   0.30989   0.00000  Uiso   1.00
H175   H     0.15166   0.24600   0.80505   0.00000  Uiso   1.00
O176   O     0.98745   0.60052   0.39847   0.00000  Uiso   1.00
O177   O     0.31247   0.61885   0.36288   0.00000  Uiso   1.00
O178   O     0.15435   0.21403   0.01252   0.00000  Uiso   1.00
N179   N     0.03564   0.59232   0.51166   0.00000  Uiso   1.00
N180   N     0.26725   0.60536   0.48628   0.00000  Uiso   1.00
N181   N     0.15459   0.02949   0.94921   0.00000  Uiso   1.00
N182   N     0.03349   0.72983   0.39617   0.00000  Uiso   1.00
N183   N     0.26511   0.74286   0.37079   0.00000  Uiso   1.00
N184   N     0.15244   0.16700   0.83372   0.00000  Uiso   1.00
C185   C     0.34734   0.23030   0.65923   0.00000  Uiso   1.00
C186   C     0.38012   0.22589   0.59035   0.00000  Uiso   1.00
C187   C     0.40648   0.14558   0.59675   0.00000  Uiso   1.00
C188   C     0.43430   0.15621   0.52669   0.00000  Uiso   1.00
C189   C     0.48498   0.13596   0.43092   0.00000  Uiso   1.00
C190   C     0.31628   0.22947   0.58334   0.00000  Uiso   1.00
C191   C     0.28898   0.15217   0.58386   0.00000  Uiso   1.00
C192   C     0.26306   0.16583   0.50791   0.00000  Uiso   1.00
C193   C     0.21462   0.15120   0.40131   0.00000  Uiso   1.00
C194   C     0.34734   0.34636   0.71092   0.00000  Uiso   1.00
C195   C     0.34614   0.36735   0.81872   0.00000  Uiso   1.00
C196   C     0.34635   0.47942   0.85018   0.00000  Uiso   1.00
C197   C     0.34614   0.64626   0.94168   0.00000  Uiso   1.00
C198   C     0.34986   0.39201   0.52342   0.00000  Uiso   1.00
C199   C     0.38148   0.31372   0.51658   0.00000  Uiso   1.00
C200   C     0.40927   0.32448   0.44649   0.00000  Uiso   1.00
C201   C     0.43567   0.24420   0.45279   0.00000  Uiso   1.00
C202   C     0.31765   0.31730   0.50957   0.00000  Uiso   1.00
C203   C     0.29176   0.33108   0.43360   0.00000  Uiso   1.00
C204   C     0.26443   0.25382   0.43400   0.00000  Uiso   1.00
C205   C     0.34871   0.43419   0.63715   0.00000  Uiso   1.00
C206   C     0.34893   0.54625   0.66846   0.00000  Uiso   1.00
C207   C     0.34772   0.56741   0.77628   0.00000  Uiso   1.00
H208   H     0.34627   0.16192   0.71666   0.00000  Uiso   1.00
H209   H     0.40541   0.07761   0.65385   0.00000  Uiso   1.00
H210   H     0.28792   0.08422   0.64096   0.00000  Uiso   1.00
H211   H     0.34508   0.29936   0.87578   0.00000  Uiso   1.00
H212   H     0.47157   0.02285   0.55165   0.00000  Uiso   1.00
H213   H     0.22384   0.03680   0.52451   0.00000  Uiso   1.00
H214   H     0.34436   0.49046   0.01968   0.00000  Uiso   1.00
H215   H     0.35092   0.46039   0.46598   0.00000  Uiso   1.00
H216   H     0.41032   0.39246   0.38941   0.00000  Uiso   1.00
H217   H     0.29283   0.39906   0.37653   0.00000  Uiso   1.00
H218   H     0.34999   0.61420   0.61135   0.00000  Uiso   1.00
H219   H     0.47556   0.27838   0.33702   0.00000  Uiso   1.00
H220   H     0.22782   0.29234   0.30989   0.00000  Uiso   1.00
H221   H     0.34834   0.74600   0.80505   0.00000  Uiso   1.00
O222   O     0.51255   0.10052   0.39847   0.00000  Uiso   1.00
O223   O     0.18753   0.11885   0.36288   0.00000  Uiso   1.00
O224   O     0.34565   0.71403   0.01252   0.00000  Uiso   1.00
N225   N     0.46436   0.09232   0.51166   0.00000  Uiso   1.00
N226   N     0.23275   0.10536   0.48628   0.00000  Uiso   1.00
N227   N     0.34541   0.52949   0.94921   0.00000  Uiso   1.00
N228   N     0.46651   0.22983   0.39617   0.00000  Uiso   1.00
N229   N     0.23489   0.24286   0.37079   0.00000  Uiso   1.00
N230   N     0.34756   0.66700   0.83372   0.00000  Uiso   1.00
C231   C     0.15266   0.76970   0.15923   0.00000  Uiso   1.00
C232   C     0.11988   0.77411   0.09035   0.00000  Uiso   1.00
C233   C     0.09352   0.85442   0.09675   0.00000  Uiso   1.00
C234   C     0.06570   0.84379   0.02669   0.00000  Uiso   1.00
C235   C     0.01502   0.86404   0.93092   0.00000  Uiso   1.00
C236   C     0.18372   0.77053   0.08334   0.00000  Uiso   1.00
C237   C     0.21102   0.84783   0.08386   0.00000  Uiso   1.00
C238   C     0.23694   0.83417   0.00791   0.00000  Uiso   1.00
C239   C     0.28538   0.84880   0.90131   0.00000  Uiso   1.00
C240   C     0.15266   0.65364   0.21092   0.00000  Uiso   1.00
C241   C     0.15386   0.63265   0.31872   0.00000  Uiso   1.00
C242   C     0.15365   0.52058   0.35018   0.00000  Uiso   1.00
C243   C     0.15386   0.35374   0.44168   0.00000  Uiso   1.00
C244   C     0.15014   0.60799   0.02342   0.00000  Uiso   1.00
C245   C     0.11852   0.68628   0.01658   0.00000  Uiso   1.00
C246   C     0.09073   0.67552   0.94649   0.00000  Uiso   1.00
C247   C     0.06433   0.75580   0.95279   0.00000  Uiso   1.00
C248   C     0.18235   0.68270   0.00957   0.00000  Uiso   1.00
C249   C     0.20824   0.66892   0.93360   0.00000  Uiso   1.00
C250   C     0.23557   0.74618   0.93400   0.00000  Uiso   1.00
C251   C     0.15129   0.56581   0.13715   0.00000  Uiso   1.00
C252   C     0.15107   0.45375   0.16846   0.00000  Uiso   1.00
C253   C     0.15228   0.43259   0.27628   0.00000  Uiso   1.00
H254   H     0.15373   0.83808   0.21666   0.00000  Uiso   1.00
H255   H     0.09459   0.92239   0.15385   0.00000  Uiso   1.00
H256   H     0.21208   0.91578   0.14096   0.00000  Uiso   1.00
H257   H     0.15492   0.70064   0.37578   0.00000  Uiso   1.00
H258   H     0.02843   0.97715   0.05165   0.00000  Uiso   1.00
H259   H     0.27616   0.96320   0.02451   0.00000  Uiso   1.00
H260   H     0.15564   0.50954   0.51968   0.00000  Uiso   1.00
H261   H     0.14908   0.53961   0.96598   0.00000  Uiso   1.00
H262   H     0.08968   0.60754   0.88941   0.00000  Uiso   1.00
H263   H     0.20717   0.60094   0.87653   0.00000  Uiso   1.00
H264   H     0.15001   0.38580   0.11135   0.00000  Uiso   1.00
H265   H     0.02444   0.72162   0.83702   0.00000  Uiso   1.00
H266   H     0.27218   0.70766   0.80989   0.00000  Uiso   1.00
H267   H     0.15166   0.25400   0.30505   0.00000  Uiso   1.00
O268   O     0.98745   0.89948   0.89847   0.00000  Uiso   1.00
O269   O     0.31247   0.88115   0.86288   0.00000  Uiso   1.00
O270   O     0.15435   0.28597   0.51252   0.00000  Uiso   1.00
N271   N     0.03564   0.90768   0.01166   0.00000  Uiso   1.00
N272   N     0.26725   0.89464   0.98628   0.00000  Uiso   1.00
N273   N     0.15459   0.47051   0.44921   0.00000  Uiso   1.00
N274   N     0.03349   0.77017   0.89617   0.00000  Uiso   1.00
N275   N     0.26511   0.75714   0.87079   0.00000  Uiso   1.00
N276   N     0.15244   0.33300   0.33372   0.00000  Uiso   1.00
C277   C     0.65266   0.73030   0.84077   0.00000  Uiso   1.00
C278   C     0.61988   0.72589   0.90965   0.00000  Uiso   1.00
C279   C     0.59352   0.64558   0.90325   0.00000  Uiso   1.00
C280   C     0.56570   0.65621   0.97331   0.00000  Uiso   1.00
C281   C     0.51502   0.63596   0.06908   0.00000  Uiso   1.00
C282   C     0.68372   0.72947   0.91666   0.00000  Uiso   1.00
C283   C     0.71102   0.65217   0.91614   0.00000  Uiso   1.00
C284   C     0.73694   0.66583   0.99209   0.00000  Uiso   1.00
C285   C     0.78538   0.65120   0.09869   0.00000  Uiso   1.00
C286   C     0.65266   0.84636   0.78908   0.00000  Uiso   1.00
C287   C     0.65386   0.86735   0.68128   0.00000  Uiso   1.00
C288   C     0.65365   0.97942   0.64982   0.00000  Uiso   1.00
C289   C     0.65386   0.14626   0.55832   0.00000  Uiso   1.00
C290   C     0.65014   0.89201   0.97658   0.00000  Uiso   1.00
C291   C     0.61852   0.81372   0.98342   0.00000  Uiso   1.00
C292   C     0.59073   0.82448   0.05351   0.00000  Uiso   1.00
C293   C     0.56433   0.74420   0.04721   0.00000  Uiso   1.00
C294   C     0.68235   0.81730   0.99043   0.00000  Uiso   1.00
C295   C     0.70824   0.83108   0.06640   0.00000  Uiso   1.00
C296   C     0.73557   0.75382   0.06600   0.00000  Uiso   1.00
C297   C     0.65129   0.93419   0.86285   0.00000  Uiso   1.00
C298   C     0.65107   0.04625   0.83154   0.00000  Uiso   1.00
C299   C     0.65228   0.06741   0.72372   0.00000  Uiso   1.00
H300   H     0.65373   0.66192   0.78334   0.00000  Uiso   1.00
H301   H     0.59459   0.57761   0.84615   0.00000  Uiso   1.00
H302   H     0.71208   0.58422   0.85904   0.00000  Uiso   1.00
H303   H     0.65492   0.79936   0.62422   0.00000  Uiso   1.00
H304   H     0.52843   0.52285   0.94835   0.00000  Uiso   1.00
H305   H     0.77616   0.53680   0.97549   0.00000  Uiso   1.00
H306   H     0.65564   0.99046   0.48032   0.00000  Uiso   1.00
H307   H     0.64908   0.96039   0.03402   0.00000  Uiso   1.00
H308   H     0.58968   0.89246   0.11059   0.00000  Uiso   1.00
H309   H     0.70717   0.89906   0.12347   0.00000  Uiso   1.00
H310   H     0.65001   0.11420   0.88865   0.00000  Uiso   1.00
H311   H     0.52444   0.77838   0.16298   0.00000  Uiso   1.00
H312   H     0.77218   0.79234   0.19011   0.00000  Uiso   1.00
H313   H     0.65166   0.24600   0.69495   0.00000  Uiso   1.00
O314   O     0.48745   0.60052   0.10153   0.00000  Uiso   1.00
O315   O     0.81247   0.61885   0.13712   0.00000  Uiso   1.00
O316   O     0.65435   0.21403   0.48748   0.00000  Uiso   1.00
N317   N     0.53564   0.59232   0.98834   0.00000  Uiso   1.00
N318   N     0.76725   0.60536   0.01372   0.00000  Uiso   1.00
N319   N     0.65459   0.02949   0.55079   0.00000  Uiso   1.00
N320   N     0.53349   0.72983   0.10383   0.00000  Uiso   1.00
N321   N     0.76511   0.74286   0.12921   0.00000  Uiso   1.00
N322   N     0.65244   0.16700   0.66628   0.00000  Uiso   1.00
C323   C     0.84734   0.26970   0.34077   0.00000  Uiso   1.00
C324   C     0.88012   0.27411   0.40965   0.00000  Uiso   1.00
C325   C     0.90648   0.35442   0.40325   0.00000  Uiso   1.00
C326   C     0.93430   0.34379   0.47331   0.00000  Uiso   1.00
C327   C     0.98498   0.36404   0.56908   0.00000  Uiso   1.00
C328   C     0.81628   0.27053   0.41666   0.00000  Uiso   1.00
C329   C     0.78898   0.34783   0.41614   0.00000  Uiso   1.00
C330   C     0.76306   0.33417   0.49209   0.00000  Uiso   1.00
C331   C     0.71462   0.34880   0.59869   0.00000  Uiso   1.00
C332   C     0.84734   0.15364   0.28908   0.00000  Uiso   1.00
C333   C     0.84614   0.13265   0.18128   0.00000  Uiso   1.00
C334   C     0.84635   0.02058   0.14982   0.00000  Uiso   1.00
C335   C     0.84614   0.85374   0.05832   0.00000  Uiso   1.00
C336   C     0.84986   0.10799   0.47658   0.00000  Uiso   1.00
C337   C     0.88148   0.18628   0.48342   0.00000  Uiso   1.00
C338   C     0.90927   0.17552   0.55351   0.00000  Uiso   1.00
C339   C     0.93567   0.25580   0.54721   0.00000  Uiso   1.00
C340   C     0.81765   0.18270   0.49043   0.00000  Uiso   1.00
C341   C     0.79176   0.16892   0.56640   0.00000  Uiso   1.00
C342   C     0.76443   0.24618   0.56600   0.00000  Uiso   1.00
C343   C     0.84871   0.06581   0.36285   0.00000  Uiso   1.00
C344   C     0.84893   0.95375   0.33154   0.00000  Uiso   1.00
C345   C     0.84772   0.93259   0.22372   0.00000  Uiso   1.00
H346   H     0.84627   0.33808   0.28334   0.00000  Uiso   1.00
H347   H     0.90541   0.42239   0.34615   0.00000  Uiso   1.00
H348   H     0.78792   0.41578   0.35904   0.00000  Uiso   1.00
H349   H     0.84508   0.20064   0.12422   0.00000  Uiso   1.00
H350   H     0.97157   0.47715   0.44835   0.00000  Uiso   1.00
H351   H     0.72384   0.46320   0.47549   0.00000  Uiso   1.00
H352   H     0.84436   0.00954   0.98032   0.00000  Uiso   1.00
H353   H     0.85092   0.03961   0.53402   0.00000  Uiso   1.00
H354   H     0.91032   0.10754   0.61059   0.00000  Uiso   1.00
H355   H     0.79283   0.10094   0.62347   0.00000  Uiso   1.00
H356   H     0.84999   0.88580   0.38865   0.00000  Uiso   1.00
H357   H     0.97556   0.22162   0.66298   0.00000  Uiso   1.00
H358   H     0.72782   0.20766   0.69011   0.00000  Uiso   1.00
H359   H     0.84834   0.75400   0.19495   0.00000  Uiso   1.00
O360   O     0.01255   0.39948   0.60153   0.00000  Uiso   1.00
O361   O     0.68753   0.38115   0.63712   0.00000  Uiso   1.00
O362   O     0.84565   0.78597   0.98748   0.00000  Uiso   1.00
N363   N     0.96436   0.40768   0.48834   0.00000  Uiso   1.00
N364   N     0.73275   0.39464   0.51372   0.00000  Uiso   1.00
N365   N     0.84541   0.97051   0.05079   0.00000  Uiso   1.00
N366   N     0.96651   0.27017   0.60383   0.00000  Uiso   1.00
N367   N     0.73489   0.25714   0.62921   0.00000  Uiso   1.00
N368   N     0.84756   0.83300   0.16628   0.00000  Uiso   1.00
