data_job_06746
_audit_creation_date              2018-12-19
_audit_creation_method            'Materials Studio'
_symmetry_space_group_name_H-M    'P1'
_symmetry_Int_Tables_number       1
_symmetry_cell_setting            triclinic
loop_
_symmetry_equiv_pos_as_xyz
  x,y,z
_cell_length_a                    20.4448
_cell_length_b                    22.0598
_cell_length_c                    22.4558
_cell_angle_alpha                 67.2370
_cell_angle_beta                  73.1598
_cell_angle_gamma                 67.5393
loop_
_atom_site_label
_atom_site_type_symbol
_atom_site_fract_x
_atom_site_fract_y
_atom_site_fract_z
_atom_site_U_iso_or_equiv
_atom_site_adp_type
_atom_site_occupancy
C1     C     0.57278   0.23945   0.84054   0.00000  Uiso   1.00
C2     C     0.49130   0.26739   0.85678   0.00000  Uiso   1.00
C3     C     0.45306   0.32948   0.86956   0.00000  Uiso   1.00
C4     C     0.37879   0.34577   0.88342   0.00000  Uiso   1.00
C5     C     0.25755   0.39587   0.90852   0.00000  Uiso   1.00
C6     C     0.59455   0.16844   0.89112   0.00000  Uiso   1.00
C7     C     0.64314   0.14734   0.93277   0.00000  Uiso   1.00
C8     C     0.65579   0.08032   0.97552   0.00000  Uiso   1.00
C9     C     0.69490   0.97678   0.05390   0.00000  Uiso   1.00
C10    C     0.58868   0.22665   0.77500   0.00000  Uiso   1.00
C11    C     0.63236   0.25448   0.71901   0.00000  Uiso   1.00
C12    C     0.64009   0.23646   0.66400   0.00000  Uiso   1.00
C13    C     0.67008   0.22331   0.56209   0.00000  Uiso   1.00
C14    C     0.50886   0.15794   0.84241   0.00000  Uiso   1.00
C15    C     0.45658   0.22311   0.85780   0.00000  Uiso   1.00
C16    C     0.38234   0.23930   0.87164   0.00000  Uiso   1.00
C17    C     0.34401   0.30142   0.88443   0.00000  Uiso   1.00
C18    C     0.55983   0.12416   0.89214   0.00000  Uiso   1.00
C19    C     0.57242   0.05716   0.93484   0.00000  Uiso   1.00
C20    C     0.62101   0.03596   0.97654   0.00000  Uiso   1.00
C21    C     0.55396   0.18238   0.77602   0.00000  Uiso   1.00
C22    C     0.56163   0.16430   0.72109   0.00000  Uiso   1.00
C23    C     0.60531   0.19210   0.66503   0.00000  Uiso   1.00
H24    H     0.59981   0.27391   0.83975   0.00000  Uiso   1.00
H25    H     0.47995   0.36373   0.86878   0.00000  Uiso   1.00
H26    H     0.67000   0.18161   0.93196   0.00000  Uiso   1.00
H27    H     0.65922   0.28874   0.71824   0.00000  Uiso   1.00
H28    H     0.33176   0.44378   0.90143   0.00000  Uiso   1.00
H29    H     0.73251   0.05975   0.03465   0.00000  Uiso   1.00
H30    H     0.70977   0.28566   0.58398   0.00000  Uiso   1.00
H31    H     0.48183   0.12346   0.84321   0.00000  Uiso   1.00
H32    H     0.35549   0.20503   0.87242   0.00000  Uiso   1.00
H33    H     0.54555   0.02291   0.93561   0.00000  Uiso   1.00
H34    H     0.53476   0.13004   0.72189   0.00000  Uiso   1.00
H35    H     0.23074   0.31497   0.90439   0.00000  Uiso   1.00
H36    H     0.63150   0.93094   0.03761   0.00000  Uiso   1.00
H37    H     0.60875   0.15685   0.58694   0.00000  Uiso   1.00
O38    O     0.20027   0.43573   0.92209   0.00000  Uiso   1.00
O39    O     0.72606   0.93191   0.09686   0.00000  Uiso   1.00
O40    O     0.69621   0.22830   0.50559   0.00000  Uiso   1.00
N41    N     0.32532   0.40227   0.89810   0.00000  Uiso   1.00
N42    N     0.69999   0.04324   0.02266   0.00000  Uiso   1.00
N43    N     0.67875   0.25443   0.60133   0.00000  Uiso   1.00
N44    N     0.27097   0.33296   0.89970   0.00000  Uiso   1.00
N45    N     0.64564   0.97393   0.02426   0.00000  Uiso   1.00
N46    N     0.62439   0.18512   0.60293   0.00000  Uiso   1.00
C47    C     0.80875   0.46589   0.24746   0.00000  Uiso   1.00
C48    C     0.86206   0.40297   0.22859   0.00000  Uiso   1.00
C49    C     0.92343   0.40279   0.18142   0.00000  Uiso   1.00
C50    C     0.96521   0.33995   0.17139   0.00000  Uiso   1.00
C51    C     0.05086   0.25145   0.13662   0.00000  Uiso   1.00
C52    C     0.73570   0.47090   0.23807   0.00000  Uiso   1.00
C53    C     0.69082   0.52784   0.19887   0.00000  Uiso   1.00
C54    C     0.62621   0.52217   0.19684   0.00000  Uiso   1.00
C55    C     0.51566   0.53916   0.17682   0.00000  Uiso   1.00
C56    C     0.80453   0.44752   0.32100   0.00000  Uiso   1.00
C57    C     0.81752   0.48482   0.35153   0.00000  Uiso   1.00
C58    C     0.81085   0.45948   0.41932   0.00000  Uiso   1.00
C59    C     0.80718   0.44017   0.52805   0.00000  Uiso   1.00
C60    C     0.77381   0.35459   0.31355   0.00000  Uiso   1.00
C61    C     0.84308   0.34252   0.26449   0.00000  Uiso   1.00
C62    C     0.88478   0.27965   0.25454   0.00000  Uiso   1.00
C63    C     0.94620   0.27938   0.20736   0.00000  Uiso   1.00
C64    C     0.71672   0.41045   0.27397   0.00000  Uiso   1.00
C65    C     0.65216   0.40470   0.27200   0.00000  Uiso   1.00
C66    C     0.60720   0.46161   0.23281   0.00000  Uiso   1.00
C67    C     0.78556   0.38707   0.35690   0.00000  Uiso   1.00
C68    C     0.77886   0.36167   0.42466   0.00000  Uiso   1.00
C69    C     0.79184   0.39891   0.45528   0.00000  Uiso   1.00
H70    H     0.82352   0.51296   0.21950   0.00000  Uiso   1.00
H71    H     0.93810   0.44959   0.15364   0.00000  Uiso   1.00
H72    H     0.70552   0.57462   0.17110   0.00000  Uiso   1.00
H73    H     0.83220   0.53160   0.32373   0.00000  Uiso   1.00
H74    H     0.05675   0.35268   0.09643   0.00000  Uiso   1.00
H75    H     0.56633   0.61632   0.13326   0.00000  Uiso   1.00
H76    H     0.83346   0.52560   0.45512   0.00000  Uiso   1.00
H77    H     0.75903   0.30752   0.34151   0.00000  Uiso   1.00
H78    H     0.87007   0.23288   0.28233   0.00000  Uiso   1.00
H79    H     0.63749   0.35791   0.29979   0.00000  Uiso   1.00
H80    H     0.76417   0.31489   0.45242   0.00000  Uiso   1.00
H81    H     0.00154   0.17679   0.20088   0.00000  Uiso   1.00
H82    H     0.51111   0.44043   0.23772   0.00000  Uiso   1.00
H83    H     0.77825   0.34971   0.55957   0.00000  Uiso   1.00
O84    O     0.10334   0.21935   0.10751   0.00000  Uiso   1.00
O85    O     0.45992   0.56523   0.15585   0.00000  Uiso   1.00
O86    O     0.81040   0.44621   0.57811   0.00000  Uiso   1.00
N87    N     0.02852   0.32153   0.12914   0.00000  Uiso   1.00
N88    N     0.57001   0.56801   0.16357   0.00000  Uiso   1.00
N89    N     0.81974   0.48321   0.46448   0.00000  Uiso   1.00
N90    N     0.99881   0.22688   0.18535   0.00000  Uiso   1.00
N91    N     0.54030   0.47336   0.21978   0.00000  Uiso   1.00
N92    N     0.79003   0.38856   0.52068   0.00000  Uiso   1.00
C93    C     0.46959   0.29653   0.37766   0.00000  Uiso   1.00
C94    C     0.42622   0.37283   0.35802   0.00000  Uiso   1.00
C95    C     0.42428   0.42106   0.38439   0.00000  Uiso   1.00
C96    C     0.38129   0.48828   0.35983   0.00000  Uiso   1.00
C97    C     0.31994   0.60397   0.33684   0.00000  Uiso   1.00
C98    C     0.41575   0.25677   0.39805   0.00000  Uiso   1.00
C99    C     0.40502   0.20741   0.45808   0.00000  Uiso   1.00
C100   C     0.35322   0.17692   0.46721   0.00000  Uiso   1.00
C101   C     0.27567   0.11238   0.50635   0.00000  Uiso   1.00
C102   C     0.51682   0.28303   0.31488   0.00000  Uiso   1.00
C103   C     0.59107   0.25573   0.30498   0.00000  Uiso   1.00
C104   C     0.62437   0.24733   0.24409   0.00000  Uiso   1.00
C105   C     0.70375   0.22356   0.15409   0.00000  Uiso   1.00
C106   C     0.39669   0.33014   0.28714   0.00000  Uiso   1.00
C107   C     0.38662   0.39109   0.30886   0.00000  Uiso   1.00
C108   C     0.34363   0.45825   0.28424   0.00000  Uiso   1.00
C109   C     0.34162   0.50657   0.31057   0.00000  Uiso   1.00
C110   C     0.37616   0.27502   0.34889   0.00000  Uiso   1.00
C111   C     0.32437   0.24459   0.35793   0.00000  Uiso   1.00
C112   C     0.31355   0.19520   0.41795   0.00000  Uiso   1.00
C113   C     0.47723   0.30128   0.26571   0.00000  Uiso   1.00
C114   C     0.51042   0.29292   0.20483   0.00000  Uiso   1.00
C115   C     0.58471   0.26562   0.19483   0.00000  Uiso   1.00
H116   H     0.50041   0.28232   0.41594   0.00000  Uiso   1.00
H117   H     0.45492   0.40691   0.42245   0.00000  Uiso   1.00
H118   H     0.43567   0.19329   0.49612   0.00000  Uiso   1.00
H119   H     0.62170   0.24161   0.34304   0.00000  Uiso   1.00
H120   H     0.38701   0.55310   0.40799   0.00000  Uiso   1.00
H121   H     0.34644   0.10264   0.56332   0.00000  Uiso   1.00
H122   H     0.73871   0.20453   0.24053   0.00000  Uiso   1.00
H123   H     0.36586   0.34435   0.24886   0.00000  Uiso   1.00
H124   H     0.31299   0.47236   0.24619   0.00000  Uiso   1.00
H125   H     0.29374   0.25873   0.31987   0.00000  Uiso   1.00
H126   H     0.47976   0.30705   0.16679   0.00000  Uiso   1.00
H127   H     0.27181   0.60621   0.26494   0.00000  Uiso   1.00
H128   H     0.23124   0.15575   0.42027   0.00000  Uiso   1.00
H129   H     0.62351   0.25764   0.09748   0.00000  Uiso   1.00
O130   O     0.29704   0.66273   0.33774   0.00000  Uiso   1.00
O131   O     0.24382   0.07174   0.54152   0.00000  Uiso   1.00
O132   O     0.75847   0.20542   0.11803   0.00000  Uiso   1.00
N133   N     0.36716   0.54803   0.37468   0.00000  Uiso   1.00
N134   N     0.32922   0.12689   0.51991   0.00000  Uiso   1.00
N135   N     0.69596   0.22213   0.21813   0.00000  Uiso   1.00
N136   N     0.30518   0.57662   0.29771   0.00000  Uiso   1.00
N137   N     0.26724   0.15547   0.44293   0.00000  Uiso   1.00
N138   N     0.63398   0.25071   0.14116   0.00000  Uiso   1.00
C139   C     0.24725   0.74209   0.84391   0.00000  Uiso   1.00
C140   C     0.29080   0.79151   0.80230   0.00000  Uiso   1.00
C141   C     0.26322   0.85982   0.76565   0.00000  Uiso   1.00
C142   C     0.31191   0.89641   0.73094   0.00000  Uiso   1.00
C143   C     0.36833   0.97781   0.66605   0.00000  Uiso   1.00
C144   C     0.26434   0.71624   0.91291   0.00000  Uiso   1.00
C145   C     0.21452   0.72125   0.96925   0.00000  Uiso   1.00
C146   C     0.24094   0.69446   0.02765   0.00000  Uiso   1.00
C147   C     0.25627   0.65896   0.13450   0.00000  Uiso   1.00
C148   C     0.27948   0.67982   0.81896   0.00000  Uiso   1.00
C149   C     0.24238   0.65421   0.79632   0.00000  Uiso   1.00
C150   C     0.28155   0.59675   0.77564   0.00000  Uiso   1.00
C151   C     0.32039   0.50472   0.73661   0.00000  Uiso   1.00
C152   C     0.38276   0.68560   0.84745   0.00000  Uiso   1.00
C153   C     0.36440   0.76082   0.80422   0.00000  Uiso   1.00
C154   C     0.41315   0.79732   0.76955   0.00000  Uiso   1.00
C155   C     0.38565   0.86567   0.73285   0.00000  Uiso   1.00
C156   C     0.33794   0.68555   0.91483   0.00000  Uiso   1.00
C157   C     0.36444   0.65875   0.97316   0.00000  Uiso   1.00
C158   C     0.31468   0.66373   0.02958   0.00000  Uiso   1.00
C159   C     0.35309   0.64914   0.82088   0.00000  Uiso   1.00
C160   C     0.39231   0.59171   0.80023   0.00000  Uiso   1.00
C161   C     0.35529   0.56601   0.77756   0.00000  Uiso   1.00
H162   H     0.18995   0.76598   0.84242   0.00000  Uiso   1.00
H163   H     0.20626   0.88354   0.76418   0.00000  Uiso   1.00
H164   H     0.15756   0.74499   0.96775   0.00000  Uiso   1.00
H165   H     0.18543   0.67796   0.79484   0.00000  Uiso   1.00
H166   H     0.25680   0.00036   0.67829   0.00000  Uiso   1.00
H167   H     0.15411   0.70819   0.10755   0.00000  Uiso   1.00
H168   H     0.21287   0.56685   0.74294   0.00000  Uiso   1.00
H169   H     0.44007   0.66171   0.84894   0.00000  Uiso   1.00
H170   H     0.47011   0.77356   0.77105   0.00000  Uiso   1.00
H171   H     0.42141   0.63501   0.97463   0.00000  Uiso   1.00
H172   H     0.44927   0.56798   0.80172   0.00000  Uiso   1.00
H173   H     0.47094   0.91110   0.68387   0.00000  Uiso   1.00
H174   H     0.36826   0.61893   0.11313   0.00000  Uiso   1.00
H175   H     0.42702   0.47759   0.74852   0.00000  Uiso   1.00
O176   O     0.37911   0.03120   0.62975   0.00000  Uiso   1.00
O177   O     0.24439   0.64787   0.19291   0.00000  Uiso   1.00
O178   O     0.32149   0.46244   0.71455   0.00000  Uiso   1.00
N179   N     0.30308   0.96400   0.69029   0.00000  Uiso   1.00
N180   N     0.20707   0.69085   0.09161   0.00000  Uiso   1.00
N181   N     0.26200   0.55870   0.75075   0.00000  Uiso   1.00
N182   N     0.41831   0.91597   0.69329   0.00000  Uiso   1.00
N183   N     0.32231   0.64282   0.09461   0.00000  Uiso   1.00
N184   N     0.37724   0.51066   0.75375   0.00000  Uiso   1.00
C185   C     0.94238   0.81725   0.33596   0.00000  Uiso   1.00
C186   C     0.90089   0.88691   0.34723   0.00000  Uiso   1.00
C187   C     0.89641   0.95104   0.30021   0.00000  Uiso   1.00
C188   C     0.85578   0.00865   0.32028   0.00000  Uiso   1.00
C189   C     0.79664   0.11778   0.32792   0.00000  Uiso   1.00
C190   C     0.88805   0.77785   0.35729   0.00000  Uiso   1.00
C191   C     0.87278   0.75029   0.31873   0.00000  Uiso   1.00
C192   C     0.82135   0.71608   0.34727   0.00000  Uiso   1.00
C193   C     0.74231   0.65586   0.37054   0.00000  Uiso   1.00
C194   C     0.99419   0.77893   0.38509   0.00000  Uiso   1.00
C195   C     0.06816   0.75225   0.36992   0.00000  Uiso   1.00
C196   C     0.10608   0.71894   0.42188   0.00000  Uiso   1.00
C197   C     0.19184   0.66039   0.48831   0.00000  Uiso   1.00
C198   C     0.87819   0.80550   0.45522   0.00000  Uiso   1.00
C199   C     0.86603   0.88052   0.41201   0.00000  Uiso   1.00
C200   C     0.82540   0.93804   0.43216   0.00000  Uiso   1.00
C201   C     0.82086   0.00225   0.38518   0.00000  Uiso   1.00
C202   C     0.85319   0.77147   0.42206   0.00000  Uiso   1.00
C203   C     0.80177   0.73729   0.45067   0.00000  Uiso   1.00
C204   C     0.78642   0.70968   0.41217   0.00000  Uiso   1.00
C205   C     0.95933   0.77255   0.44987   0.00000  Uiso   1.00
C206   C     0.99714   0.73926   0.50186   0.00000  Uiso   1.00
C207   C     0.07116   0.71254   0.48677   0.00000  Uiso   1.00
H208   H     0.96952   0.82222   0.28553   0.00000  Uiso   1.00
H209   H     0.92339   0.95596   0.25008   0.00000  Uiso   1.00
H210   H     0.89977   0.75523   0.26860   0.00000  Uiso   1.00
H211   H     0.09512   0.75720   0.31978   0.00000  Uiso   1.00
H212   H     0.85686   0.10143   0.23935   0.00000  Uiso   1.00
H213   H     0.80708   0.67816   0.27840   0.00000  Uiso   1.00
H214   H     0.21900   0.68231   0.38633   0.00000  Uiso   1.00
H215   H     0.85105   0.80052   0.50565   0.00000  Uiso   1.00
H216   H     0.79842   0.93309   0.48229   0.00000  Uiso   1.00
H217   H     0.77480   0.73235   0.50080   0.00000  Uiso   1.00
H218   H     0.97015   0.73433   0.55199   0.00000  Uiso   1.00
H219   H     0.75543   0.08287   0.42781   0.00000  Uiso   1.00
H220   H     0.70565   0.65959   0.46686   0.00000  Uiso   1.00
H221   H     0.11757   0.66375   0.57479   0.00000  Uiso   1.00
O222   O     0.77364   0.17974   0.31423   0.00000  Uiso   1.00
O223   O     0.70834   0.62441   0.36547   0.00000  Uiso   1.00
O224   O     0.24878   0.62987   0.50707   0.00000  Uiso   1.00
N225   N     0.84022   0.07887   0.28691   0.00000  Uiso   1.00
N226   N     0.79367   0.68314   0.32342   0.00000  Uiso   1.00
N227   N     0.17878   0.68701   0.42432   0.00000  Uiso   1.00
N228   N     0.78564   0.06888   0.38832   0.00000  Uiso   1.00
N229   N     0.73909   0.67315   0.42483   0.00000  Uiso   1.00
N230   N     0.12420   0.67702   0.52574   0.00000  Uiso   1.00
C231   C     0.84093   0.84294   0.94369   0.00000  Uiso   1.00
C232   C     0.82033   0.91859   0.90178   0.00000  Uiso   1.00
C233   C     0.83689   0.97081   0.90848   0.00000  Uiso   1.00
C234   C     0.81321   0.03664   0.86533   0.00000  Uiso   1.00
C235   C     0.78715   0.15212   0.80755   0.00000  Uiso   1.00
C236   C     0.88258   0.80172   0.89613   0.00000  Uiso   1.00
C237   C     0.95149   0.75567   0.89808   0.00000  Uiso   1.00
C238   C     0.98020   0.72310   0.85017   0.00000  Uiso   1.00
C239   C     0.05077   0.65710   0.78365   0.00000  Uiso   1.00
C240   C     0.77088   0.82497   0.97249   0.00000  Uiso   1.00
C241   C     0.74587   0.79846   0.03863   0.00000  Uiso   1.00
C242   C     0.68054   0.78545   0.05501   0.00000  Uiso   1.00
C243   C     0.57769   0.75555   0.10704   0.00000  Uiso   1.00
C244   C     0.76941   0.86698   0.85516   0.00000  Uiso   1.00
C245   C     0.78148   0.93165   0.85370   0.00000  Uiso   1.00
C246   C     0.75776   0.99741   0.81053   0.00000  Uiso   1.00
C247   C     0.77428   0.04972   0.81716   0.00000  Uiso   1.00
C248   C     0.84374   0.81477   0.84805   0.00000  Uiso   1.00
C249   C     0.87235   0.78226   0.80013   0.00000  Uiso   1.00
C250   C     0.94128   0.73618   0.80200   0.00000  Uiso   1.00
C251   C     0.73203   0.83803   0.92440   0.00000  Uiso   1.00
C252   C     0.66673   0.82506   0.94069   0.00000  Uiso   1.00
C253   C     0.64162   0.79853   0.00684   0.00000  Uiso   1.00
H254   H     0.87118   0.83277   0.98112   0.00000  Uiso   1.00
H255   H     0.86697   0.96069   0.94569   0.00000  Uiso   1.00
H256   H     0.98153   0.74557   0.93530   0.00000  Uiso   1.00
H257   H     0.77595   0.78836   0.07583   0.00000  Uiso   1.00
H258   H     0.84518   0.10826   0.88518   0.00000  Uiso   1.00
H259   H     0.08674   0.65466   0.86328   0.00000  Uiso   1.00
H260   H     0.65323   0.74488   0.15962   0.00000  Uiso   1.00
H261   H     0.73916   0.87714   0.81773   0.00000  Uiso   1.00
H262   H     0.72769   0.00750   0.77333   0.00000  Uiso   1.00
H263   H     0.84227   0.79238   0.76293   0.00000  Uiso   1.00
H264   H     0.63668   0.83517   0.90346   0.00000  Uiso   1.00
H265   H     0.73215   0.14625   0.74528   0.00000  Uiso   1.00
H266   H     0.97371   0.69265   0.72339   0.00000  Uiso   1.00
H267   H     0.54019   0.78287   0.01972   0.00000  Uiso   1.00
O268   O     0.78352   0.21220   0.78896   0.00000  Uiso   1.00
O269   O     0.10044   0.61709   0.76024   0.00000  Uiso   1.00
O270   O     0.53168   0.73546   0.14902   0.00000  Uiso   1.00
N271   N     0.82014   0.09932   0.85836   0.00000  Uiso   1.00
N272   N     0.04599   0.67523   0.83788   0.00000  Uiso   1.00
N273   N     0.64070   0.75957   0.11493   0.00000  Uiso   1.00
N274   N     0.75931   0.11976   0.78308   0.00000  Uiso   1.00
N275   N     0.98517   0.69568   0.76260   0.00000  Uiso   1.00
N276   N     0.57988   0.78001   0.03965   0.00000  Uiso   1.00
C277   C     0.41686   0.94499   0.02681   0.00000  Uiso   1.00
C278   C     0.42807   0.96487   0.95239   0.00000  Uiso   1.00
C279   C     0.48290   0.92871   0.91398   0.00000  Uiso   1.00
C280   C     0.48382   0.95535   0.84680   0.00000  Uiso   1.00
C281   C     0.50913   0.97699   0.73546   0.00000  Uiso   1.00
C282   C     0.34097   0.93936   0.05142   0.00000  Uiso   1.00
C283   C     0.32257   0.88175   0.09627   0.00000  Uiso   1.00
C284   C     0.25016   0.88693   0.11245   0.00000  Uiso   1.00
C285   C     0.14024   0.86898   0.15488   0.00000  Uiso   1.00
C286   C     0.41584   0.00722   0.04168   0.00000  Uiso   1.00
C287   C     0.46037   0.00667   0.07837   0.00000  Uiso   1.00
C288   C     0.45098   0.06897   0.08636   0.00000  Uiso   1.00
C289   C     0.45730   0.15638   0.11368   0.00000  Uiso   1.00
C290   C     0.32099   0.05661   0.97581   0.00000  Uiso   1.00
C291   C     0.37599   0.02550   0.92469   0.00000  Uiso   1.00
C292   C     0.37683   0.05221   0.85755   0.00000  Uiso   1.00
C293   C     0.43166   0.01609   0.81904   0.00000  Uiso   1.00
C294   C     0.28889   0.99999   0.02371   0.00000  Uiso   1.00
C295   C     0.21650   0.00525   0.03983   0.00000  Uiso   1.00
C296   C     0.19799   0.94767   0.08469   0.00000  Uiso   1.00
C297   C     0.36376   0.06785   0.01398   0.00000  Uiso   1.00
C298   C     0.35430   0.13017   0.02193   0.00000  Uiso   1.00
C299   C     0.39881   0.12971   0.05861   0.00000  Uiso   1.00
H300   H     0.45740   0.89778   0.04839   0.00000  Uiso   1.00
H301   H     0.52319   0.88178   0.93544   0.00000  Uiso   1.00
H302   H     0.36288   0.83484   0.11770   0.00000  Uiso   1.00
H303   H     0.50066   0.95974   0.09980   0.00000  Uiso   1.00
H304   H     0.57315   0.89078   0.79801   0.00000  Uiso   1.00
H305   H     0.23512   0.79181   0.18233   0.00000  Uiso   1.00
H306   H     0.52566   0.05517   0.14458   0.00000  Uiso   1.00
H307   H     0.28044   0.10382   0.95424   0.00000  Uiso   1.00
H308   H     0.33653   0.09913   0.83612   0.00000  Uiso   1.00
H309   H     0.17621   0.05218   0.01839   0.00000  Uiso   1.00
H310   H     0.31400   0.17708   0.00048   0.00000  Uiso   1.00
H311   H     0.42165   0.06718   0.71739   0.00000  Uiso   1.00
H312   H     0.08362   0.96821   0.10172   0.00000  Uiso   1.00
H313   H     0.37416   0.23157   0.06396   0.00000  Uiso   1.00
O314   O     0.53747   0.97216   0.68170   0.00000  Uiso   1.00
O315   O     0.09399   0.84232   0.18593   0.00000  Uiso   1.00
O316   O     0.47518   0.18785   0.13639   0.00000  Uiso   1.00
N317   N     0.52980   0.93294   0.79524   0.00000  Uiso   1.00
N318   N     0.21377   0.84041   0.15456   0.00000  Uiso   1.00
N319   N     0.48539   0.08662   0.11927   0.00000  Uiso   1.00
N320   N     0.44828   0.02786   0.75187   0.00000  Uiso   1.00
N321   N     0.13225   0.93533   0.11118   0.00000  Uiso   1.00
N322   N     0.40387   0.18155   0.07590   0.00000  Uiso   1.00
C323   C     0.94930   0.86734   0.58843   0.00000  Uiso   1.00
C324   C     0.87108   0.86834   0.60727   0.00000  Uiso   1.00
C325   C     0.84678   0.81349   0.61844   0.00000  Uiso   1.00
C326   C     0.77315   0.82477   0.63519   0.00000  Uiso   1.00
C327   C     0.65892   0.81660   0.66366   0.00000  Uiso   1.00
C328   C     0.96305   0.88791   0.64011   0.00000  Uiso   1.00
C329   C     0.01608   0.84951   0.67889   0.00000  Uiso   1.00
C330   C     0.01987   0.87727   0.72328   0.00000  Uiso   1.00
C331   C     0.04846   0.89950   0.80270   0.00000  Uiso   1.00
C332   C     0.95379   0.92634   0.52467   0.00000  Uiso   1.00
C333   C     0.99905   0.92026   0.46640   0.00000  Uiso   1.00
C334   C     0.99506   0.98038   0.41360   0.00000  Uiso   1.00
C335   C     0.00927   0.06228   0.31379   0.00000  Uiso   1.00
C336   C     0.86175   0.98491   0.59828   0.00000  Uiso   1.00
C337   C     0.82352   0.93220   0.61262   0.00000  Uiso   1.00
C338   C     0.74991   0.94357   0.62935   0.00000  Uiso   1.00
C339   C     0.72551   0.88875   0.64055   0.00000  Uiso   1.00
C340   C     0.91549   0.95177   0.64546   0.00000  Uiso   1.00
C341   C     0.91921   0.97959   0.68980   0.00000  Uiso   1.00
C342   C     0.97223   0.94125   0.72864   0.00000  Uiso   1.00
C343   C     0.90623   0.99020   0.53002   0.00000  Uiso   1.00
C344   C     0.90217   0.05034   0.47730   0.00000  Uiso   1.00
C345   C     0.94742   0.04435   0.41896   0.00000  Uiso   1.00
H346   H     0.98633   0.81762   0.58426   0.00000  Uiso   1.00
H347   H     0.88360   0.76407   0.61430   0.00000  Uiso   1.00
H348   H     0.05288   0.80009   0.67473   0.00000  Uiso   1.00
H349   H     0.03585   0.87083   0.46227   0.00000  Uiso   1.00
H350   H     0.74874   0.73286   0.64999   0.00000  Uiso   1.00
H351   H     0.10568   0.80882   0.77740   0.00000  Uiso   1.00
H352   H     0.06977   0.95799   0.32938   0.00000  Uiso   1.00
H353   H     0.82472   0.03464   0.60245   0.00000  Uiso   1.00
H354   H     0.71312   0.99300   0.63349   0.00000  Uiso   1.00
H355   H     0.88240   0.02902   0.69392   0.00000  Uiso   1.00
H356   H     0.86537   0.09975   0.48146   0.00000  Uiso   1.00
H357   H     0.61037   0.91866   0.66557   0.00000  Uiso   1.00
H358   H     0.96732   0.99463   0.79297   0.00000  Uiso   1.00
H359   H     0.93140   0.14379   0.34496   0.00000  Uiso   1.00
O360   O     0.60906   0.79445   0.67789   0.00000  Uiso   1.00
O361   O     0.07736   0.89411   0.84503   0.00000  Uiso   1.00
O362   O     0.03024   0.08981   0.25725   0.00000  Uiso   1.00
N363   N     0.73149   0.78231   0.64939   0.00000  Uiso   1.00
N364   N     0.06520   0.85332   0.76851   0.00000  Uiso   1.00
N365   N     0.03164   0.99278   0.34966   0.00000  Uiso   1.00
N366   N     0.65703   0.88229   0.65777   0.00000  Uiso   1.00
N367   N     0.99075   0.95330   0.77689   0.00000  Uiso   1.00
N368   N     0.95718   0.09276   0.35804   0.00000  Uiso   1.00
C369   C     0.45180   0.96014   0.40721   0.00000  Uiso   1.00
C370   C     0.48597   0.99978   0.42534   0.00000  Uiso   1.00
C371   C     0.49499   0.98898   0.48796   0.00000  Uiso   1.00
C372   C     0.52746   0.03062   0.49435   0.00000  Uiso   1.00
C373   C     0.57711   0.08445   0.53077   0.00000  Uiso   1.00
C374   C     0.50757   0.93021   0.35570   0.00000  Uiso   1.00
C375   C     0.53475   0.86091   0.35977   0.00000  Uiso   1.00
C376   C     0.58540   0.84398   0.30753   0.00000  Uiso   1.00
C377   C     0.66854   0.78980   0.23581   0.00000  Uiso   1.00
C378   C     0.39039   0.01427   0.37203   0.00000  Uiso   1.00
C379   C     0.31905   0.01564   0.38982   0.00000  Uiso   1.00
C380   C     0.27104   0.06948   0.35131   0.00000  Uiso   1.00
C381   C     0.17224   0.14581   0.30495   0.00000  Uiso   1.00
C382   C     0.49341   0.05329   0.30718   0.00000  Uiso   1.00
C383   C     0.50857   0.05037   0.37101   0.00000  Uiso   1.00
C384   C     0.54103   0.09204   0.37730   0.00000  Uiso   1.00
C385   C     0.55010   0.08130   0.43993   0.00000  Uiso   1.00
C386   C     0.53017   0.98080   0.30138   0.00000  Uiso   1.00
C387   C     0.58078   0.96397   0.24911   0.00000  Uiso   1.00
C388   C     0.60804   0.89466   0.25310   0.00000  Uiso   1.00
C389   C     0.41299   0.06486   0.31770   0.00000  Uiso   1.00
C390   C     0.36508   0.11870   0.27916   0.00000  Uiso   1.00
C391   C     0.29368   0.12016   0.29689   0.00000  Uiso   1.00
H392   H     0.43421   0.92075   0.44950   0.00000  Uiso   1.00
H393   H     0.47750   0.94982   0.53000   0.00000  Uiso   1.00
H394   H     0.51725   0.82177   0.40182   0.00000  Uiso   1.00
H395   H     0.30158   0.97648   0.43186   0.00000  Uiso   1.00
H396   H     0.53549   0.00434   0.59528   0.00000  Uiso   1.00
H397   H     0.61927   0.73435   0.32500   0.00000  Uiso   1.00
H398   H     0.16449   0.06058   0.38835   0.00000  Uiso   1.00
H399   H     0.51101   0.09268   0.26489   0.00000  Uiso   1.00
H400   H     0.55851   0.13118   0.33525   0.00000  Uiso   1.00
H401   H     0.59826   0.00313   0.20707   0.00000  Uiso   1.00
H402   H     0.38259   0.15784   0.23712   0.00000  Uiso   1.00
H403   H     0.60125   0.15154   0.43722   0.00000  Uiso   1.00
H404   H     0.68503   0.88155   0.16693   0.00000  Uiso   1.00
H405   H     0.23025   0.20778   0.23029   0.00000  Uiso   1.00
O406   O     0.59826   0.10015   0.56586   0.00000  Uiso   1.00
O407   O     0.70816   0.74594   0.21126   0.00000  Uiso   1.00
O408   O     0.11150   0.17394   0.29439   0.00000  Uiso   1.00
N409   N     0.54443   0.03371   0.54842   0.00000  Uiso   1.00
N410   N     0.62277   0.78128   0.29573   0.00000  Uiso   1.00
N411   N     0.19759   0.08627   0.35495   0.00000  Uiso   1.00
N412   N     0.57981   0.11292   0.46337   0.00000  Uiso   1.00
N413   N     0.65815   0.86049   0.21068   0.00000  Uiso   1.00
N414   N     0.23298   0.16548   0.26990   0.00000  Uiso   1.00
C415   C     0.59318   0.46838   0.00611   0.00000  Uiso   1.00
C416   C     0.51649   0.46785   0.01527   0.00000  Uiso   1.00
C417   C     0.46867   0.46019   0.07389   0.00000  Uiso   1.00
C418   C     0.40099   0.46109   0.07207   0.00000  Uiso   1.00
C419   C     0.28484   0.45898   0.09519   0.00000  Uiso   1.00
C420   C     0.64103   0.41147   0.97600   0.00000  Uiso   1.00
C421   C     0.69791   0.35640   0.00159   0.00000  Uiso   1.00
C422   C     0.73508   0.30984   0.96670   0.00000  Uiso   1.00
C423   C     0.81230   0.22023   0.92882   0.00000  Uiso   1.00
C424   C     0.59793   0.53624   0.95339   0.00000  Uiso   1.00
C425   C     0.61860   0.58608   0.95997   0.00000  Uiso   1.00
C426   C     0.61950   0.64457   0.90604   0.00000  Uiso   1.00
C427   C     0.62981   0.74868   0.83306   0.00000  Uiso   1.00
C428   C     0.55804   0.48362   0.89862   0.00000  Uiso   1.00
C429   C     0.49741   0.47613   0.95689   0.00000  Uiso   1.00
C430   C     0.42979   0.47704   0.95497   0.00000  Uiso   1.00
C431   C     0.38187   0.46938   0.01358   0.00000  Uiso   1.00
C432   C     0.62194   0.41974   0.91761   0.00000  Uiso   1.00
C433   C     0.65904   0.37326   0.88267   0.00000  Uiso   1.00
C434   C     0.71596   0.31813   0.90821   0.00000  Uiso   1.00
C435   C     0.57884   0.54452   0.89501   0.00000  Uiso   1.00
C436   C     0.57972   0.60294   0.84105   0.00000  Uiso   1.00
C437   C     0.60038   0.65286   0.84755   0.00000  Uiso   1.00
H438   H     0.60804   0.46193   0.05156   0.00000  Uiso   1.00
H439   H     0.48346   0.45377   0.11907   0.00000  Uiso   1.00
H440   H     0.71267   0.35001   0.04677   0.00000  Uiso   1.00
H441   H     0.63337   0.57966   0.00516   0.00000  Uiso   1.00
H442   H     0.33693   0.44836   0.16817   0.00000  Uiso   1.00
H443   H     0.82025   0.22958   0.01572   0.00000  Uiso   1.00
H444   H     0.65303   0.71384   0.92797   0.00000  Uiso   1.00
H445   H     0.54318   0.49006   0.85316   0.00000  Uiso   1.00
H446   H     0.41504   0.48345   0.90978   0.00000  Uiso   1.00
H447   H     0.64425   0.37968   0.83749   0.00000  Uiso   1.00
H448   H     0.56495   0.60933   0.79588   0.00000  Uiso   1.00
H449   H     0.28140   0.47244   0.99831   0.00000  Uiso   1.00
H450   H     0.76473   0.25366   0.84586   0.00000  Uiso   1.00
H451   H     0.59750   0.73792   0.75811   0.00000  Uiso   1.00
O452   O     0.22605   0.45552   0.12407   0.00000  Uiso   1.00
O453   O     0.86016   0.16850   0.92406   0.00000  Uiso   1.00
O454   O     0.64076   0.80383   0.80894   0.00000  Uiso   1.00
N455   N     0.34144   0.45495   0.12042   0.00000  Uiso   1.00
N456   N     0.79331   0.25040   0.97789   0.00000  Uiso   1.00
N457   N     0.63699   0.70313   0.89585   0.00000  Uiso   1.00
N458   N     0.31156   0.46791   0.02902   0.00000  Uiso   1.00
N459   N     0.76343   0.26336   0.88649   0.00000  Uiso   1.00
N460   N     0.60711   0.71608   0.80445   0.00000  Uiso   1.00
C461   C     0.08857   0.33410   0.50843   0.00000  Uiso   1.00
C462   C     0.10803   0.34569   0.43483   0.00000  Uiso   1.00
C463   C     0.09003   0.31460   0.40130   0.00000  Uiso   1.00
C464   C     0.11287   0.33201   0.33402   0.00000  Uiso   1.00
C465   C     0.13712   0.34286   0.22467   0.00000  Uiso   1.00
C466   C     0.15933   0.31044   0.53281   0.00000  Uiso   1.00
C467   C     0.18445   0.24970   0.58167   0.00000  Uiso   1.00
C468   C     0.25047   0.23743   0.59687   0.00000  Uiso   1.00
C469   C     0.35434   0.19357   0.63968   0.00000  Uiso   1.00
C470   C     0.04808   0.40525   0.51664   0.00000  Uiso   1.00
C471   C     0.97968   0.42422   0.55192   0.00000  Uiso   1.00
C472   C     0.95204   0.49178   0.55352   0.00000  Uiso   1.00
C473   C     0.88318   0.59513   0.57122   0.00000  Uiso   1.00
C474   C     0.16113   0.42032   0.44856   0.00000  Uiso   1.00
C475   C     0.14744   0.39253   0.40230   0.00000  Uiso   1.00
C476   C     0.17031   0.40999   0.33505   0.00000  Uiso   1.00
C477   C     0.15235   0.37893   0.30143   0.00000  Uiso   1.00
C478   C     0.19874   0.35727   0.50029   0.00000  Uiso   1.00
C479   C     0.26473   0.34509   0.51542   0.00000  Uiso   1.00
C480   C     0.28995   0.28435   0.56429   0.00000  Uiso   1.00
C481   C     0.08749   0.45208   0.48411   0.00000  Uiso   1.00
C482   C     0.05996   0.51962   0.48567   0.00000  Uiso   1.00
C483   C     0.99152   0.53870   0.52094   0.00000  Uiso   1.00
H484   H     0.05789   0.29763   0.53376   0.00000  Uiso   1.00
H485   H     0.05954   0.27835   0.42649   0.00000  Uiso   1.00
H486   H     0.15394   0.21347   0.60683   0.00000  Uiso   1.00
H487   H     0.94920   0.38797   0.57708   0.00000  Uiso   1.00
H488   H     0.07877   0.27760   0.29322   0.00000  Uiso   1.00
H489   H     0.27781   0.14080   0.67350   0.00000  Uiso   1.00
H490   H     0.84607   0.50877   0.61077   0.00000  Uiso   1.00
H491   H     0.19181   0.45679   0.42324   0.00000  Uiso   1.00
H492   H     0.20081   0.44624   0.30990   0.00000  Uiso   1.00
H493   H     0.29521   0.38135   0.49025   0.00000  Uiso   1.00
H494   H     0.09047   0.55585   0.46049   0.00000  Uiso   1.00
H495   H     0.19343   0.41386   0.19859   0.00000  Uiso   1.00
H496   H     0.39247   0.27706   0.57888   0.00000  Uiso   1.00
H497   H     0.96073   0.64504   0.51614   0.00000  Uiso   1.00
O498   O     0.13962   0.33590   0.17335   0.00000  Uiso   1.00
O499   O     0.40074   0.15644   0.67227   0.00000  Uiso   1.00
O500   O     0.83431   0.63920   0.58996   0.00000  Uiso   1.00
N501   N     0.10451   0.31113   0.28650   0.00000  Uiso   1.00
N502   N     0.29060   0.18322   0.64204   0.00000  Uiso   1.00
N503   N     0.88697   0.52724   0.58340   0.00000  Uiso   1.00
N504   N     0.16620   0.38445   0.23558   0.00000  Uiso   1.00
N505   N     0.35230   0.25655   0.59112   0.00000  Uiso   1.00
N506   N     0.94867   0.60056   0.53248   0.00000  Uiso   1.00
C507   C     0.96869   0.40280   0.82348   0.00000  Uiso   1.00
C508   C     0.99172   0.33458   0.87723   0.00000  Uiso   1.00
C509   C     0.96898   0.27761   0.89315   0.00000  Uiso   1.00
C510   C     0.99625   0.22011   0.94389   0.00000  Uiso   1.00
C511   C     0.02465   0.11427   0.02227   0.00000  Uiso   1.00
C512   C     0.93757   0.45865   0.85689   0.00000  Uiso   1.00
C513   C     0.86929   0.50600   0.85570   0.00000  Uiso   1.00
C514   C     0.85098   0.55295   0.88931   0.00000  Uiso   1.00
C515   C     0.79532   0.63976   0.93607   0.00000  Uiso   1.00
C516   C     0.03768   0.41461   0.77869   0.00000  Uiso   1.00
C517   C     0.05358   0.42495   0.71174   0.00000  Uiso   1.00
C518   C     0.11956   0.43484   0.67952   0.00000  Uiso   1.00
C519   C     0.21934   0.45327   0.60486   0.00000  Uiso   1.00
C520   C     0.05757   0.40199   0.88530   0.00000  Uiso   1.00
C521   C     0.04000   0.33414   0.91081   0.00000  Uiso   1.00
C522   C     0.06732   0.27671   0.96154   0.00000  Uiso   1.00
C523   C     0.04462   0.21967   0.97753   0.00000  Uiso   1.00
C524   C     0.98584   0.45821   0.89047   0.00000  Uiso   1.00
C525   C     0.96763   0.50510   0.92409   0.00000  Uiso   1.00
C526   C     0.89935   0.55251   0.92295   0.00000  Uiso   1.00
C527   C     0.08596   0.41417   0.81227   0.00000  Uiso   1.00
C528   C     0.15193   0.42405   0.78014   0.00000  Uiso   1.00
C529   C     0.16793   0.43440   0.71316   0.00000  Uiso   1.00
H530   H     0.93110   0.40314   0.79734   0.00000  Uiso   1.00
H531   H     0.93161   0.27798   0.86715   0.00000  Uiso   1.00
H532   H     0.83194   0.50633   0.82970   0.00000  Uiso   1.00
H533   H     0.01621   0.42529   0.68577   0.00000  Uiso   1.00
H534   H     0.95345   0.13902   0.95938   0.00000  Uiso   1.00
H535   H     0.74331   0.62053   0.88039   0.00000  Uiso   1.00
H536   H     0.13186   0.44965   0.57689   0.00000  Uiso   1.00
H537   H     0.09516   0.40165   0.91144   0.00000  Uiso   1.00
H538   H     0.10468   0.27639   0.98752   0.00000  Uiso   1.00
H539   H     0.00501   0.50475   0.95007   0.00000  Uiso   1.00
H540   H     0.18927   0.42371   0.80614   0.00000  Uiso   1.00
H541   H     0.09392   0.13773   0.05707   0.00000  Uiso   1.00
H542   H     0.88377   0.61925   0.97808   0.00000  Uiso   1.00
H543   H     0.27233   0.44836   0.67458   0.00000  Uiso   1.00
O544   O     0.02697   0.05601   0.05623   0.00000  Uiso   1.00
O545   O     0.75127   0.68775   0.95259   0.00000  Uiso   1.00
O546   O     0.26104   0.46355   0.55440   0.00000  Uiso   1.00
N547   N     0.98521   0.15590   0.97192   0.00000  Uiso   1.00
N548   N     0.78874   0.60608   0.89808   0.00000  Uiso   1.00
N549   N     0.15199   0.44634   0.61433   0.00000  Uiso   1.00
N550   N     0.06080   0.15521   0.02449   0.00000  Uiso   1.00
N551   N     0.86432   0.60539   0.95065   0.00000  Uiso   1.00
N552   N     0.22758   0.44564   0.66690   0.00000  Uiso   1.00
