data_job_05823
_audit_creation_date              2018-12-19
_audit_creation_method            'Materials Studio'
_symmetry_space_group_name_H-M    'P1'
_symmetry_Int_Tables_number       1
_symmetry_cell_setting            triclinic
loop_
_symmetry_equiv_pos_as_xyz
  x,y,z
_cell_length_a                    14.6735
_cell_length_b                    14.6735
_cell_length_c                    21.7752
_cell_angle_alpha                 90.0000
_cell_angle_beta                  90.0000
_cell_angle_gamma                 120.0000
loop_
_atom_site_label
_atom_site_type_symbol
_atom_site_fract_x
_atom_site_fract_y
_atom_site_fract_z
_atom_site_U_iso_or_equiv
_atom_site_adp_type
_atom_site_occupancy
C1     C     0.37846   0.74815   0.88052   0.00000  Uiso   1.00
C2     C     0.42495   0.81535   0.82315   0.00000  Uiso   1.00
C3     C     0.53112   0.88365   0.81231   0.00000  Uiso   1.00
C4     C     0.55767   0.93803   0.75701   0.00000  Uiso   1.00
C5     C     0.64155   0.04447   0.67446   0.00000  Uiso   1.00
C6     C     0.29964   0.77720   0.90620   0.00000  Uiso   1.00
C7     C     0.30044   0.81342   0.96518   0.00000  Uiso   1.00
C8     C     0.22150   0.83566   0.97979   0.00000  Uiso   1.00
C9     C     0.11078   0.88281   0.02620   0.00000  Uiso   1.00
C10    C     0.31374   0.63484   0.85811   0.00000  Uiso   1.00
C11    C     0.32639   0.55135   0.87668   0.00000  Uiso   1.00
C12    C     0.25930   0.45373   0.85082   0.00000  Uiso   1.00
C13    C     0.17049   0.27984   0.82257   0.00000  Uiso   1.00
C14    C     0.23683   0.72324   0.80158   0.00000  Uiso   1.00
C15    C     0.34801   0.80182   0.78028   0.00000  Uiso   1.00
C16    C     0.37441   0.85610   0.72498   0.00000  Uiso   1.00
C17    C     0.48061   0.92448   0.71405   0.00000  Uiso   1.00
C18    C     0.22271   0.76367   0.86333   0.00000  Uiso   1.00
C19    C     0.14374   0.78587   0.87785   0.00000  Uiso   1.00
C20    C     0.14443   0.82211   0.93685   0.00000  Uiso   1.00
C21    C     0.23681   0.62131   0.81524   0.00000  Uiso   1.00
C22    C     0.16969   0.52380   0.78935   0.00000  Uiso   1.00
C23    C     0.18223   0.44018   0.80787   0.00000  Uiso   1.00
H24    H     0.43835   0.75868   0.91390   0.00000  Uiso   1.00
H25    H     0.59063   0.89411   0.84550   0.00000  Uiso   1.00
H26    H     0.35998   0.82387   0.99835   0.00000  Uiso   1.00
H27    H     0.38593   0.56185   0.90986   0.00000  Uiso   1.00
H28    H     0.72553   0.03832   0.75077   0.00000  Uiso   1.00
H29    H     0.23917   0.89018   0.07308   0.00000  Uiso   1.00
H30    H     0.29388   0.33765   0.88648   0.00000  Uiso   1.00
H31    H     0.17693   0.71271   0.76820   0.00000  Uiso   1.00
H32    H     0.31486   0.84562   0.69181   0.00000  Uiso   1.00
H33    H     0.08421   0.77538   0.84467   0.00000  Uiso   1.00
H34    H     0.11016   0.51336   0.75617   0.00000  Uiso   1.00
H35    H     0.50170   0.99897   0.62603   0.00000  Uiso   1.00
H36    H     0.01534   0.85083   0.94834   0.00000  Uiso   1.00
H37    H     0.07006   0.29830   0.76174   0.00000  Uiso   1.00
O38    O     0.70907   0.10693   0.64078   0.00000  Uiso   1.00
O39    O     0.07098   0.91256   0.06364   0.00000  Uiso   1.00
O40    O     0.14276   0.18766   0.81882   0.00000  Uiso   1.00
N41    N     0.65392   0.01080   0.73189   0.00000  Uiso   1.00
N42    N     0.19922   0.87232   0.03323   0.00000  Uiso   1.00
N43    N     0.25035   0.35575   0.85878   0.00000  Uiso   1.00
N44    N     0.53349   0.98963   0.66477   0.00000  Uiso   1.00
N45    N     0.07878   0.85114   0.96611   0.00000  Uiso   1.00
N46    N     0.12991   0.33457   0.79166   0.00000  Uiso   1.00
C47    C     0.25185   0.63032   0.21385   0.00000  Uiso   1.00
C48    C     0.18465   0.60960   0.15648   0.00000  Uiso   1.00
C49    C     0.11635   0.64746   0.14564   0.00000  Uiso   1.00
C50    C     0.06197   0.61964   0.09034   0.00000  Uiso   1.00
C51    C     0.95553   0.59708   0.00780   0.00000  Uiso   1.00
C52    C     0.22280   0.52244   0.23953   0.00000  Uiso   1.00
C53    C     0.18658   0.48702   0.29852   0.00000  Uiso   1.00
C54    C     0.16434   0.38583   0.31313   0.00000  Uiso   1.00
C55    C     0.11719   0.22798   0.35954   0.00000  Uiso   1.00
C56    C     0.36516   0.67890   0.19145   0.00000  Uiso   1.00
C57    C     0.44865   0.77504   0.21002   0.00000  Uiso   1.00
C58    C     0.54627   0.80557   0.18415   0.00000  Uiso   1.00
C59    C     0.72016   0.89065   0.15590   0.00000  Uiso   1.00
C60    C     0.27676   0.51358   0.13492   0.00000  Uiso   1.00
C61    C     0.19818   0.54619   0.11361   0.00000  Uiso   1.00
C62    C     0.14390   0.51831   0.05831   0.00000  Uiso   1.00
C63    C     0.07552   0.55613   0.04739   0.00000  Uiso   1.00
C64    C     0.23633   0.45903   0.19666   0.00000  Uiso   1.00
C65    C     0.21413   0.35787   0.21119   0.00000  Uiso   1.00
C66    C     0.17789   0.32231   0.27018   0.00000  Uiso   1.00
C67    C     0.37869   0.61550   0.14857   0.00000  Uiso   1.00
C68    C     0.47620   0.64589   0.12268   0.00000  Uiso   1.00
C69    C     0.55982   0.74205   0.14120   0.00000  Uiso   1.00
H70    H     0.24132   0.67967   0.24723   0.00000  Uiso   1.00
H71    H     0.10589   0.69652   0.17883   0.00000  Uiso   1.00
H72    H     0.17613   0.53611   0.33169   0.00000  Uiso   1.00
H73    H     0.43815   0.82408   0.24319   0.00000  Uiso   1.00
H74    H     0.96168   0.68721   0.08410   0.00000  Uiso   1.00
H75    H     0.10982   0.34899   0.40641   0.00000  Uiso   1.00
H76    H     0.66235   0.95623   0.21981   0.00000  Uiso   1.00
H77    H     0.28729   0.46422   0.10154   0.00000  Uiso   1.00
H78    H     0.15438   0.46924   0.02514   0.00000  Uiso   1.00
H79    H     0.22462   0.30883   0.17800   0.00000  Uiso   1.00
H80    H     0.48664   0.59680   0.08950   0.00000  Uiso   1.00
H81    H     0.00103   0.50274   0.95936   0.00000  Uiso   1.00
H82    H     0.14917   0.16452   0.28168   0.00000  Uiso   1.00
H83    H     0.70170   0.77176   0.09507   0.00000  Uiso   1.00
O84    O     0.89307   0.60214   0.97412   0.00000  Uiso   1.00
O85    O     0.08744   0.15842   0.39698   0.00000  Uiso   1.00
O86    O     0.81234   0.95510   0.15216   0.00000  Uiso   1.00
N87    N     0.98920   0.64312   0.06523   0.00000  Uiso   1.00
N88    N     0.12768   0.32690   0.36656   0.00000  Uiso   1.00
N89    N     0.64425   0.89460   0.19212   0.00000  Uiso   1.00
N90    N     0.01037   0.54386   0.99810   0.00000  Uiso   1.00
N91    N     0.14886   0.22764   0.29944   0.00000  Uiso   1.00
N92    N     0.66543   0.79534   0.12499   0.00000  Uiso   1.00
C93    C     0.36968   0.62154   0.54718   0.00000  Uiso   1.00
C94    C     0.39040   0.57505   0.48981   0.00000  Uiso   1.00
C95    C     0.35254   0.46888   0.47897   0.00000  Uiso   1.00
C96    C     0.38036   0.44233   0.42367   0.00000  Uiso   1.00
C97    C     0.40292   0.35845   0.34113   0.00000  Uiso   1.00
C98    C     0.47756   0.70036   0.57286   0.00000  Uiso   1.00
C99    C     0.51298   0.69956   0.63185   0.00000  Uiso   1.00
C100   C     0.61417   0.77850   0.64646   0.00000  Uiso   1.00
C101   C     0.77202   0.88922   0.69287   0.00000  Uiso   1.00
C102   C     0.32110   0.68626   0.52478   0.00000  Uiso   1.00
C103   C     0.22496   0.67361   0.54335   0.00000  Uiso   1.00
C104   C     0.19443   0.74070   0.51749   0.00000  Uiso   1.00
C105   C     0.10935   0.82951   0.48923   0.00000  Uiso   1.00
C106   C     0.48642   0.76317   0.46825   0.00000  Uiso   1.00
C107   C     0.45381   0.65199   0.44694   0.00000  Uiso   1.00
C108   C     0.48169   0.62559   0.39164   0.00000  Uiso   1.00
C109   C     0.44387   0.51939   0.38072   0.00000  Uiso   1.00
C110   C     0.54097   0.77729   0.52999   0.00000  Uiso   1.00
C111   C     0.64213   0.85626   0.54452   0.00000  Uiso   1.00
C112   C     0.67769   0.85557   0.60351   0.00000  Uiso   1.00
C113   C     0.38450   0.76319   0.48190   0.00000  Uiso   1.00
C114   C     0.35411   0.83031   0.45601   0.00000  Uiso   1.00
C115   C     0.25795   0.81777   0.47454   0.00000  Uiso   1.00
H116   H     0.32033   0.56165   0.58056   0.00000  Uiso   1.00
H117   H     0.30348   0.40937   0.51217   0.00000  Uiso   1.00
H118   H     0.46389   0.64002   0.66502   0.00000  Uiso   1.00
H119   H     0.17592   0.61407   0.57653   0.00000  Uiso   1.00
H120   H     0.31279   0.27447   0.41744   0.00000  Uiso   1.00
H121   H     0.65101   0.76083   0.73975   0.00000  Uiso   1.00
H122   H     0.04377   0.70612   0.55314   0.00000  Uiso   1.00
H123   H     0.53578   0.82307   0.43487   0.00000  Uiso   1.00
H124   H     0.53076   0.68514   0.35847   0.00000  Uiso   1.00
H125   H     0.69117   0.91579   0.51133   0.00000  Uiso   1.00
H126   H     0.40320   0.88984   0.42284   0.00000  Uiso   1.00
H127   H     0.49726   0.49830   0.29270   0.00000  Uiso   1.00
H128   H     0.83548   0.98466   0.61501   0.00000  Uiso   1.00
H129   H     0.22824   0.92994   0.42840   0.00000  Uiso   1.00
O130   O     0.39786   0.29093   0.30745   0.00000  Uiso   1.00
O131   O     0.84158   0.92902   0.73031   0.00000  Uiso   1.00
O132   O     0.04490   0.85724   0.48549   0.00000  Uiso   1.00
N133   N     0.35688   0.34608   0.39856   0.00000  Uiso   1.00
N134   N     0.67310   0.80078   0.69990   0.00000  Uiso   1.00
N135   N     0.10540   0.74965   0.52545   0.00000  Uiso   1.00
N136   N     0.45614   0.46651   0.33144   0.00000  Uiso   1.00
N137   N     0.77236   0.92122   0.63277   0.00000  Uiso   1.00
N138   N     0.20466   0.87009   0.45833   0.00000  Uiso   1.00
C139   C     0.62154   0.25185   0.38052   0.00000  Uiso   1.00
C140   C     0.57505   0.18465   0.32315   0.00000  Uiso   1.00
C141   C     0.46888   0.11635   0.31231   0.00000  Uiso   1.00
C142   C     0.44233   0.06197   0.25701   0.00000  Uiso   1.00
C143   C     0.35845   0.95553   0.17446   0.00000  Uiso   1.00
C144   C     0.70036   0.22280   0.40620   0.00000  Uiso   1.00
C145   C     0.69956   0.18658   0.46518   0.00000  Uiso   1.00
C146   C     0.77850   0.16434   0.47979   0.00000  Uiso   1.00
C147   C     0.88922   0.11719   0.52620   0.00000  Uiso   1.00
C148   C     0.68626   0.36516   0.35811   0.00000  Uiso   1.00
C149   C     0.67361   0.44865   0.37668   0.00000  Uiso   1.00
C150   C     0.74070   0.54627   0.35082   0.00000  Uiso   1.00
C151   C     0.82951   0.72016   0.32257   0.00000  Uiso   1.00
C152   C     0.76317   0.27676   0.30158   0.00000  Uiso   1.00
C153   C     0.65199   0.19818   0.28028   0.00000  Uiso   1.00
C154   C     0.62559   0.14390   0.22498   0.00000  Uiso   1.00
C155   C     0.51939   0.07552   0.21405   0.00000  Uiso   1.00
C156   C     0.77729   0.23633   0.36333   0.00000  Uiso   1.00
C157   C     0.85626   0.21413   0.37785   0.00000  Uiso   1.00
C158   C     0.85557   0.17789   0.43685   0.00000  Uiso   1.00
C159   C     0.76319   0.37869   0.31524   0.00000  Uiso   1.00
C160   C     0.83031   0.47620   0.28935   0.00000  Uiso   1.00
C161   C     0.81777   0.55982   0.30787   0.00000  Uiso   1.00
H162   H     0.56165   0.24132   0.41390   0.00000  Uiso   1.00
H163   H     0.40937   0.10589   0.34550   0.00000  Uiso   1.00
H164   H     0.64002   0.17613   0.49835   0.00000  Uiso   1.00
H165   H     0.61407   0.43815   0.40986   0.00000  Uiso   1.00
H166   H     0.27447   0.96168   0.25077   0.00000  Uiso   1.00
H167   H     0.76083   0.10982   0.57308   0.00000  Uiso   1.00
H168   H     0.70612   0.66235   0.38648   0.00000  Uiso   1.00
H169   H     0.82307   0.28729   0.26820   0.00000  Uiso   1.00
H170   H     0.68514   0.15438   0.19181   0.00000  Uiso   1.00
H171   H     0.91579   0.22462   0.34467   0.00000  Uiso   1.00
H172   H     0.88984   0.48664   0.25617   0.00000  Uiso   1.00
H173   H     0.49830   0.00103   0.12603   0.00000  Uiso   1.00
H174   H     0.98466   0.14917   0.44834   0.00000  Uiso   1.00
H175   H     0.92994   0.70170   0.26174   0.00000  Uiso   1.00
O176   O     0.29093   0.89307   0.14078   0.00000  Uiso   1.00
O177   O     0.92902   0.08744   0.56364   0.00000  Uiso   1.00
O178   O     0.85724   0.81234   0.31882   0.00000  Uiso   1.00
N179   N     0.34608   0.98920   0.23189   0.00000  Uiso   1.00
N180   N     0.80078   0.12768   0.53323   0.00000  Uiso   1.00
N181   N     0.74965   0.64425   0.35878   0.00000  Uiso   1.00
N182   N     0.46651   0.01037   0.16477   0.00000  Uiso   1.00
N183   N     0.92122   0.14886   0.46611   0.00000  Uiso   1.00
N184   N     0.87009   0.66543   0.29166   0.00000  Uiso   1.00
C185   C     0.74815   0.36968   0.71385   0.00000  Uiso   1.00
C186   C     0.81535   0.39040   0.65648   0.00000  Uiso   1.00
C187   C     0.88365   0.35254   0.64564   0.00000  Uiso   1.00
C188   C     0.93803   0.38036   0.59034   0.00000  Uiso   1.00
C189   C     0.04447   0.40292   0.50780   0.00000  Uiso   1.00
C190   C     0.77720   0.47756   0.73953   0.00000  Uiso   1.00
C191   C     0.81342   0.51298   0.79852   0.00000  Uiso   1.00
C192   C     0.83566   0.61417   0.81313   0.00000  Uiso   1.00
C193   C     0.88281   0.77202   0.85954   0.00000  Uiso   1.00
C194   C     0.63484   0.32110   0.69145   0.00000  Uiso   1.00
C195   C     0.55135   0.22496   0.71002   0.00000  Uiso   1.00
C196   C     0.45373   0.19443   0.68415   0.00000  Uiso   1.00
C197   C     0.27984   0.10935   0.65590   0.00000  Uiso   1.00
C198   C     0.72324   0.48642   0.63492   0.00000  Uiso   1.00
C199   C     0.80182   0.45381   0.61361   0.00000  Uiso   1.00
C200   C     0.85610   0.48169   0.55831   0.00000  Uiso   1.00
C201   C     0.92448   0.44387   0.54739   0.00000  Uiso   1.00
C202   C     0.76367   0.54097   0.69666   0.00000  Uiso   1.00
C203   C     0.78587   0.64213   0.71119   0.00000  Uiso   1.00
C204   C     0.82211   0.67769   0.77018   0.00000  Uiso   1.00
C205   C     0.62131   0.38450   0.64857   0.00000  Uiso   1.00
C206   C     0.52380   0.35411   0.62268   0.00000  Uiso   1.00
C207   C     0.44018   0.25795   0.64120   0.00000  Uiso   1.00
H208   H     0.75868   0.32033   0.74723   0.00000  Uiso   1.00
H209   H     0.89411   0.30348   0.67883   0.00000  Uiso   1.00
H210   H     0.82387   0.46389   0.83169   0.00000  Uiso   1.00
H211   H     0.56185   0.17592   0.74319   0.00000  Uiso   1.00
H212   H     0.03832   0.31279   0.58410   0.00000  Uiso   1.00
H213   H     0.89018   0.65101   0.90641   0.00000  Uiso   1.00
H214   H     0.33765   0.04377   0.71981   0.00000  Uiso   1.00
H215   H     0.71271   0.53578   0.60154   0.00000  Uiso   1.00
H216   H     0.84562   0.53076   0.52514   0.00000  Uiso   1.00
H217   H     0.77538   0.69117   0.67800   0.00000  Uiso   1.00
H218   H     0.51336   0.40320   0.58950   0.00000  Uiso   1.00
H219   H     0.99897   0.49726   0.45936   0.00000  Uiso   1.00
H220   H     0.85083   0.83548   0.78168   0.00000  Uiso   1.00
H221   H     0.29830   0.22824   0.59507   0.00000  Uiso   1.00
O222   O     0.10693   0.39786   0.47412   0.00000  Uiso   1.00
O223   O     0.91256   0.84158   0.89698   0.00000  Uiso   1.00
O224   O     0.18766   0.04490   0.65216   0.00000  Uiso   1.00
N225   N     0.01080   0.35688   0.56523   0.00000  Uiso   1.00
N226   N     0.87232   0.67310   0.86656   0.00000  Uiso   1.00
N227   N     0.35575   0.10540   0.69212   0.00000  Uiso   1.00
N228   N     0.98963   0.45614   0.49810   0.00000  Uiso   1.00
N229   N     0.85114   0.77236   0.79944   0.00000  Uiso   1.00
N230   N     0.33457   0.20466   0.62499   0.00000  Uiso   1.00
C231   C     0.63032   0.37846   0.04718   0.00000  Uiso   1.00
C232   C     0.60960   0.42495   0.98981   0.00000  Uiso   1.00
C233   C     0.64746   0.53112   0.97897   0.00000  Uiso   1.00
C234   C     0.61964   0.55767   0.92367   0.00000  Uiso   1.00
C235   C     0.59708   0.64155   0.84113   0.00000  Uiso   1.00
C236   C     0.52244   0.29964   0.07286   0.00000  Uiso   1.00
C237   C     0.48702   0.30044   0.13185   0.00000  Uiso   1.00
C238   C     0.38583   0.22150   0.14646   0.00000  Uiso   1.00
C239   C     0.22798   0.11078   0.19287   0.00000  Uiso   1.00
C240   C     0.67890   0.31374   0.02478   0.00000  Uiso   1.00
C241   C     0.77504   0.32639   0.04335   0.00000  Uiso   1.00
C242   C     0.80557   0.25930   0.01749   0.00000  Uiso   1.00
C243   C     0.89065   0.17049   0.98923   0.00000  Uiso   1.00
C244   C     0.51358   0.23683   0.96825   0.00000  Uiso   1.00
C245   C     0.54619   0.34801   0.94694   0.00000  Uiso   1.00
C246   C     0.51831   0.37441   0.89164   0.00000  Uiso   1.00
C247   C     0.55613   0.48061   0.88072   0.00000  Uiso   1.00
C248   C     0.45903   0.22271   0.02999   0.00000  Uiso   1.00
C249   C     0.35787   0.14374   0.04452   0.00000  Uiso   1.00
C250   C     0.32231   0.14443   0.10351   0.00000  Uiso   1.00
C251   C     0.61550   0.23681   0.98190   0.00000  Uiso   1.00
C252   C     0.64589   0.16969   0.95601   0.00000  Uiso   1.00
C253   C     0.74205   0.18223   0.97454   0.00000  Uiso   1.00
H254   H     0.67967   0.43835   0.08056   0.00000  Uiso   1.00
H255   H     0.69652   0.59063   0.01217   0.00000  Uiso   1.00
H256   H     0.53611   0.35998   0.16502   0.00000  Uiso   1.00
H257   H     0.82408   0.38593   0.07653   0.00000  Uiso   1.00
H258   H     0.68721   0.72553   0.91744   0.00000  Uiso   1.00
H259   H     0.34899   0.23917   0.23975   0.00000  Uiso   1.00
H260   H     0.95623   0.29388   0.05314   0.00000  Uiso   1.00
H261   H     0.46422   0.17693   0.93487   0.00000  Uiso   1.00
H262   H     0.46924   0.31486   0.85847   0.00000  Uiso   1.00
H263   H     0.30883   0.08421   0.01133   0.00000  Uiso   1.00
H264   H     0.59680   0.11016   0.92284   0.00000  Uiso   1.00
H265   H     0.50274   0.50170   0.79270   0.00000  Uiso   1.00
H266   H     0.16452   0.01534   0.11501   0.00000  Uiso   1.00
H267   H     0.77176   0.07006   0.92840   0.00000  Uiso   1.00
O268   O     0.60214   0.70907   0.80745   0.00000  Uiso   1.00
O269   O     0.15842   0.07098   0.23031   0.00000  Uiso   1.00
O270   O     0.95510   0.14276   0.98549   0.00000  Uiso   1.00
N271   N     0.64312   0.65392   0.89856   0.00000  Uiso   1.00
N272   N     0.32690   0.19922   0.19990   0.00000  Uiso   1.00
N273   N     0.89460   0.25035   0.02545   0.00000  Uiso   1.00
N274   N     0.54386   0.53349   0.83144   0.00000  Uiso   1.00
N275   N     0.22764   0.07878   0.13277   0.00000  Uiso   1.00
N276   N     0.79534   0.12991   0.95833   0.00000  Uiso   1.00
