data_job_05810
_audit_creation_date              2018-12-19
_audit_creation_method            'Materials Studio'
_symmetry_space_group_name_H-M    'P1'
_symmetry_Int_Tables_number       1
_symmetry_cell_setting            triclinic
loop_
_symmetry_equiv_pos_as_xyz
  x,y,z
_cell_length_a                    15.9775
_cell_length_b                    15.9775
_cell_length_c                    16.7263
_cell_angle_alpha                 90.0000
_cell_angle_beta                  90.0000
_cell_angle_gamma                 120.0000
loop_
_atom_site_label
_atom_site_type_symbol
_atom_site_fract_x
_atom_site_fract_y
_atom_site_fract_z
_atom_site_U_iso_or_equiv
_atom_site_adp_type
_atom_site_occupancy
C1     C     0.19266   0.85188   0.32929   0.00000  Uiso   1.00
C2     C     0.14817   0.74768   0.30050   0.00000  Uiso   1.00
C3     C     0.07897   0.70512   0.24093   0.00000  Uiso   1.00
C4     C     0.04747   0.60895   0.22333   0.00000  Uiso   1.00
C5     C     0.97281   0.45500   0.17248   0.00000  Uiso   1.00
C6     C     0.17416   0.84628   0.41910   0.00000  Uiso   1.00
C7     C     0.12682   0.88663   0.45925   0.00000  Uiso   1.00
C8     C     0.11721   0.87347   0.54149   0.00000  Uiso   1.00
C9     C     0.08297   0.87266   0.67478   0.00000  Uiso   1.00
C10    C     0.30162   0.89650   0.31945   0.00000  Uiso   1.00
C11    C     0.36147   0.97909   0.27584   0.00000  Uiso   1.00
C12    C     0.45917   0.00823   0.27420   0.00000  Uiso   1.00
C13    C     0.62284   0.08540   0.25277   0.00000  Uiso   1.00
C14    C     0.25977   0.75678   0.40396   0.00000  Uiso   1.00
C15    C     0.18463   0.69603   0.34106   0.00000  Uiso   1.00
C16    C     0.15322   0.59990   0.32354   0.00000  Uiso   1.00
C17    C     0.08399   0.55720   0.26395   0.00000  Uiso   1.00
C18    C     0.21061   0.79463   0.45966   0.00000  Uiso   1.00
C19    C     0.20108   0.78141   0.54186   0.00000  Uiso   1.00
C20    C     0.15373   0.82172   0.58212   0.00000  Uiso   1.00
C21    C     0.33808   0.84485   0.36001   0.00000  Uiso   1.00
C22    C     0.43572   0.87387   0.35845   0.00000  Uiso   1.00
C23    C     0.49569   0.95648   0.31483   0.00000  Uiso   1.00
H24    H     0.16428   0.89209   0.29772   0.00000  Uiso   1.00
H25    H     0.05077   0.74511   0.20956   0.00000  Uiso   1.00
H26    H     0.09863   0.92660   0.42785   0.00000  Uiso   1.00
H27    H     0.33323   0.01904   0.24446   0.00000  Uiso   1.00
H28    H     0.94098   0.55936   0.12972   0.00000  Uiso   1.00
H29    H     0.04192   0.94208   0.58999   0.00000  Uiso   1.00
H30    H     0.53663   0.13702   0.20329   0.00000  Uiso   1.00
H31    H     0.28815   0.71657   0.43554   0.00000  Uiso   1.00
H32    H     0.18144   0.55995   0.35494   0.00000  Uiso   1.00
H33    H     0.22930   0.74144   0.57323   0.00000  Uiso   1.00
H34    H     0.46390   0.83388   0.38984   0.00000  Uiso   1.00
H35    H     0.04703   0.40908   0.24772   0.00000  Uiso   1.00
H36    H     0.14798   0.79180   0.70799   0.00000  Uiso   1.00
H37    H     0.64268   0.98673   0.32129   0.00000  Uiso   1.00
O38    O     0.92155   0.38435   0.13323   0.00000  Uiso   1.00
O39    O     0.05400   0.88647   0.73709   0.00000  Uiso   1.00
O40    O     0.70304   0.14222   0.22974   0.00000  Uiso   1.00
N41    N     0.98060   0.54549   0.16854   0.00000  Uiso   1.00
N42    N     0.07495   0.90329   0.59887   0.00000  Uiso   1.00
N43    N     0.53747   0.08556   0.23735   0.00000  Uiso   1.00
N44    N     0.03767   0.46462   0.23204   0.00000  Uiso   1.00
N45    N     0.13202   0.82243   0.66236   0.00000  Uiso   1.00
N46    N     0.59454   0.00469   0.30084   0.00000  Uiso   1.00
C47    C     0.14812   0.34078   0.99596   0.00000  Uiso   1.00
C48    C     0.25232   0.40049   0.96716   0.00000  Uiso   1.00
C49    C     0.29488   0.37385   0.90759   0.00000  Uiso   1.00
C50    C     0.39105   0.43852   0.88999   0.00000  Uiso   1.00
C51    C     0.54500   0.51781   0.83914   0.00000  Uiso   1.00
C52    C     0.15372   0.32788   0.08577   0.00000  Uiso   1.00
C53    C     0.11337   0.24020   0.12591   0.00000  Uiso   1.00
C54    C     0.12653   0.24374   0.20815   0.00000  Uiso   1.00
C55    C     0.12734   0.21031   0.34144   0.00000  Uiso   1.00
C56    C     0.10350   0.40512   0.98612   0.00000  Uiso   1.00
C57    C     0.02091   0.38237   0.94250   0.00000  Uiso   1.00
C58    C     0.99177   0.45095   0.94086   0.00000  Uiso   1.00
C59    C     0.91460   0.53744   0.91944   0.00000  Uiso   1.00
C60    C     0.24322   0.50299   0.07063   0.00000  Uiso   1.00
C61    C     0.30397   0.48859   0.00773   0.00000  Uiso   1.00
C62    C     0.40010   0.55332   0.99021   0.00000  Uiso   1.00
C63    C     0.44280   0.52679   0.93062   0.00000  Uiso   1.00
C64    C     0.20537   0.41598   0.12633   0.00000  Uiso   1.00
C65    C     0.21859   0.41966   0.20853   0.00000  Uiso   1.00
C66    C     0.17828   0.33201   0.24879   0.00000  Uiso   1.00
C67    C     0.15515   0.49323   0.02668   0.00000  Uiso   1.00
C68    C     0.12613   0.56184   0.02511   0.00000  Uiso   1.00
C69    C     0.04352   0.53921   0.98150   0.00000  Uiso   1.00
H70    H     0.10791   0.27218   0.96439   0.00000  Uiso   1.00
H71    H     0.25489   0.30566   0.87623   0.00000  Uiso   1.00
H72    H     0.07340   0.17203   0.09451   0.00000  Uiso   1.00
H73    H     0.98096   0.31419   0.91113   0.00000  Uiso   1.00
H74    H     0.44064   0.38161   0.79639   0.00000  Uiso   1.00
H75    H     0.05792   0.09984   0.25666   0.00000  Uiso   1.00
H76    H     0.86298   0.39961   0.86996   0.00000  Uiso   1.00
H77    H     0.28343   0.57159   0.10221   0.00000  Uiso   1.00
H78    H     0.44005   0.62150   0.02160   0.00000  Uiso   1.00
H79    H     0.25856   0.48786   0.23989   0.00000  Uiso   1.00
H80    H     0.16612   0.63002   0.05651   0.00000  Uiso   1.00
H81    H     0.59092   0.63796   0.91439   0.00000  Uiso   1.00
H82    H     0.20820   0.35618   0.37466   0.00000  Uiso   1.00
H83    H     0.01327   0.65595   0.98795   0.00000  Uiso   1.00
O84    O     0.61565   0.53720   0.79990   0.00000  Uiso   1.00
O85    O     0.11353   0.16752   0.40375   0.00000  Uiso   1.00
O86    O     0.85778   0.56082   0.89640   0.00000  Uiso   1.00
N87    N     0.45451   0.43510   0.83521   0.00000  Uiso   1.00
N88    N     0.09671   0.17166   0.26554   0.00000  Uiso   1.00
N89    N     0.91444   0.45191   0.90402   0.00000  Uiso   1.00
N90    N     0.53538   0.57304   0.89870   0.00000  Uiso   1.00
N91    N     0.17757   0.30960   0.32903   0.00000  Uiso   1.00
N92    N     0.99531   0.58985   0.96751   0.00000  Uiso   1.00
C93    C     0.65922   0.80734   0.66262   0.00000  Uiso   1.00
C94    C     0.59951   0.85183   0.63383   0.00000  Uiso   1.00
C95    C     0.62615   0.92103   0.57426   0.00000  Uiso   1.00
C96    C     0.56148   0.95253   0.55666   0.00000  Uiso   1.00
C97    C     0.48219   0.02719   0.50581   0.00000  Uiso   1.00
C98    C     0.67212   0.82584   0.75243   0.00000  Uiso   1.00
C99    C     0.75980   0.87318   0.79258   0.00000  Uiso   1.00
C100   C     0.75626   0.88279   0.87482   0.00000  Uiso   1.00
C101   C     0.78969   0.91703   0.00811   0.00000  Uiso   1.00
C102   C     0.59488   0.69838   0.65279   0.00000  Uiso   1.00
C103   C     0.61763   0.63853   0.60917   0.00000  Uiso   1.00
C104   C     0.54905   0.54083   0.60753   0.00000  Uiso   1.00
C105   C     0.46256   0.37716   0.58610   0.00000  Uiso   1.00
C106   C     0.49701   0.74023   0.73730   0.00000  Uiso   1.00
C107   C     0.51141   0.81537   0.67439   0.00000  Uiso   1.00
C108   C     0.44668   0.84678   0.65687   0.00000  Uiso   1.00
C109   C     0.47321   0.91601   0.59729   0.00000  Uiso   1.00
C110   C     0.58402   0.78939   0.79299   0.00000  Uiso   1.00
C111   C     0.58034   0.79892   0.87519   0.00000  Uiso   1.00
C112   C     0.66799   0.84627   0.91545   0.00000  Uiso   1.00
C113   C     0.50677   0.66192   0.69334   0.00000  Uiso   1.00
C114   C     0.43816   0.56428   0.69178   0.00000  Uiso   1.00
C115   C     0.46079   0.50431   0.64816   0.00000  Uiso   1.00
H116   H     0.72782   0.83572   0.63105   0.00000  Uiso   1.00
H117   H     0.69434   0.94923   0.54289   0.00000  Uiso   1.00
H118   H     0.82797   0.90137   0.76118   0.00000  Uiso   1.00
H119   H     0.68581   0.66677   0.57779   0.00000  Uiso   1.00
H120   H     0.61839   0.05902   0.46306   0.00000  Uiso   1.00
H121   H     0.90016   0.95808   0.92333   0.00000  Uiso   1.00
H122   H     0.60039   0.46337   0.53662   0.00000  Uiso   1.00
H123   H     0.42841   0.71185   0.76887   0.00000  Uiso   1.00
H124   H     0.37850   0.81856   0.68827   0.00000  Uiso   1.00
H125   H     0.51214   0.77070   0.90656   0.00000  Uiso   1.00
H126   H     0.36998   0.53610   0.72317   0.00000  Uiso   1.00
H127   H     0.36204   0.95297   0.58105   0.00000  Uiso   1.00
H128   H     0.64382   0.85202   0.04133   0.00000  Uiso   1.00
H129   H     0.34405   0.35732   0.65462   0.00000  Uiso   1.00
O130   O     0.46280   0.07845   0.46656   0.00000  Uiso   1.00
O131   O     0.83248   0.94600   0.07042   0.00000  Uiso   1.00
O132   O     0.43918   0.29696   0.56307   0.00000  Uiso   1.00
N133   N     0.56490   0.01940   0.50188   0.00000  Uiso   1.00
N134   N     0.82834   0.92505   0.93220   0.00000  Uiso   1.00
N135   N     0.54809   0.46253   0.57068   0.00000  Uiso   1.00
N136   N     0.42696   0.96233   0.56537   0.00000  Uiso   1.00
N137   N     0.69040   0.86798   0.99569   0.00000  Uiso   1.00
N138   N     0.41015   0.40546   0.63418   0.00000  Uiso   1.00
C139   C     0.85188   0.19266   0.67071   0.00000  Uiso   1.00
C140   C     0.74768   0.14817   0.69950   0.00000  Uiso   1.00
C141   C     0.70512   0.07897   0.75907   0.00000  Uiso   1.00
C142   C     0.60895   0.04747   0.77667   0.00000  Uiso   1.00
C143   C     0.45500   0.97281   0.82752   0.00000  Uiso   1.00
C144   C     0.84628   0.17416   0.58090   0.00000  Uiso   1.00
C145   C     0.88663   0.12682   0.54075   0.00000  Uiso   1.00
C146   C     0.87347   0.11721   0.45851   0.00000  Uiso   1.00
C147   C     0.87266   0.08297   0.32522   0.00000  Uiso   1.00
C148   C     0.89650   0.30162   0.68055   0.00000  Uiso   1.00
C149   C     0.97909   0.36147   0.72416   0.00000  Uiso   1.00
C150   C     0.00823   0.45917   0.72580   0.00000  Uiso   1.00
C151   C     0.08540   0.62284   0.74723   0.00000  Uiso   1.00
C152   C     0.75678   0.25977   0.59604   0.00000  Uiso   1.00
C153   C     0.69603   0.18463   0.65894   0.00000  Uiso   1.00
C154   C     0.59990   0.15322   0.67646   0.00000  Uiso   1.00
C155   C     0.55720   0.08399   0.73605   0.00000  Uiso   1.00
C156   C     0.79463   0.21061   0.54034   0.00000  Uiso   1.00
C157   C     0.78141   0.20108   0.45814   0.00000  Uiso   1.00
C158   C     0.82172   0.15373   0.41788   0.00000  Uiso   1.00
C159   C     0.84485   0.33808   0.63999   0.00000  Uiso   1.00
C160   C     0.87387   0.43572   0.64155   0.00000  Uiso   1.00
C161   C     0.95648   0.49569   0.68517   0.00000  Uiso   1.00
H162   H     0.89209   0.16428   0.70228   0.00000  Uiso   1.00
H163   H     0.74511   0.05077   0.79044   0.00000  Uiso   1.00
H164   H     0.92660   0.09863   0.57215   0.00000  Uiso   1.00
H165   H     0.01904   0.33323   0.75554   0.00000  Uiso   1.00
H166   H     0.55936   0.94098   0.87028   0.00000  Uiso   1.00
H167   H     0.94208   0.04192   0.41001   0.00000  Uiso   1.00
H168   H     0.13702   0.53663   0.79671   0.00000  Uiso   1.00
H169   H     0.71657   0.28815   0.56446   0.00000  Uiso   1.00
H170   H     0.55995   0.18144   0.64506   0.00000  Uiso   1.00
H171   H     0.74144   0.22930   0.42677   0.00000  Uiso   1.00
H172   H     0.83388   0.46390   0.61016   0.00000  Uiso   1.00
H173   H     0.40908   0.04703   0.75228   0.00000  Uiso   1.00
H174   H     0.79180   0.14798   0.29201   0.00000  Uiso   1.00
H175   H     0.98673   0.64268   0.67871   0.00000  Uiso   1.00
O176   O     0.38435   0.92155   0.86677   0.00000  Uiso   1.00
O177   O     0.88647   0.05400   0.26291   0.00000  Uiso   1.00
O178   O     0.14222   0.70304   0.77026   0.00000  Uiso   1.00
N179   N     0.54549   0.98060   0.83146   0.00000  Uiso   1.00
N180   N     0.90329   0.07495   0.40113   0.00000  Uiso   1.00
N181   N     0.08556   0.53747   0.76265   0.00000  Uiso   1.00
N182   N     0.46462   0.03767   0.76796   0.00000  Uiso   1.00
N183   N     0.82243   0.13202   0.33764   0.00000  Uiso   1.00
N184   N     0.00469   0.59454   0.69916   0.00000  Uiso   1.00
C185   C     0.34078   0.14812   0.00404   0.00000  Uiso   1.00
C186   C     0.40049   0.25232   0.03284   0.00000  Uiso   1.00
C187   C     0.37385   0.29488   0.09241   0.00000  Uiso   1.00
C188   C     0.43852   0.39105   0.11001   0.00000  Uiso   1.00
C189   C     0.51781   0.54500   0.16086   0.00000  Uiso   1.00
C190   C     0.32788   0.15372   0.91423   0.00000  Uiso   1.00
C191   C     0.24020   0.11337   0.87409   0.00000  Uiso   1.00
C192   C     0.24374   0.12653   0.79185   0.00000  Uiso   1.00
C193   C     0.21031   0.12734   0.65856   0.00000  Uiso   1.00
C194   C     0.40512   0.10350   0.01388   0.00000  Uiso   1.00
C195   C     0.38237   0.02091   0.05750   0.00000  Uiso   1.00
C196   C     0.45095   0.99177   0.05914   0.00000  Uiso   1.00
C197   C     0.53744   0.91460   0.08056   0.00000  Uiso   1.00
C198   C     0.50299   0.24322   0.92937   0.00000  Uiso   1.00
C199   C     0.48859   0.30397   0.99227   0.00000  Uiso   1.00
C200   C     0.55332   0.40010   0.00979   0.00000  Uiso   1.00
C201   C     0.52679   0.44280   0.06938   0.00000  Uiso   1.00
C202   C     0.41598   0.20537   0.87367   0.00000  Uiso   1.00
C203   C     0.41966   0.21859   0.79147   0.00000  Uiso   1.00
C204   C     0.33201   0.17828   0.75121   0.00000  Uiso   1.00
C205   C     0.49323   0.15515   0.97332   0.00000  Uiso   1.00
C206   C     0.56184   0.12613   0.97489   0.00000  Uiso   1.00
C207   C     0.53921   0.04352   0.01850   0.00000  Uiso   1.00
H208   H     0.27218   0.10791   0.03561   0.00000  Uiso   1.00
H209   H     0.30566   0.25489   0.12377   0.00000  Uiso   1.00
H210   H     0.17203   0.07340   0.90549   0.00000  Uiso   1.00
H211   H     0.31419   0.98096   0.08887   0.00000  Uiso   1.00
H212   H     0.38161   0.44064   0.20361   0.00000  Uiso   1.00
H213   H     0.09984   0.05792   0.74334   0.00000  Uiso   1.00
H214   H     0.39961   0.86298   0.13004   0.00000  Uiso   1.00
H215   H     0.57159   0.28343   0.89779   0.00000  Uiso   1.00
H216   H     0.62150   0.44005   0.97840   0.00000  Uiso   1.00
H217   H     0.48786   0.25856   0.76011   0.00000  Uiso   1.00
H218   H     0.63002   0.16612   0.94349   0.00000  Uiso   1.00
H219   H     0.63796   0.59092   0.08561   0.00000  Uiso   1.00
H220   H     0.35618   0.20820   0.62534   0.00000  Uiso   1.00
H221   H     0.65595   0.01327   0.01205   0.00000  Uiso   1.00
O222   O     0.53720   0.61565   0.20010   0.00000  Uiso   1.00
O223   O     0.16752   0.11353   0.59625   0.00000  Uiso   1.00
O224   O     0.56082   0.85778   0.10360   0.00000  Uiso   1.00
N225   N     0.43510   0.45451   0.16479   0.00000  Uiso   1.00
N226   N     0.17166   0.09671   0.73446   0.00000  Uiso   1.00
N227   N     0.45191   0.91444   0.09598   0.00000  Uiso   1.00
N228   N     0.57304   0.53538   0.10130   0.00000  Uiso   1.00
N229   N     0.30960   0.17757   0.67097   0.00000  Uiso   1.00
N230   N     0.58985   0.99531   0.03249   0.00000  Uiso   1.00
C231   C     0.80734   0.65922   0.33738   0.00000  Uiso   1.00
C232   C     0.85183   0.59951   0.36617   0.00000  Uiso   1.00
C233   C     0.92103   0.62615   0.42574   0.00000  Uiso   1.00
C234   C     0.95253   0.56148   0.44334   0.00000  Uiso   1.00
C235   C     0.02719   0.48219   0.49419   0.00000  Uiso   1.00
C236   C     0.82584   0.67212   0.24757   0.00000  Uiso   1.00
C237   C     0.87318   0.75980   0.20742   0.00000  Uiso   1.00
C238   C     0.88279   0.75626   0.12518   0.00000  Uiso   1.00
C239   C     0.91703   0.78969   0.99189   0.00000  Uiso   1.00
C240   C     0.69838   0.59488   0.34721   0.00000  Uiso   1.00
C241   C     0.63853   0.61763   0.39083   0.00000  Uiso   1.00
C242   C     0.54083   0.54905   0.39247   0.00000  Uiso   1.00
C243   C     0.37716   0.46256   0.41390   0.00000  Uiso   1.00
C244   C     0.74023   0.49701   0.26270   0.00000  Uiso   1.00
C245   C     0.81537   0.51141   0.32561   0.00000  Uiso   1.00
C246   C     0.84678   0.44668   0.34313   0.00000  Uiso   1.00
C247   C     0.91601   0.47321   0.40271   0.00000  Uiso   1.00
C248   C     0.78939   0.58402   0.20701   0.00000  Uiso   1.00
C249   C     0.79892   0.58034   0.12481   0.00000  Uiso   1.00
C250   C     0.84627   0.66799   0.08455   0.00000  Uiso   1.00
C251   C     0.66192   0.50677   0.30666   0.00000  Uiso   1.00
C252   C     0.56428   0.43816   0.30822   0.00000  Uiso   1.00
C253   C     0.50431   0.46079   0.35184   0.00000  Uiso   1.00
H254   H     0.83572   0.72782   0.36895   0.00000  Uiso   1.00
H255   H     0.94923   0.69434   0.45711   0.00000  Uiso   1.00
H256   H     0.90137   0.82797   0.23882   0.00000  Uiso   1.00
H257   H     0.66677   0.68581   0.42221   0.00000  Uiso   1.00
H258   H     0.05902   0.61839   0.53694   0.00000  Uiso   1.00
H259   H     0.95808   0.90016   0.07667   0.00000  Uiso   1.00
H260   H     0.46337   0.60039   0.46338   0.00000  Uiso   1.00
H261   H     0.71185   0.42841   0.23113   0.00000  Uiso   1.00
H262   H     0.81856   0.37850   0.31173   0.00000  Uiso   1.00
H263   H     0.77070   0.51214   0.09344   0.00000  Uiso   1.00
H264   H     0.53610   0.36998   0.27683   0.00000  Uiso   1.00
H265   H     0.95297   0.36204   0.41895   0.00000  Uiso   1.00
H266   H     0.85202   0.64382   0.95867   0.00000  Uiso   1.00
H267   H     0.35732   0.34405   0.34538   0.00000  Uiso   1.00
O268   O     0.07845   0.46280   0.53344   0.00000  Uiso   1.00
O269   O     0.94600   0.83248   0.92958   0.00000  Uiso   1.00
O270   O     0.29696   0.43918   0.43693   0.00000  Uiso   1.00
N271   N     0.01940   0.56490   0.49812   0.00000  Uiso   1.00
N272   N     0.92505   0.82834   0.06780   0.00000  Uiso   1.00
N273   N     0.46253   0.54809   0.42932   0.00000  Uiso   1.00
N274   N     0.96233   0.42696   0.43463   0.00000  Uiso   1.00
N275   N     0.86798   0.69040   0.00431   0.00000  Uiso   1.00
N276   N     0.40546   0.41015   0.36582   0.00000  Uiso   1.00
