data_job_01221
_audit_creation_date              2018-12-19
_audit_creation_method            'Materials Studio'
_symmetry_space_group_name_H-M    'P1'
_symmetry_Int_Tables_number       1
_symmetry_cell_setting            triclinic
loop_
_symmetry_equiv_pos_as_xyz
  x,y,z
_cell_length_a                    25.5272
_cell_length_b                    12.5016
_cell_length_c                    10.0544
_cell_angle_alpha                 90.0000
_cell_angle_beta                  80.1203
_cell_angle_gamma                 90.0000
loop_
_atom_site_label
_atom_site_type_symbol
_atom_site_fract_x
_atom_site_fract_y
_atom_site_fract_z
_atom_site_U_iso_or_equiv
_atom_site_adp_type
_atom_site_occupancy
C1     C     0.38224   0.27200   0.65680   0.00000  Uiso   1.00
C2     C     0.38233   0.26889   0.50514   0.00000  Uiso   1.00
C3     C     0.42531   0.29292   0.40517   0.00000  Uiso   1.00
C4     C     0.41734   0.28532   0.27233   0.00000  Uiso   1.00
C5     C     0.42496   0.28519   0.04165   0.00000  Uiso   1.00
C6     C     0.33736   0.34766   0.71569   0.00000  Uiso   1.00
C7     C     0.34252   0.43791   0.79277   0.00000  Uiso   1.00
C8     C     0.29669   0.49661   0.83718   0.00000  Uiso   1.00
C9     C     0.23447   0.61873   0.93347   0.00000  Uiso   1.00
C10    C     0.36496   0.16093   0.70971   0.00000  Uiso   1.00
C11    C     0.39333   0.09419   0.78180   0.00000  Uiso   1.00
C12    C     0.37073   0.99568   0.82121   0.00000  Uiso   1.00
C13    C     0.35137   0.82787   0.90821   0.00000  Uiso   1.00
C14    C     0.29165   0.21577   0.59864   0.00000  Uiso   1.00
C15    C     0.33313   0.23835   0.47355   0.00000  Uiso   1.00
C16    C     0.32509   0.23071   0.34083   0.00000  Uiso   1.00
C17    C     0.36805   0.25472   0.24068   0.00000  Uiso   1.00
C18    C     0.28815   0.31712   0.68410   0.00000  Uiso   1.00
C19    C     0.24230   0.37570   0.72842   0.00000  Uiso   1.00
C20    C     0.24739   0.46602   0.80554   0.00000  Uiso   1.00
C21    C     0.31576   0.13038   0.67812   0.00000  Uiso   1.00
C22    C     0.29310   0.03197   0.71744   0.00000  Uiso   1.00
C23    C     0.32143   0.96509   0.78956   0.00000  Uiso   1.00
H24    H     0.42055   0.29578   0.68140   0.00000  Uiso   1.00
H25    H     0.46339   0.31656   0.42966   0.00000  Uiso   1.00
H26    H     0.38060   0.46152   0.81721   0.00000  Uiso   1.00
H27    H     0.43140   0.11785   0.80622   0.00000  Uiso   1.00
H28    H     0.48917   0.32617   0.13664   0.00000  Uiso   1.00
H29    H     0.31462   0.63180   0.95383   0.00000  Uiso   1.00
H30    H     0.42174   0.90710   0.93068   0.00000  Uiso   1.00
H31    H     0.25334   0.19199   0.57405   0.00000  Uiso   1.00
H32    H     0.28701   0.20707   0.31641   0.00000  Uiso   1.00
H33    H     0.20423   0.35203   0.70396   0.00000  Uiso   1.00
H34    H     0.25503   0.00836   0.69298   0.00000  Uiso   1.00
H35    H     0.34602   0.23731   0.04472   0.00000  Uiso   1.00
H36    H     0.17147   0.54294   0.86193   0.00000  Uiso   1.00
H37    H     0.27859   0.81824   0.83877   0.00000  Uiso   1.00
O38    O     0.44275   0.29357   0.92314   0.00000  Uiso   1.00
O39    O     0.21375   0.69453   0.99529   0.00000  Uiso   1.00
O40    O     0.35429   0.74374   0.96491   0.00000  Uiso   1.00
N41    N     0.45086   0.30317   0.15036   0.00000  Uiso   1.00
N42    N     0.28767   0.58893   0.91438   0.00000  Uiso   1.00
N43    N     0.38781   0.91140   0.89276   0.00000  Uiso   1.00
N44    N     0.37383   0.25535   0.10090   0.00000  Uiso   1.00
N45    N     0.21064   0.54111   0.86492   0.00000  Uiso   1.00
N46    N     0.31078   0.86358   0.84330   0.00000  Uiso   1.00
C47    C     0.88224   0.77200   0.65680   0.00000  Uiso   1.00
C48    C     0.88233   0.76889   0.50514   0.00000  Uiso   1.00
C49    C     0.92531   0.79292   0.40517   0.00000  Uiso   1.00
C50    C     0.91734   0.78532   0.27233   0.00000  Uiso   1.00
C51    C     0.92496   0.78519   0.04165   0.00000  Uiso   1.00
C52    C     0.83736   0.84766   0.71569   0.00000  Uiso   1.00
C53    C     0.84252   0.93791   0.79277   0.00000  Uiso   1.00
C54    C     0.79669   0.99661   0.83718   0.00000  Uiso   1.00
C55    C     0.73447   0.11873   0.93347   0.00000  Uiso   1.00
C56    C     0.86496   0.66093   0.70971   0.00000  Uiso   1.00
C57    C     0.89333   0.59419   0.78180   0.00000  Uiso   1.00
C58    C     0.87073   0.49568   0.82121   0.00000  Uiso   1.00
C59    C     0.85137   0.32787   0.90821   0.00000  Uiso   1.00
C60    C     0.79165   0.71577   0.59864   0.00000  Uiso   1.00
C61    C     0.83313   0.73835   0.47355   0.00000  Uiso   1.00
C62    C     0.82509   0.73071   0.34083   0.00000  Uiso   1.00
C63    C     0.86805   0.75472   0.24068   0.00000  Uiso   1.00
C64    C     0.78815   0.81712   0.68410   0.00000  Uiso   1.00
C65    C     0.74230   0.87570   0.72842   0.00000  Uiso   1.00
C66    C     0.74739   0.96602   0.80554   0.00000  Uiso   1.00
C67    C     0.81576   0.63038   0.67812   0.00000  Uiso   1.00
C68    C     0.79310   0.53197   0.71744   0.00000  Uiso   1.00
C69    C     0.82143   0.46509   0.78956   0.00000  Uiso   1.00
H70    H     0.92055   0.79578   0.68140   0.00000  Uiso   1.00
H71    H     0.96339   0.81656   0.42966   0.00000  Uiso   1.00
H72    H     0.88060   0.96152   0.81721   0.00000  Uiso   1.00
H73    H     0.93140   0.61785   0.80622   0.00000  Uiso   1.00
H74    H     0.98917   0.82617   0.13664   0.00000  Uiso   1.00
H75    H     0.81462   0.13180   0.95383   0.00000  Uiso   1.00
H76    H     0.92174   0.40710   0.93068   0.00000  Uiso   1.00
H77    H     0.75334   0.69199   0.57405   0.00000  Uiso   1.00
H78    H     0.78701   0.70707   0.31641   0.00000  Uiso   1.00
H79    H     0.70423   0.85203   0.70396   0.00000  Uiso   1.00
H80    H     0.75503   0.50836   0.69298   0.00000  Uiso   1.00
H81    H     0.84602   0.73731   0.04472   0.00000  Uiso   1.00
H82    H     0.67147   0.04294   0.86193   0.00000  Uiso   1.00
H83    H     0.77859   0.31824   0.83877   0.00000  Uiso   1.00
O84    O     0.94275   0.79357   0.92314   0.00000  Uiso   1.00
O85    O     0.71375   0.19453   0.99529   0.00000  Uiso   1.00
O86    O     0.85429   0.24374   0.96491   0.00000  Uiso   1.00
N87    N     0.95086   0.80317   0.15036   0.00000  Uiso   1.00
N88    N     0.78767   0.08893   0.91438   0.00000  Uiso   1.00
N89    N     0.88781   0.41140   0.89276   0.00000  Uiso   1.00
N90    N     0.87383   0.75535   0.10090   0.00000  Uiso   1.00
N91    N     0.71064   0.04111   0.86492   0.00000  Uiso   1.00
N92    N     0.81078   0.36358   0.84330   0.00000  Uiso   1.00
C93    C     0.61776   0.27200   0.34320   0.00000  Uiso   1.00
C94    C     0.61767   0.26889   0.49486   0.00000  Uiso   1.00
C95    C     0.57469   0.29292   0.59483   0.00000  Uiso   1.00
C96    C     0.58266   0.28532   0.72767   0.00000  Uiso   1.00
C97    C     0.57504   0.28519   0.95835   0.00000  Uiso   1.00
C98    C     0.66264   0.34766   0.28431   0.00000  Uiso   1.00
C99    C     0.65748   0.43791   0.20723   0.00000  Uiso   1.00
C100   C     0.70331   0.49661   0.16282   0.00000  Uiso   1.00
C101   C     0.76553   0.61873   0.06653   0.00000  Uiso   1.00
C102   C     0.63504   0.16093   0.29029   0.00000  Uiso   1.00
C103   C     0.60667   0.09419   0.21820   0.00000  Uiso   1.00
C104   C     0.62927   0.99568   0.17879   0.00000  Uiso   1.00
C105   C     0.64863   0.82787   0.09179   0.00000  Uiso   1.00
C106   C     0.70835   0.21577   0.40136   0.00000  Uiso   1.00
C107   C     0.66687   0.23835   0.52645   0.00000  Uiso   1.00
C108   C     0.67491   0.23071   0.65917   0.00000  Uiso   1.00
C109   C     0.63195   0.25472   0.75932   0.00000  Uiso   1.00
C110   C     0.71185   0.31712   0.31590   0.00000  Uiso   1.00
C111   C     0.75770   0.37570   0.27158   0.00000  Uiso   1.00
C112   C     0.75261   0.46602   0.19446   0.00000  Uiso   1.00
C113   C     0.68424   0.13038   0.32188   0.00000  Uiso   1.00
C114   C     0.70690   0.03197   0.28256   0.00000  Uiso   1.00
C115   C     0.67857   0.96509   0.21044   0.00000  Uiso   1.00
H116   H     0.57945   0.29578   0.31860   0.00000  Uiso   1.00
H117   H     0.53661   0.31656   0.57034   0.00000  Uiso   1.00
H118   H     0.61940   0.46152   0.18279   0.00000  Uiso   1.00
H119   H     0.56860   0.11785   0.19378   0.00000  Uiso   1.00
H120   H     0.51083   0.32617   0.86336   0.00000  Uiso   1.00
H121   H     0.68538   0.63180   0.04617   0.00000  Uiso   1.00
H122   H     0.57826   0.90710   0.06932   0.00000  Uiso   1.00
H123   H     0.74666   0.19199   0.42595   0.00000  Uiso   1.00
H124   H     0.71299   0.20707   0.68359   0.00000  Uiso   1.00
H125   H     0.79577   0.35203   0.29604   0.00000  Uiso   1.00
H126   H     0.74497   0.00836   0.30702   0.00000  Uiso   1.00
H127   H     0.65398   0.23731   0.95528   0.00000  Uiso   1.00
H128   H     0.82853   0.54294   0.13807   0.00000  Uiso   1.00
H129   H     0.72141   0.81824   0.16123   0.00000  Uiso   1.00
O130   O     0.55725   0.29357   0.07686   0.00000  Uiso   1.00
O131   O     0.78625   0.69453   0.00471   0.00000  Uiso   1.00
O132   O     0.64571   0.74374   0.03509   0.00000  Uiso   1.00
N133   N     0.54914   0.30317   0.84964   0.00000  Uiso   1.00
N134   N     0.71233   0.58893   0.08562   0.00000  Uiso   1.00
N135   N     0.61219   0.91140   0.10724   0.00000  Uiso   1.00
N136   N     0.62617   0.25535   0.89910   0.00000  Uiso   1.00
N137   N     0.78936   0.54111   0.13508   0.00000  Uiso   1.00
N138   N     0.68922   0.86358   0.15670   0.00000  Uiso   1.00
C139   C     0.11776   0.77200   0.34320   0.00000  Uiso   1.00
C140   C     0.11767   0.76889   0.49486   0.00000  Uiso   1.00
C141   C     0.07469   0.79292   0.59483   0.00000  Uiso   1.00
C142   C     0.08266   0.78532   0.72767   0.00000  Uiso   1.00
C143   C     0.07504   0.78519   0.95835   0.00000  Uiso   1.00
C144   C     0.16264   0.84766   0.28431   0.00000  Uiso   1.00
C145   C     0.15748   0.93791   0.20723   0.00000  Uiso   1.00
C146   C     0.20331   0.99661   0.16282   0.00000  Uiso   1.00
C147   C     0.26553   0.11873   0.06653   0.00000  Uiso   1.00
C148   C     0.13504   0.66093   0.29029   0.00000  Uiso   1.00
C149   C     0.10667   0.59419   0.21820   0.00000  Uiso   1.00
C150   C     0.12927   0.49568   0.17879   0.00000  Uiso   1.00
C151   C     0.14863   0.32787   0.09179   0.00000  Uiso   1.00
C152   C     0.20835   0.71577   0.40136   0.00000  Uiso   1.00
C153   C     0.16687   0.73835   0.52645   0.00000  Uiso   1.00
C154   C     0.17491   0.73071   0.65917   0.00000  Uiso   1.00
C155   C     0.13195   0.75472   0.75932   0.00000  Uiso   1.00
C156   C     0.21185   0.81712   0.31590   0.00000  Uiso   1.00
C157   C     0.25770   0.87570   0.27158   0.00000  Uiso   1.00
C158   C     0.25261   0.96602   0.19446   0.00000  Uiso   1.00
C159   C     0.18424   0.63038   0.32188   0.00000  Uiso   1.00
C160   C     0.20690   0.53197   0.28256   0.00000  Uiso   1.00
C161   C     0.17857   0.46509   0.21044   0.00000  Uiso   1.00
H162   H     0.07945   0.79578   0.31860   0.00000  Uiso   1.00
H163   H     0.03661   0.81656   0.57034   0.00000  Uiso   1.00
H164   H     0.11940   0.96152   0.18279   0.00000  Uiso   1.00
H165   H     0.06860   0.61785   0.19378   0.00000  Uiso   1.00
H166   H     0.01083   0.82617   0.86336   0.00000  Uiso   1.00
H167   H     0.18538   0.13180   0.04617   0.00000  Uiso   1.00
H168   H     0.07826   0.40710   0.06932   0.00000  Uiso   1.00
H169   H     0.24666   0.69199   0.42595   0.00000  Uiso   1.00
H170   H     0.21299   0.70707   0.68359   0.00000  Uiso   1.00
H171   H     0.29577   0.85203   0.29604   0.00000  Uiso   1.00
H172   H     0.24497   0.50836   0.30702   0.00000  Uiso   1.00
H173   H     0.15398   0.73731   0.95528   0.00000  Uiso   1.00
H174   H     0.32853   0.04294   0.13807   0.00000  Uiso   1.00
H175   H     0.22141   0.31824   0.16123   0.00000  Uiso   1.00
O176   O     0.05725   0.79357   0.07686   0.00000  Uiso   1.00
O177   O     0.28625   0.19453   0.00471   0.00000  Uiso   1.00
O178   O     0.14571   0.24374   0.03509   0.00000  Uiso   1.00
N179   N     0.04914   0.80317   0.84964   0.00000  Uiso   1.00
N180   N     0.21233   0.08893   0.08562   0.00000  Uiso   1.00
N181   N     0.11219   0.41140   0.10724   0.00000  Uiso   1.00
N182   N     0.12617   0.75535   0.89910   0.00000  Uiso   1.00
N183   N     0.28936   0.04111   0.13508   0.00000  Uiso   1.00
N184   N     0.18922   0.36358   0.15670   0.00000  Uiso   1.00
