data_job_01206
_audit_creation_date              2018-12-19
_audit_creation_method            'Materials Studio'
_symmetry_space_group_name_H-M    'P1'
_symmetry_Int_Tables_number       1
_symmetry_cell_setting            triclinic
loop_
_symmetry_equiv_pos_as_xyz
  x,y,z
_cell_length_a                    15.6766
_cell_length_b                    7.2641
_cell_length_c                    23.1327
_cell_angle_alpha                 90.0000
_cell_angle_beta                  60.5368
_cell_angle_gamma                 90.0000
loop_
_atom_site_label
_atom_site_type_symbol
_atom_site_fract_x
_atom_site_fract_y
_atom_site_fract_z
_atom_site_U_iso_or_equiv
_atom_site_adp_type
_atom_site_occupancy
C1     C     0.76988   0.57252   0.25337   0.00000  Uiso   1.00
C2     C     0.78502   0.47518   0.19060   0.00000  Uiso   1.00
C3     C     0.83753   0.54380   0.12646   0.00000  Uiso   1.00
C4     C     0.84280   0.43366   0.07576   0.00000  Uiso   1.00
C5     C     0.87321   0.30880   0.97632   0.00000  Uiso   1.00
C6     C     0.65933   0.58404   0.29900   0.00000  Uiso   1.00
C7     C     0.60616   0.74419   0.32602   0.00000  Uiso   1.00
C8     C     0.50562   0.72567   0.36657   0.00000  Uiso   1.00
C9     C     0.34090   0.76981   0.43547   0.00000  Uiso   1.00
C10    C     0.80772   0.44068   0.28694   0.00000  Uiso   1.00
C11    C     0.87930   0.48030   0.30382   0.00000  Uiso   1.00
C12    C     0.90368   0.34110   0.33423   0.00000  Uiso   1.00
C13    C     0.96935   0.16264   0.38440   0.00000  Uiso   1.00
C14    C     0.68586   0.25488   0.27736   0.00000  Uiso   1.00
C15    C     0.73938   0.30265   0.20364   0.00000  Uiso   1.00
C16    C     0.74458   0.19237   0.15301   0.00000  Uiso   1.00
C17    C     0.79709   0.26082   0.08881   0.00000  Uiso   1.00
C18    C     0.61369   0.41152   0.31204   0.00000  Uiso   1.00
C19    C     0.51321   0.39276   0.35256   0.00000  Uiso   1.00
C20    C     0.45990   0.55284   0.37963   0.00000  Uiso   1.00
C21    C     0.76208   0.26814   0.29997   0.00000  Uiso   1.00
C22    C     0.78635   0.12886   0.33037   0.00000  Uiso   1.00
C23    C     0.85796   0.16826   0.34729   0.00000  Uiso   1.00
H24    H     0.80541   0.70684   0.24322   0.00000  Uiso   1.00
H25    H     0.87283   0.67733   0.11640   0.00000  Uiso   1.00
H26    H     0.64150   0.87768   0.31592   0.00000  Uiso   1.00
H27    H     0.91460   0.61382   0.29373   0.00000  Uiso   1.00
H28    H     0.92743   0.56856   0.98154   0.00000  Uiso   1.00
H29    H     0.43966   0.99099   0.40227   0.00000  Uiso   1.00
H30    H     0.01554   0.43461   0.35548   0.00000  Uiso   1.00
H31    H     0.65033   0.12056   0.28751   0.00000  Uiso   1.00
H32    H     0.70925   0.05887   0.16311   0.00000  Uiso   1.00
H33    H     0.47792   0.25922   0.36264   0.00000  Uiso   1.00
H34    H     0.75102   0.99537   0.34045   0.00000  Uiso   1.00
H35    H     0.79466   0.06659   0.01946   0.00000  Uiso   1.00
H36    H     0.30688   0.48904   0.44019   0.00000  Uiso   1.00
H37    H     0.88277   0.93265   0.39339   0.00000  Uiso   1.00
O38    O     0.90257   0.28760   0.91787   0.00000  Uiso   1.00
O39    O     0.26264   0.84182   0.46986   0.00000  Uiso   1.00
O40    O     0.01819   0.11186   0.40846   0.00000  Uiso   1.00
N41    N     0.88811   0.45887   0.00754   0.00000  Uiso   1.00
N42    N     0.43207   0.85383   0.40088   0.00000  Uiso   1.00
N43    N     0.97046   0.33367   0.35715   0.00000  Uiso   1.00
N44    N     0.81667   0.18876   0.02794   0.00000  Uiso   1.00
N45    N     0.36063   0.58373   0.42129   0.00000  Uiso   1.00
N46    N     0.89902   0.06357   0.37755   0.00000  Uiso   1.00
C47    C     0.23012   0.57252   0.24663   0.00000  Uiso   1.00
C48    C     0.21498   0.47518   0.30940   0.00000  Uiso   1.00
C49    C     0.16247   0.54380   0.37354   0.00000  Uiso   1.00
C50    C     0.15720   0.43366   0.42424   0.00000  Uiso   1.00
C51    C     0.12679   0.30880   0.52368   0.00000  Uiso   1.00
C52    C     0.34067   0.58404   0.20100   0.00000  Uiso   1.00
C53    C     0.39384   0.74419   0.17398   0.00000  Uiso   1.00
C54    C     0.49438   0.72567   0.13343   0.00000  Uiso   1.00
C55    C     0.65910   0.76981   0.06453   0.00000  Uiso   1.00
C56    C     0.19228   0.44068   0.21306   0.00000  Uiso   1.00
C57    C     0.12070   0.48030   0.19618   0.00000  Uiso   1.00
C58    C     0.09632   0.34110   0.16577   0.00000  Uiso   1.00
C59    C     0.03065   0.16264   0.11560   0.00000  Uiso   1.00
C60    C     0.31414   0.25488   0.22264   0.00000  Uiso   1.00
C61    C     0.26062   0.30265   0.29636   0.00000  Uiso   1.00
C62    C     0.25542   0.19237   0.34699   0.00000  Uiso   1.00
C63    C     0.20291   0.26082   0.41119   0.00000  Uiso   1.00
C64    C     0.38631   0.41152   0.18796   0.00000  Uiso   1.00
C65    C     0.48679   0.39276   0.14744   0.00000  Uiso   1.00
C66    C     0.54010   0.55284   0.12037   0.00000  Uiso   1.00
C67    C     0.23792   0.26814   0.20003   0.00000  Uiso   1.00
C68    C     0.21365   0.12886   0.16963   0.00000  Uiso   1.00
C69    C     0.14204   0.16826   0.15271   0.00000  Uiso   1.00
H70    H     0.19459   0.70684   0.25678   0.00000  Uiso   1.00
H71    H     0.12717   0.67733   0.38360   0.00000  Uiso   1.00
H72    H     0.35850   0.87768   0.18408   0.00000  Uiso   1.00
H73    H     0.08540   0.61382   0.20627   0.00000  Uiso   1.00
H74    H     0.07257   0.56856   0.51846   0.00000  Uiso   1.00
H75    H     0.56034   0.99099   0.09773   0.00000  Uiso   1.00
H76    H     0.98446   0.43461   0.14452   0.00000  Uiso   1.00
H77    H     0.34967   0.12056   0.21249   0.00000  Uiso   1.00
H78    H     0.29075   0.05887   0.33689   0.00000  Uiso   1.00
H79    H     0.52208   0.25922   0.13736   0.00000  Uiso   1.00
H80    H     0.24898   0.99537   0.15955   0.00000  Uiso   1.00
H81    H     0.20534   0.06659   0.48054   0.00000  Uiso   1.00
H82    H     0.69312   0.48904   0.05981   0.00000  Uiso   1.00
H83    H     0.11723   0.93265   0.10661   0.00000  Uiso   1.00
O84    O     0.09743   0.28760   0.58213   0.00000  Uiso   1.00
O85    O     0.73736   0.84182   0.03014   0.00000  Uiso   1.00
O86    O     0.98181   0.11186   0.09154   0.00000  Uiso   1.00
N87    N     0.11189   0.45887   0.49246   0.00000  Uiso   1.00
N88    N     0.56793   0.85383   0.09912   0.00000  Uiso   1.00
N89    N     0.02954   0.33367   0.14285   0.00000  Uiso   1.00
N90    N     0.18333   0.18876   0.47206   0.00000  Uiso   1.00
N91    N     0.63937   0.58373   0.07871   0.00000  Uiso   1.00
N92    N     0.10098   0.06357   0.12245   0.00000  Uiso   1.00
C93    C     0.23012   0.42748   0.74663   0.00000  Uiso   1.00
C94    C     0.21498   0.52482   0.80940   0.00000  Uiso   1.00
C95    C     0.16247   0.45620   0.87354   0.00000  Uiso   1.00
C96    C     0.15720   0.56634   0.92424   0.00000  Uiso   1.00
C97    C     0.12679   0.69120   0.02368   0.00000  Uiso   1.00
C98    C     0.34067   0.41596   0.70100   0.00000  Uiso   1.00
C99    C     0.39384   0.25581   0.67398   0.00000  Uiso   1.00
C100   C     0.49438   0.27433   0.63343   0.00000  Uiso   1.00
C101   C     0.65910   0.23019   0.56453   0.00000  Uiso   1.00
C102   C     0.19228   0.55932   0.71306   0.00000  Uiso   1.00
C103   C     0.12070   0.51970   0.69618   0.00000  Uiso   1.00
C104   C     0.09632   0.65890   0.66577   0.00000  Uiso   1.00
C105   C     0.03065   0.83736   0.61560   0.00000  Uiso   1.00
C106   C     0.31414   0.74512   0.72264   0.00000  Uiso   1.00
C107   C     0.26062   0.69735   0.79636   0.00000  Uiso   1.00
C108   C     0.25542   0.80763   0.84699   0.00000  Uiso   1.00
C109   C     0.20291   0.73918   0.91119   0.00000  Uiso   1.00
C110   C     0.38631   0.58848   0.68796   0.00000  Uiso   1.00
C111   C     0.48679   0.60724   0.64744   0.00000  Uiso   1.00
C112   C     0.54010   0.44716   0.62037   0.00000  Uiso   1.00
C113   C     0.23792   0.73186   0.70003   0.00000  Uiso   1.00
C114   C     0.21365   0.87114   0.66963   0.00000  Uiso   1.00
C115   C     0.14204   0.83174   0.65271   0.00000  Uiso   1.00
H116   H     0.19459   0.29316   0.75678   0.00000  Uiso   1.00
H117   H     0.12717   0.32267   0.88360   0.00000  Uiso   1.00
H118   H     0.35850   0.12232   0.68408   0.00000  Uiso   1.00
H119   H     0.08540   0.38618   0.70627   0.00000  Uiso   1.00
H120   H     0.07257   0.43144   0.01846   0.00000  Uiso   1.00
H121   H     0.56034   0.00901   0.59773   0.00000  Uiso   1.00
H122   H     0.98446   0.56539   0.64452   0.00000  Uiso   1.00
H123   H     0.34967   0.87944   0.71249   0.00000  Uiso   1.00
H124   H     0.29075   0.94113   0.83689   0.00000  Uiso   1.00
H125   H     0.52208   0.74078   0.63736   0.00000  Uiso   1.00
H126   H     0.24898   0.00463   0.65955   0.00000  Uiso   1.00
H127   H     0.20534   0.93341   0.98054   0.00000  Uiso   1.00
H128   H     0.69312   0.51096   0.55981   0.00000  Uiso   1.00
H129   H     0.11723   0.06735   0.60661   0.00000  Uiso   1.00
O130   O     0.09743   0.71240   0.08213   0.00000  Uiso   1.00
O131   O     0.73736   0.15818   0.53014   0.00000  Uiso   1.00
O132   O     0.98181   0.88814   0.59154   0.00000  Uiso   1.00
N133   N     0.11189   0.54113   0.99246   0.00000  Uiso   1.00
N134   N     0.56793   0.14617   0.59912   0.00000  Uiso   1.00
N135   N     0.02954   0.66633   0.64285   0.00000  Uiso   1.00
N136   N     0.18333   0.81124   0.97206   0.00000  Uiso   1.00
N137   N     0.63937   0.41627   0.57871   0.00000  Uiso   1.00
N138   N     0.10098   0.93643   0.62245   0.00000  Uiso   1.00
C139   C     0.76988   0.42748   0.75337   0.00000  Uiso   1.00
C140   C     0.78502   0.52482   0.69060   0.00000  Uiso   1.00
C141   C     0.83753   0.45620   0.62646   0.00000  Uiso   1.00
C142   C     0.84280   0.56634   0.57576   0.00000  Uiso   1.00
C143   C     0.87321   0.69120   0.47632   0.00000  Uiso   1.00
C144   C     0.65933   0.41596   0.79900   0.00000  Uiso   1.00
C145   C     0.60616   0.25581   0.82602   0.00000  Uiso   1.00
C146   C     0.50562   0.27433   0.86657   0.00000  Uiso   1.00
C147   C     0.34090   0.23019   0.93547   0.00000  Uiso   1.00
C148   C     0.80772   0.55932   0.78694   0.00000  Uiso   1.00
C149   C     0.87930   0.51970   0.80382   0.00000  Uiso   1.00
C150   C     0.90368   0.65890   0.83423   0.00000  Uiso   1.00
C151   C     0.96935   0.83736   0.88440   0.00000  Uiso   1.00
C152   C     0.68586   0.74512   0.77736   0.00000  Uiso   1.00
C153   C     0.73938   0.69735   0.70364   0.00000  Uiso   1.00
C154   C     0.74458   0.80763   0.65301   0.00000  Uiso   1.00
C155   C     0.79709   0.73918   0.58881   0.00000  Uiso   1.00
C156   C     0.61369   0.58848   0.81204   0.00000  Uiso   1.00
C157   C     0.51321   0.60724   0.85256   0.00000  Uiso   1.00
C158   C     0.45990   0.44716   0.87963   0.00000  Uiso   1.00
C159   C     0.76208   0.73186   0.79997   0.00000  Uiso   1.00
C160   C     0.78635   0.87114   0.83037   0.00000  Uiso   1.00
C161   C     0.85796   0.83174   0.84729   0.00000  Uiso   1.00
H162   H     0.80541   0.29316   0.74322   0.00000  Uiso   1.00
H163   H     0.87283   0.32267   0.61640   0.00000  Uiso   1.00
H164   H     0.64150   0.12232   0.81592   0.00000  Uiso   1.00
H165   H     0.91460   0.38618   0.79373   0.00000  Uiso   1.00
H166   H     0.92743   0.43144   0.48154   0.00000  Uiso   1.00
H167   H     0.43966   0.00901   0.90227   0.00000  Uiso   1.00
H168   H     0.01554   0.56539   0.85548   0.00000  Uiso   1.00
H169   H     0.65033   0.87944   0.78751   0.00000  Uiso   1.00
H170   H     0.70925   0.94113   0.66311   0.00000  Uiso   1.00
H171   H     0.47792   0.74078   0.86264   0.00000  Uiso   1.00
H172   H     0.75102   0.00463   0.84045   0.00000  Uiso   1.00
H173   H     0.79466   0.93341   0.51946   0.00000  Uiso   1.00
H174   H     0.30688   0.51096   0.94019   0.00000  Uiso   1.00
H175   H     0.88277   0.06735   0.89339   0.00000  Uiso   1.00
O176   O     0.90257   0.71240   0.41787   0.00000  Uiso   1.00
O177   O     0.26264   0.15818   0.96986   0.00000  Uiso   1.00
O178   O     0.01819   0.88814   0.90846   0.00000  Uiso   1.00
N179   N     0.88811   0.54113   0.50754   0.00000  Uiso   1.00
N180   N     0.43207   0.14617   0.90088   0.00000  Uiso   1.00
N181   N     0.97046   0.66633   0.85715   0.00000  Uiso   1.00
N182   N     0.81667   0.81124   0.52794   0.00000  Uiso   1.00
N183   N     0.36063   0.41627   0.92129   0.00000  Uiso   1.00
N184   N     0.89902   0.93643   0.87755   0.00000  Uiso   1.00
