data_job_03338
_audit_creation_date              2018-12-19
_audit_creation_method            'Materials Studio'
_symmetry_space_group_name_H-M    'P1'
_symmetry_Int_Tables_number       1
_symmetry_cell_setting            triclinic
loop_
_symmetry_equiv_pos_as_xyz
  x,y,z
_cell_length_a                    19.5324
_cell_length_b                    14.4550
_cell_length_c                    18.9349
_cell_angle_alpha                 90.0000
_cell_angle_beta                  90.0000
_cell_angle_gamma                 90.0000
loop_
_atom_site_label
_atom_site_type_symbol
_atom_site_fract_x
_atom_site_fract_y
_atom_site_fract_z
_atom_site_U_iso_or_equiv
_atom_site_adp_type
_atom_site_occupancy
C1     C     0.42578   0.79817   0.89445   0.00000  Uiso   1.00
C2     C     0.49034   0.80482   0.93944   0.00000  Uiso   1.00
C3     C     0.54310   0.86794   0.93007   0.00000  Uiso   1.00
C4     C     0.59774   0.86274   0.97679   0.00000  Uiso   1.00
C5     C     0.69774   0.88307   0.03841   0.00000  Uiso   1.00
C6     C     0.42346   0.69918   0.86670   0.00000  Uiso   1.00
C7     C     0.41997   0.67350   0.79617   0.00000  Uiso   1.00
C8     C     0.41831   0.57937   0.78165   0.00000  Uiso   1.00
C9     C     0.41442   0.43571   0.73033   0.00000  Uiso   1.00
C10    C     0.36576   0.80724   0.94548   0.00000  Uiso   1.00
C11    C     0.31374   0.87240   0.94118   0.00000  Uiso   1.00
C12    C     0.26349   0.86924   0.99298   0.00000  Uiso   1.00
C13    C     0.17001   0.89335   0.06398   0.00000  Uiso   1.00
C14    C     0.42902   0.67668   0.99409   0.00000  Uiso   1.00
C15    C     0.49210   0.73882   0.99356   0.00000  Uiso   1.00
C16    C     0.54668   0.73353   0.04031   0.00000  Uiso   1.00
C17    C     0.59951   0.79664   0.03102   0.00000  Uiso   1.00
C18    C     0.42522   0.63319   0.92082   0.00000  Uiso   1.00
C19    C     0.42355   0.53908   0.90641   0.00000  Uiso   1.00
C20    C     0.42007   0.51326   0.83587   0.00000  Uiso   1.00
C21    C     0.36752   0.74125   0.99960   0.00000  Uiso   1.00
C22    C     0.31733   0.73798   0.05142   0.00000  Uiso   1.00
C23    C     0.26525   0.80313   0.04720   0.00000  Uiso   1.00
H24    H     0.42441   0.84954   0.85231   0.00000  Uiso   1.00
H25    H     0.54172   0.91900   0.88818   0.00000  Uiso   1.00
H26    H     0.41860   0.72458   0.75430   0.00000  Uiso   1.00
H27    H     0.31240   0.92345   0.89929   0.00000  Uiso   1.00
H28    H     0.67257   0.96688   0.95180   0.00000  Uiso   1.00
H29    H     0.41295   0.55694   0.66950   0.00000  Uiso   1.00
H30    H     0.18899   0.97631   0.97524   0.00000  Uiso   1.00
H31    H     0.43039   0.62530   0.03622   0.00000  Uiso   1.00
H32    H     0.54803   0.68245   0.08219   0.00000  Uiso   1.00
H33    H     0.42491   0.48804   0.94830   0.00000  Uiso   1.00
H34    H     0.31871   0.68691   0.09329   0.00000  Uiso   1.00
H35    H     0.67769   0.77489   0.10926   0.00000  Uiso   1.00
H36    H     0.41807   0.36495   0.82696   0.00000  Uiso   1.00
H37    H     0.19411   0.78432   0.13270   0.00000  Uiso   1.00
O38    O     0.75242   0.91251   0.05743   0.00000  Uiso   1.00
O39    O     0.41179   0.37469   0.68707   0.00000  Uiso   1.00
O40    O     0.11797   0.92489   0.08819   0.00000  Uiso   1.00
N41    N     0.65762   0.91386   0.98256   0.00000  Uiso   1.00
N42    N     0.41490   0.53060   0.71862   0.00000  Uiso   1.00
N43    N     0.20551   0.92265   0.00445   0.00000  Uiso   1.00
N44    N     0.66038   0.81056   0.06729   0.00000  Uiso   1.00
N45    N     0.41766   0.42729   0.80335   0.00000  Uiso   1.00
N46    N     0.20827   0.81934   0.08918   0.00000  Uiso   1.00
C47    C     0.07422   0.70183   0.39445   0.00000  Uiso   1.00
C48    C     0.00966   0.69518   0.43944   0.00000  Uiso   1.00
C49    C     0.95690   0.63206   0.43007   0.00000  Uiso   1.00
C50    C     0.90226   0.63726   0.47679   0.00000  Uiso   1.00
C51    C     0.80226   0.61693   0.53841   0.00000  Uiso   1.00
C52    C     0.07654   0.80082   0.36670   0.00000  Uiso   1.00
C53    C     0.08003   0.82650   0.29617   0.00000  Uiso   1.00
C54    C     0.08169   0.92063   0.28165   0.00000  Uiso   1.00
C55    C     0.08558   0.06429   0.23033   0.00000  Uiso   1.00
C56    C     0.13424   0.69276   0.44548   0.00000  Uiso   1.00
C57    C     0.18626   0.62760   0.44118   0.00000  Uiso   1.00
C58    C     0.23651   0.63076   0.49298   0.00000  Uiso   1.00
C59    C     0.32999   0.60665   0.56398   0.00000  Uiso   1.00
C60    C     0.07098   0.82332   0.49409   0.00000  Uiso   1.00
C61    C     0.00790   0.76118   0.49356   0.00000  Uiso   1.00
C62    C     0.95332   0.76647   0.54031   0.00000  Uiso   1.00
C63    C     0.90049   0.70336   0.53102   0.00000  Uiso   1.00
C64    C     0.07478   0.86681   0.42082   0.00000  Uiso   1.00
C65    C     0.07645   0.96092   0.40641   0.00000  Uiso   1.00
C66    C     0.07993   0.98674   0.33587   0.00000  Uiso   1.00
C67    C     0.13248   0.75875   0.49960   0.00000  Uiso   1.00
C68    C     0.18267   0.76202   0.55142   0.00000  Uiso   1.00
C69    C     0.23475   0.69687   0.54720   0.00000  Uiso   1.00
H70    H     0.07559   0.65046   0.35231   0.00000  Uiso   1.00
H71    H     0.95828   0.58100   0.38818   0.00000  Uiso   1.00
H72    H     0.08140   0.77542   0.25430   0.00000  Uiso   1.00
H73    H     0.18760   0.57655   0.39929   0.00000  Uiso   1.00
H74    H     0.82743   0.53312   0.45180   0.00000  Uiso   1.00
H75    H     0.08705   0.94306   0.16950   0.00000  Uiso   1.00
H76    H     0.31101   0.52369   0.47524   0.00000  Uiso   1.00
H77    H     0.06961   0.87470   0.53622   0.00000  Uiso   1.00
H78    H     0.95197   0.81755   0.58219   0.00000  Uiso   1.00
H79    H     0.07509   0.01196   0.44830   0.00000  Uiso   1.00
H80    H     0.18129   0.81309   0.59329   0.00000  Uiso   1.00
H81    H     0.82231   0.72511   0.60926   0.00000  Uiso   1.00
H82    H     0.08193   0.13505   0.32696   0.00000  Uiso   1.00
H83    H     0.30589   0.71568   0.63270   0.00000  Uiso   1.00
O84    O     0.74758   0.58749   0.55743   0.00000  Uiso   1.00
O85    O     0.08821   0.12531   0.18707   0.00000  Uiso   1.00
O86    O     0.38203   0.57511   0.58819   0.00000  Uiso   1.00
N87    N     0.84238   0.58614   0.48256   0.00000  Uiso   1.00
N88    N     0.08510   0.96940   0.21862   0.00000  Uiso   1.00
N89    N     0.29449   0.57735   0.50445   0.00000  Uiso   1.00
N90    N     0.83962   0.68944   0.56729   0.00000  Uiso   1.00
N91    N     0.08234   0.07271   0.30335   0.00000  Uiso   1.00
N92    N     0.29173   0.68066   0.58918   0.00000  Uiso   1.00
C93    C     0.57422   0.79817   0.60555   0.00000  Uiso   1.00
C94    C     0.50966   0.80482   0.56056   0.00000  Uiso   1.00
C95    C     0.45690   0.86794   0.56993   0.00000  Uiso   1.00
C96    C     0.40226   0.86274   0.52321   0.00000  Uiso   1.00
C97    C     0.30226   0.88307   0.46159   0.00000  Uiso   1.00
C98    C     0.57654   0.69918   0.63330   0.00000  Uiso   1.00
C99    C     0.58003   0.67350   0.70383   0.00000  Uiso   1.00
C100   C     0.58169   0.57937   0.71835   0.00000  Uiso   1.00
C101   C     0.58558   0.43571   0.76967   0.00000  Uiso   1.00
C102   C     0.63424   0.80724   0.55452   0.00000  Uiso   1.00
C103   C     0.68626   0.87240   0.55882   0.00000  Uiso   1.00
C104   C     0.73651   0.86924   0.50702   0.00000  Uiso   1.00
C105   C     0.82999   0.89335   0.43602   0.00000  Uiso   1.00
C106   C     0.57098   0.67668   0.50591   0.00000  Uiso   1.00
C107   C     0.50790   0.73882   0.50644   0.00000  Uiso   1.00
C108   C     0.45332   0.73353   0.45969   0.00000  Uiso   1.00
C109   C     0.40049   0.79664   0.46898   0.00000  Uiso   1.00
C110   C     0.57478   0.63319   0.57918   0.00000  Uiso   1.00
C111   C     0.57645   0.53908   0.59359   0.00000  Uiso   1.00
C112   C     0.57993   0.51326   0.66413   0.00000  Uiso   1.00
C113   C     0.63248   0.74125   0.50040   0.00000  Uiso   1.00
C114   C     0.68267   0.73798   0.44858   0.00000  Uiso   1.00
C115   C     0.73475   0.80313   0.45280   0.00000  Uiso   1.00
H116   H     0.57559   0.84954   0.64769   0.00000  Uiso   1.00
H117   H     0.45828   0.91900   0.61182   0.00000  Uiso   1.00
H118   H     0.58140   0.72458   0.74570   0.00000  Uiso   1.00
H119   H     0.68760   0.92345   0.60071   0.00000  Uiso   1.00
H120   H     0.32743   0.96688   0.54820   0.00000  Uiso   1.00
H121   H     0.58705   0.55694   0.83050   0.00000  Uiso   1.00
H122   H     0.81101   0.97631   0.52476   0.00000  Uiso   1.00
H123   H     0.56961   0.62530   0.46378   0.00000  Uiso   1.00
H124   H     0.45197   0.68245   0.41781   0.00000  Uiso   1.00
H125   H     0.57509   0.48804   0.55170   0.00000  Uiso   1.00
H126   H     0.68129   0.68691   0.40671   0.00000  Uiso   1.00
H127   H     0.32231   0.77489   0.39074   0.00000  Uiso   1.00
H128   H     0.58193   0.36495   0.67304   0.00000  Uiso   1.00
H129   H     0.80589   0.78432   0.36730   0.00000  Uiso   1.00
O130   O     0.24758   0.91251   0.44257   0.00000  Uiso   1.00
O131   O     0.58821   0.37469   0.81293   0.00000  Uiso   1.00
O132   O     0.88203   0.92489   0.41181   0.00000  Uiso   1.00
N133   N     0.34238   0.91386   0.51744   0.00000  Uiso   1.00
N134   N     0.58510   0.53060   0.78138   0.00000  Uiso   1.00
N135   N     0.79449   0.92265   0.49555   0.00000  Uiso   1.00
N136   N     0.33962   0.81056   0.43271   0.00000  Uiso   1.00
N137   N     0.58234   0.42729   0.69665   0.00000  Uiso   1.00
N138   N     0.79173   0.81934   0.41082   0.00000  Uiso   1.00
C139   C     0.92578   0.70183   0.10555   0.00000  Uiso   1.00
C140   C     0.99034   0.69518   0.06056   0.00000  Uiso   1.00
C141   C     0.04310   0.63206   0.06993   0.00000  Uiso   1.00
C142   C     0.09774   0.63726   0.02321   0.00000  Uiso   1.00
C143   C     0.19774   0.61693   0.96159   0.00000  Uiso   1.00
C144   C     0.92346   0.80082   0.13330   0.00000  Uiso   1.00
C145   C     0.91997   0.82650   0.20383   0.00000  Uiso   1.00
C146   C     0.91831   0.92063   0.21835   0.00000  Uiso   1.00
C147   C     0.91442   0.06429   0.26967   0.00000  Uiso   1.00
C148   C     0.86576   0.69276   0.05452   0.00000  Uiso   1.00
C149   C     0.81374   0.62760   0.05882   0.00000  Uiso   1.00
C150   C     0.76349   0.63076   0.00702   0.00000  Uiso   1.00
C151   C     0.67001   0.60665   0.93602   0.00000  Uiso   1.00
C152   C     0.92902   0.82332   0.00591   0.00000  Uiso   1.00
C153   C     0.99210   0.76118   0.00644   0.00000  Uiso   1.00
C154   C     0.04668   0.76647   0.95969   0.00000  Uiso   1.00
C155   C     0.09951   0.70336   0.96898   0.00000  Uiso   1.00
C156   C     0.92522   0.86681   0.07918   0.00000  Uiso   1.00
C157   C     0.92355   0.96092   0.09359   0.00000  Uiso   1.00
C158   C     0.92007   0.98674   0.16413   0.00000  Uiso   1.00
C159   C     0.86752   0.75875   0.00040   0.00000  Uiso   1.00
C160   C     0.81733   0.76202   0.94858   0.00000  Uiso   1.00
C161   C     0.76525   0.69687   0.95280   0.00000  Uiso   1.00
H162   H     0.92441   0.65046   0.14769   0.00000  Uiso   1.00
H163   H     0.04172   0.58100   0.11182   0.00000  Uiso   1.00
H164   H     0.91860   0.77542   0.24570   0.00000  Uiso   1.00
H165   H     0.81240   0.57655   0.10071   0.00000  Uiso   1.00
H166   H     0.17257   0.53312   0.04820   0.00000  Uiso   1.00
H167   H     0.91295   0.94306   0.33050   0.00000  Uiso   1.00
H168   H     0.68899   0.52369   0.02476   0.00000  Uiso   1.00
H169   H     0.93039   0.87470   0.96378   0.00000  Uiso   1.00
H170   H     0.04803   0.81755   0.91781   0.00000  Uiso   1.00
H171   H     0.92491   0.01196   0.05170   0.00000  Uiso   1.00
H172   H     0.81871   0.81309   0.90671   0.00000  Uiso   1.00
H173   H     0.17769   0.72511   0.89074   0.00000  Uiso   1.00
H174   H     0.91807   0.13505   0.17304   0.00000  Uiso   1.00
H175   H     0.69411   0.71568   0.86730   0.00000  Uiso   1.00
O176   O     0.25242   0.58749   0.94257   0.00000  Uiso   1.00
O177   O     0.91179   0.12531   0.31293   0.00000  Uiso   1.00
O178   O     0.61797   0.57511   0.91181   0.00000  Uiso   1.00
N179   N     0.15762   0.58614   0.01744   0.00000  Uiso   1.00
N180   N     0.91490   0.96940   0.28138   0.00000  Uiso   1.00
N181   N     0.70551   0.57735   0.99555   0.00000  Uiso   1.00
N182   N     0.16038   0.68944   0.93271   0.00000  Uiso   1.00
N183   N     0.91766   0.07271   0.19665   0.00000  Uiso   1.00
N184   N     0.70827   0.68066   0.91082   0.00000  Uiso   1.00
C185   C     0.57422   0.20183   0.10555   0.00000  Uiso   1.00
C186   C     0.50966   0.19518   0.06056   0.00000  Uiso   1.00
C187   C     0.45690   0.13206   0.06993   0.00000  Uiso   1.00
C188   C     0.40226   0.13726   0.02321   0.00000  Uiso   1.00
C189   C     0.30226   0.11693   0.96159   0.00000  Uiso   1.00
C190   C     0.57654   0.30082   0.13330   0.00000  Uiso   1.00
C191   C     0.58003   0.32650   0.20383   0.00000  Uiso   1.00
C192   C     0.58169   0.42063   0.21835   0.00000  Uiso   1.00
C193   C     0.58558   0.56429   0.26967   0.00000  Uiso   1.00
C194   C     0.63424   0.19276   0.05452   0.00000  Uiso   1.00
C195   C     0.68626   0.12760   0.05882   0.00000  Uiso   1.00
C196   C     0.73651   0.13076   0.00702   0.00000  Uiso   1.00
C197   C     0.82999   0.10665   0.93602   0.00000  Uiso   1.00
C198   C     0.57098   0.32332   0.00591   0.00000  Uiso   1.00
C199   C     0.50790   0.26118   0.00644   0.00000  Uiso   1.00
C200   C     0.45332   0.26647   0.95969   0.00000  Uiso   1.00
C201   C     0.40049   0.20336   0.96898   0.00000  Uiso   1.00
C202   C     0.57478   0.36681   0.07918   0.00000  Uiso   1.00
C203   C     0.57645   0.46092   0.09359   0.00000  Uiso   1.00
C204   C     0.57993   0.48674   0.16413   0.00000  Uiso   1.00
C205   C     0.63248   0.25875   0.00040   0.00000  Uiso   1.00
C206   C     0.68267   0.26202   0.94858   0.00000  Uiso   1.00
C207   C     0.73475   0.19687   0.95280   0.00000  Uiso   1.00
H208   H     0.57559   0.15046   0.14769   0.00000  Uiso   1.00
H209   H     0.45828   0.08100   0.11182   0.00000  Uiso   1.00
H210   H     0.58140   0.27542   0.24570   0.00000  Uiso   1.00
H211   H     0.68760   0.07655   0.10071   0.00000  Uiso   1.00
H212   H     0.32743   0.03312   0.04820   0.00000  Uiso   1.00
H213   H     0.58705   0.44306   0.33050   0.00000  Uiso   1.00
H214   H     0.81101   0.02369   0.02476   0.00000  Uiso   1.00
H215   H     0.56961   0.37470   0.96378   0.00000  Uiso   1.00
H216   H     0.45197   0.31755   0.91781   0.00000  Uiso   1.00
H217   H     0.57509   0.51196   0.05170   0.00000  Uiso   1.00
H218   H     0.68129   0.31309   0.90671   0.00000  Uiso   1.00
H219   H     0.32231   0.22511   0.89074   0.00000  Uiso   1.00
H220   H     0.58193   0.63505   0.17304   0.00000  Uiso   1.00
H221   H     0.80589   0.21568   0.86730   0.00000  Uiso   1.00
O222   O     0.24758   0.08749   0.94257   0.00000  Uiso   1.00
O223   O     0.58821   0.62531   0.31293   0.00000  Uiso   1.00
O224   O     0.88203   0.07511   0.91181   0.00000  Uiso   1.00
N225   N     0.34238   0.08614   0.01744   0.00000  Uiso   1.00
N226   N     0.58510   0.46940   0.28138   0.00000  Uiso   1.00
N227   N     0.79449   0.07735   0.99555   0.00000  Uiso   1.00
N228   N     0.33962   0.18944   0.93271   0.00000  Uiso   1.00
N229   N     0.58234   0.57271   0.19665   0.00000  Uiso   1.00
N230   N     0.79173   0.18066   0.91082   0.00000  Uiso   1.00
C231   C     0.92578   0.29817   0.60555   0.00000  Uiso   1.00
C232   C     0.99034   0.30482   0.56056   0.00000  Uiso   1.00
C233   C     0.04310   0.36794   0.56993   0.00000  Uiso   1.00
C234   C     0.09774   0.36274   0.52321   0.00000  Uiso   1.00
C235   C     0.19774   0.38307   0.46159   0.00000  Uiso   1.00
C236   C     0.92346   0.19918   0.63330   0.00000  Uiso   1.00
C237   C     0.91997   0.17350   0.70383   0.00000  Uiso   1.00
C238   C     0.91831   0.07937   0.71835   0.00000  Uiso   1.00
C239   C     0.91442   0.93571   0.76967   0.00000  Uiso   1.00
C240   C     0.86576   0.30724   0.55452   0.00000  Uiso   1.00
C241   C     0.81374   0.37240   0.55882   0.00000  Uiso   1.00
C242   C     0.76349   0.36924   0.50702   0.00000  Uiso   1.00
C243   C     0.67001   0.39335   0.43602   0.00000  Uiso   1.00
C244   C     0.92902   0.17668   0.50591   0.00000  Uiso   1.00
C245   C     0.99210   0.23882   0.50644   0.00000  Uiso   1.00
C246   C     0.04668   0.23353   0.45969   0.00000  Uiso   1.00
C247   C     0.09951   0.29664   0.46898   0.00000  Uiso   1.00
C248   C     0.92522   0.13319   0.57918   0.00000  Uiso   1.00
C249   C     0.92355   0.03908   0.59359   0.00000  Uiso   1.00
C250   C     0.92007   0.01326   0.66413   0.00000  Uiso   1.00
C251   C     0.86752   0.24125   0.50040   0.00000  Uiso   1.00
C252   C     0.81733   0.23798   0.44858   0.00000  Uiso   1.00
C253   C     0.76525   0.30313   0.45280   0.00000  Uiso   1.00
H254   H     0.92441   0.34954   0.64769   0.00000  Uiso   1.00
H255   H     0.04172   0.41900   0.61182   0.00000  Uiso   1.00
H256   H     0.91860   0.22458   0.74570   0.00000  Uiso   1.00
H257   H     0.81240   0.42345   0.60071   0.00000  Uiso   1.00
H258   H     0.17257   0.46688   0.54820   0.00000  Uiso   1.00
H259   H     0.91295   0.05694   0.83050   0.00000  Uiso   1.00
H260   H     0.68899   0.47631   0.52476   0.00000  Uiso   1.00
H261   H     0.93039   0.12530   0.46378   0.00000  Uiso   1.00
H262   H     0.04803   0.18245   0.41781   0.00000  Uiso   1.00
H263   H     0.92491   0.98804   0.55170   0.00000  Uiso   1.00
H264   H     0.81871   0.18691   0.40671   0.00000  Uiso   1.00
H265   H     0.17769   0.27489   0.39074   0.00000  Uiso   1.00
H266   H     0.91807   0.86495   0.67304   0.00000  Uiso   1.00
H267   H     0.69411   0.28432   0.36730   0.00000  Uiso   1.00
O268   O     0.25242   0.41251   0.44257   0.00000  Uiso   1.00
O269   O     0.91179   0.87469   0.81293   0.00000  Uiso   1.00
O270   O     0.61797   0.42489   0.41181   0.00000  Uiso   1.00
N271   N     0.15762   0.41386   0.51744   0.00000  Uiso   1.00
N272   N     0.91490   0.03060   0.78138   0.00000  Uiso   1.00
N273   N     0.70551   0.42265   0.49555   0.00000  Uiso   1.00
N274   N     0.16038   0.31056   0.43271   0.00000  Uiso   1.00
N275   N     0.91766   0.92729   0.69665   0.00000  Uiso   1.00
N276   N     0.70827   0.31934   0.41082   0.00000  Uiso   1.00
C277   C     0.42578   0.20183   0.39445   0.00000  Uiso   1.00
C278   C     0.49034   0.19518   0.43944   0.00000  Uiso   1.00
C279   C     0.54310   0.13206   0.43007   0.00000  Uiso   1.00
C280   C     0.59774   0.13726   0.47679   0.00000  Uiso   1.00
C281   C     0.69774   0.11693   0.53841   0.00000  Uiso   1.00
C282   C     0.42346   0.30082   0.36670   0.00000  Uiso   1.00
C283   C     0.41997   0.32650   0.29617   0.00000  Uiso   1.00
C284   C     0.41831   0.42063   0.28165   0.00000  Uiso   1.00
C285   C     0.41442   0.56429   0.23033   0.00000  Uiso   1.00
C286   C     0.36576   0.19276   0.44548   0.00000  Uiso   1.00
C287   C     0.31374   0.12760   0.44118   0.00000  Uiso   1.00
C288   C     0.26349   0.13076   0.49298   0.00000  Uiso   1.00
C289   C     0.17001   0.10665   0.56398   0.00000  Uiso   1.00
C290   C     0.42902   0.32332   0.49409   0.00000  Uiso   1.00
C291   C     0.49210   0.26118   0.49356   0.00000  Uiso   1.00
C292   C     0.54668   0.26647   0.54031   0.00000  Uiso   1.00
C293   C     0.59951   0.20336   0.53102   0.00000  Uiso   1.00
C294   C     0.42522   0.36681   0.42082   0.00000  Uiso   1.00
C295   C     0.42355   0.46092   0.40641   0.00000  Uiso   1.00
C296   C     0.42007   0.48674   0.33587   0.00000  Uiso   1.00
C297   C     0.36752   0.25875   0.49960   0.00000  Uiso   1.00
C298   C     0.31733   0.26202   0.55142   0.00000  Uiso   1.00
C299   C     0.26525   0.19687   0.54720   0.00000  Uiso   1.00
H300   H     0.42441   0.15046   0.35231   0.00000  Uiso   1.00
H301   H     0.54172   0.08100   0.38818   0.00000  Uiso   1.00
H302   H     0.41860   0.27542   0.25430   0.00000  Uiso   1.00
H303   H     0.31240   0.07655   0.39929   0.00000  Uiso   1.00
H304   H     0.67257   0.03312   0.45180   0.00000  Uiso   1.00
H305   H     0.41295   0.44306   0.16950   0.00000  Uiso   1.00
H306   H     0.18899   0.02369   0.47524   0.00000  Uiso   1.00
H307   H     0.43039   0.37470   0.53622   0.00000  Uiso   1.00
H308   H     0.54803   0.31755   0.58219   0.00000  Uiso   1.00
H309   H     0.42491   0.51196   0.44830   0.00000  Uiso   1.00
H310   H     0.31871   0.31309   0.59329   0.00000  Uiso   1.00
H311   H     0.67769   0.22511   0.60926   0.00000  Uiso   1.00
H312   H     0.41807   0.63505   0.32696   0.00000  Uiso   1.00
H313   H     0.19411   0.21568   0.63270   0.00000  Uiso   1.00
O314   O     0.75242   0.08749   0.55743   0.00000  Uiso   1.00
O315   O     0.41179   0.62531   0.18707   0.00000  Uiso   1.00
O316   O     0.11797   0.07511   0.58819   0.00000  Uiso   1.00
N317   N     0.65762   0.08614   0.48256   0.00000  Uiso   1.00
N318   N     0.41490   0.46940   0.21862   0.00000  Uiso   1.00
N319   N     0.20551   0.07735   0.50445   0.00000  Uiso   1.00
N320   N     0.66038   0.18944   0.56729   0.00000  Uiso   1.00
N321   N     0.41766   0.57271   0.30335   0.00000  Uiso   1.00
N322   N     0.20827   0.18066   0.58918   0.00000  Uiso   1.00
C323   C     0.07422   0.29817   0.89445   0.00000  Uiso   1.00
C324   C     0.00966   0.30482   0.93944   0.00000  Uiso   1.00
C325   C     0.95690   0.36794   0.93007   0.00000  Uiso   1.00
C326   C     0.90226   0.36274   0.97679   0.00000  Uiso   1.00
C327   C     0.80226   0.38307   0.03841   0.00000  Uiso   1.00
C328   C     0.07654   0.19918   0.86670   0.00000  Uiso   1.00
C329   C     0.08003   0.17350   0.79617   0.00000  Uiso   1.00
C330   C     0.08169   0.07937   0.78165   0.00000  Uiso   1.00
C331   C     0.08558   0.93571   0.73033   0.00000  Uiso   1.00
C332   C     0.13424   0.30724   0.94548   0.00000  Uiso   1.00
C333   C     0.18626   0.37240   0.94118   0.00000  Uiso   1.00
C334   C     0.23651   0.36924   0.99298   0.00000  Uiso   1.00
C335   C     0.32999   0.39335   0.06398   0.00000  Uiso   1.00
C336   C     0.07098   0.17668   0.99409   0.00000  Uiso   1.00
C337   C     0.00790   0.23882   0.99356   0.00000  Uiso   1.00
C338   C     0.95332   0.23353   0.04031   0.00000  Uiso   1.00
C339   C     0.90049   0.29664   0.03102   0.00000  Uiso   1.00
C340   C     0.07478   0.13319   0.92082   0.00000  Uiso   1.00
C341   C     0.07645   0.03908   0.90641   0.00000  Uiso   1.00
C342   C     0.07993   0.01326   0.83587   0.00000  Uiso   1.00
C343   C     0.13248   0.24125   0.99960   0.00000  Uiso   1.00
C344   C     0.18267   0.23798   0.05142   0.00000  Uiso   1.00
C345   C     0.23475   0.30313   0.04720   0.00000  Uiso   1.00
H346   H     0.07559   0.34954   0.85231   0.00000  Uiso   1.00
H347   H     0.95828   0.41900   0.88818   0.00000  Uiso   1.00
H348   H     0.08140   0.22458   0.75430   0.00000  Uiso   1.00
H349   H     0.18760   0.42345   0.89929   0.00000  Uiso   1.00
H350   H     0.82743   0.46688   0.95180   0.00000  Uiso   1.00
H351   H     0.08705   0.05694   0.66950   0.00000  Uiso   1.00
H352   H     0.31101   0.47631   0.97524   0.00000  Uiso   1.00
H353   H     0.06961   0.12530   0.03622   0.00000  Uiso   1.00
H354   H     0.95197   0.18245   0.08219   0.00000  Uiso   1.00
H355   H     0.07509   0.98804   0.94830   0.00000  Uiso   1.00
H356   H     0.18129   0.18691   0.09329   0.00000  Uiso   1.00
H357   H     0.82231   0.27489   0.10926   0.00000  Uiso   1.00
H358   H     0.08193   0.86495   0.82696   0.00000  Uiso   1.00
H359   H     0.30589   0.28432   0.13270   0.00000  Uiso   1.00
O360   O     0.74758   0.41251   0.05743   0.00000  Uiso   1.00
O361   O     0.08821   0.87469   0.68707   0.00000  Uiso   1.00
O362   O     0.38203   0.42489   0.08819   0.00000  Uiso   1.00
N363   N     0.84238   0.41386   0.98256   0.00000  Uiso   1.00
N364   N     0.08510   0.03060   0.71862   0.00000  Uiso   1.00
N365   N     0.29449   0.42265   0.00445   0.00000  Uiso   1.00
N366   N     0.83962   0.31056   0.06729   0.00000  Uiso   1.00
N367   N     0.08234   0.92729   0.80335   0.00000  Uiso   1.00
N368   N     0.29173   0.31934   0.08918   0.00000  Uiso   1.00
