data_job_04849
_audit_creation_date              2018-12-19
_audit_creation_method            'Materials Studio'
_symmetry_space_group_name_H-M    'P1'
_symmetry_Int_Tables_number       1
_symmetry_cell_setting            triclinic
loop_
_symmetry_equiv_pos_as_xyz
  x,y,z
_cell_length_a                    21.5027
_cell_length_b                    12.5350
_cell_length_c                    29.6897
_cell_angle_alpha                 90.0000
_cell_angle_beta                  138.6031
_cell_angle_gamma                 90.0000
loop_
_atom_site_label
_atom_site_type_symbol
_atom_site_fract_x
_atom_site_fract_y
_atom_site_fract_z
_atom_site_U_iso_or_equiv
_atom_site_adp_type
_atom_site_occupancy
C1     C     0.04323   0.56861   0.87108   0.00000  Uiso   1.00
C2     C     0.98808   0.65208   0.86754   0.00000  Uiso   1.00
C3     C     0.95518   0.74834   0.83278   0.00000  Uiso   1.00
C4     C     0.90624   0.81373   0.83578   0.00000  Uiso   1.00
C5     C     0.82299   0.94792   0.82477   0.00000  Uiso   1.00
C6     C     0.13444   0.55104   0.94661   0.00000  Uiso   1.00
C7     C     0.22459   0.56232   0.97833   0.00000  Uiso   1.00
C8     C     0.29885   0.54265   0.04788   0.00000  Uiso   1.00
C9     C     0.44283   0.51988   0.15962   0.00000  Uiso   1.00
C10    C     0.98771   0.46500   0.84509   0.00000  Uiso   1.00
C11    C     0.95451   0.40392   0.79146   0.00000  Uiso   1.00
C12    C     0.90526   0.31179   0.77555   0.00000  Uiso   1.00
C13    C     0.82142   0.15544   0.72966   0.00000  Uiso   1.00
C14    C     0.01481   0.51359   0.93821   0.00000  Uiso   1.00
C15    C     0.97265   0.62220   0.90401   0.00000  Uiso   1.00
C16    C     0.92374   0.68746   0.90705   0.00000  Uiso   1.00
C17    C     0.89077   0.78380   0.87230   0.00000  Uiso   1.00
C18    C     0.11901   0.52116   0.98307   0.00000  Uiso   1.00
C19    C     0.19315   0.50145   0.05260   0.00000  Uiso   1.00
C20    C     0.28340   0.51271   0.08441   0.00000  Uiso   1.00
C21    C     0.97227   0.43511   0.88155   0.00000  Uiso   1.00
C22    C     0.92307   0.34306   0.86573   0.00000  Uiso   1.00
C23    C     0.88980   0.28185   0.81208   0.00000  Uiso   1.00
H24    H     0.05525   0.59187   0.84270   0.00000  Uiso   1.00
H25    H     0.96714   0.77144   0.80458   0.00000  Uiso   1.00
H26    H     0.23651   0.58544   0.95010   0.00000  Uiso   1.00
H27    H     0.96647   0.42707   0.76326   0.00000  Uiso   1.00
H28    H     0.86268   0.95736   0.77841   0.00000  Uiso   1.00
H29    H     0.43066   0.56514   0.08525   0.00000  Uiso   1.00
H30    H     0.86123   0.23118   0.69125   0.00000  Uiso   1.00
H31    H     0.00280   0.49032   0.96660   0.00000  Uiso   1.00
H32    H     0.91181   0.66432   0.93527   0.00000  Uiso   1.00
H33    H     0.18118   0.47832   0.08079   0.00000  Uiso   1.00
H34    H     0.91114   0.31995   0.89395   0.00000  Uiso   1.00
H35    H     0.81778   0.87042   0.88449   0.00000  Uiso   1.00
H36    H     0.38576   0.47819   0.19133   0.00000  Uiso   1.00
H37    H     0.81632   0.14424   0.79733   0.00000  Uiso   1.00
O38    O     0.78135   0.03020   0.80863   0.00000  Uiso   1.00
O39    O     0.52651   0.51560   0.21118   0.00000  Uiso   1.00
O40    O     0.77943   0.07747   0.69427   0.00000  Uiso   1.00
N41    N     0.86459   0.91301   0.80767   0.00000  Uiso   1.00
N42    N     0.39561   0.54632   0.09454   0.00000  Uiso   1.00
N43    N     0.86326   0.23409   0.72620   0.00000  Uiso   1.00
N44    N     0.84042   0.86623   0.86475   0.00000  Uiso   1.00
N45    N     0.37145   0.49954   0.15162   0.00000  Uiso   1.00
N46    N     0.83910   0.18730   0.78328   0.00000  Uiso   1.00
C47    C     0.54323   0.06861   0.87108   0.00000  Uiso   1.00
C48    C     0.48808   0.15208   0.86754   0.00000  Uiso   1.00
C49    C     0.45518   0.24834   0.83278   0.00000  Uiso   1.00
C50    C     0.40624   0.31373   0.83578   0.00000  Uiso   1.00
C51    C     0.32299   0.44792   0.82477   0.00000  Uiso   1.00
C52    C     0.63444   0.05104   0.94661   0.00000  Uiso   1.00
C53    C     0.72459   0.06232   0.97833   0.00000  Uiso   1.00
C54    C     0.79885   0.04265   0.04788   0.00000  Uiso   1.00
C55    C     0.94283   0.01988   0.15962   0.00000  Uiso   1.00
C56    C     0.48771   0.96500   0.84509   0.00000  Uiso   1.00
C57    C     0.45451   0.90392   0.79146   0.00000  Uiso   1.00
C58    C     0.40526   0.81179   0.77555   0.00000  Uiso   1.00
C59    C     0.32142   0.65544   0.72966   0.00000  Uiso   1.00
C60    C     0.51481   0.01359   0.93821   0.00000  Uiso   1.00
C61    C     0.47265   0.12220   0.90401   0.00000  Uiso   1.00
C62    C     0.42374   0.18746   0.90705   0.00000  Uiso   1.00
C63    C     0.39077   0.28380   0.87230   0.00000  Uiso   1.00
C64    C     0.61901   0.02116   0.98307   0.00000  Uiso   1.00
C65    C     0.69315   0.00145   0.05260   0.00000  Uiso   1.00
C66    C     0.78340   0.01271   0.08441   0.00000  Uiso   1.00
C67    C     0.47227   0.93511   0.88155   0.00000  Uiso   1.00
C68    C     0.42307   0.84306   0.86573   0.00000  Uiso   1.00
C69    C     0.38980   0.78185   0.81208   0.00000  Uiso   1.00
H70    H     0.55525   0.09187   0.84270   0.00000  Uiso   1.00
H71    H     0.46714   0.27144   0.80458   0.00000  Uiso   1.00
H72    H     0.73651   0.08544   0.95010   0.00000  Uiso   1.00
H73    H     0.46647   0.92707   0.76326   0.00000  Uiso   1.00
H74    H     0.36268   0.45736   0.77841   0.00000  Uiso   1.00
H75    H     0.93066   0.06514   0.08525   0.00000  Uiso   1.00
H76    H     0.36123   0.73118   0.69125   0.00000  Uiso   1.00
H77    H     0.50280   0.99032   0.96660   0.00000  Uiso   1.00
H78    H     0.41181   0.16432   0.93527   0.00000  Uiso   1.00
H79    H     0.68118   0.97832   0.08079   0.00000  Uiso   1.00
H80    H     0.41114   0.81995   0.89395   0.00000  Uiso   1.00
H81    H     0.31778   0.37042   0.88449   0.00000  Uiso   1.00
H82    H     0.88576   0.97819   0.19133   0.00000  Uiso   1.00
H83    H     0.31632   0.64424   0.79733   0.00000  Uiso   1.00
O84    O     0.28135   0.53020   0.80863   0.00000  Uiso   1.00
O85    O     0.02651   0.01560   0.21118   0.00000  Uiso   1.00
O86    O     0.27943   0.57747   0.69427   0.00000  Uiso   1.00
N87    N     0.36459   0.41301   0.80767   0.00000  Uiso   1.00
N88    N     0.89561   0.04632   0.09454   0.00000  Uiso   1.00
N89    N     0.36326   0.73409   0.72620   0.00000  Uiso   1.00
N90    N     0.34042   0.36623   0.86475   0.00000  Uiso   1.00
N91    N     0.87145   0.99954   0.15162   0.00000  Uiso   1.00
N92    N     0.33910   0.68730   0.78328   0.00000  Uiso   1.00
C93    C     0.95677   0.56861   0.62892   0.00000  Uiso   1.00
C94    C     0.01192   0.65208   0.63246   0.00000  Uiso   1.00
C95    C     0.04482   0.74834   0.66722   0.00000  Uiso   1.00
C96    C     0.09376   0.81373   0.66422   0.00000  Uiso   1.00
C97    C     0.17701   0.94792   0.67523   0.00000  Uiso   1.00
C98    C     0.86556   0.55104   0.55339   0.00000  Uiso   1.00
C99    C     0.77541   0.56232   0.52167   0.00000  Uiso   1.00
C100   C     0.70115   0.54265   0.45212   0.00000  Uiso   1.00
C101   C     0.55717   0.51988   0.34038   0.00000  Uiso   1.00
C102   C     0.01229   0.46500   0.65491   0.00000  Uiso   1.00
C103   C     0.04549   0.40392   0.70854   0.00000  Uiso   1.00
C104   C     0.09474   0.31179   0.72445   0.00000  Uiso   1.00
C105   C     0.17858   0.15544   0.77034   0.00000  Uiso   1.00
C106   C     0.98519   0.51359   0.56179   0.00000  Uiso   1.00
C107   C     0.02735   0.62220   0.59599   0.00000  Uiso   1.00
C108   C     0.07626   0.68746   0.59295   0.00000  Uiso   1.00
C109   C     0.10923   0.78380   0.62770   0.00000  Uiso   1.00
C110   C     0.88099   0.52116   0.51693   0.00000  Uiso   1.00
C111   C     0.80685   0.50145   0.44740   0.00000  Uiso   1.00
C112   C     0.71660   0.51271   0.41559   0.00000  Uiso   1.00
C113   C     0.02773   0.43511   0.61845   0.00000  Uiso   1.00
C114   C     0.07693   0.34306   0.63427   0.00000  Uiso   1.00
C115   C     0.11020   0.28185   0.68792   0.00000  Uiso   1.00
H116   H     0.94475   0.59187   0.65730   0.00000  Uiso   1.00
H117   H     0.03286   0.77144   0.69542   0.00000  Uiso   1.00
H118   H     0.76349   0.58544   0.54990   0.00000  Uiso   1.00
H119   H     0.03353   0.42707   0.73674   0.00000  Uiso   1.00
H120   H     0.13732   0.95736   0.72159   0.00000  Uiso   1.00
H121   H     0.56934   0.56514   0.41475   0.00000  Uiso   1.00
H122   H     0.13877   0.23118   0.80875   0.00000  Uiso   1.00
H123   H     0.99720   0.49032   0.53340   0.00000  Uiso   1.00
H124   H     0.08819   0.66432   0.56473   0.00000  Uiso   1.00
H125   H     0.81882   0.47832   0.41921   0.00000  Uiso   1.00
H126   H     0.08886   0.31995   0.60605   0.00000  Uiso   1.00
H127   H     0.18222   0.87042   0.61551   0.00000  Uiso   1.00
H128   H     0.61424   0.47819   0.30867   0.00000  Uiso   1.00
H129   H     0.18368   0.14424   0.70267   0.00000  Uiso   1.00
O130   O     0.21865   0.03020   0.69137   0.00000  Uiso   1.00
O131   O     0.47349   0.51560   0.28882   0.00000  Uiso   1.00
O132   O     0.22057   0.07747   0.80573   0.00000  Uiso   1.00
N133   N     0.13541   0.91301   0.69233   0.00000  Uiso   1.00
N134   N     0.60439   0.54632   0.40546   0.00000  Uiso   1.00
N135   N     0.13674   0.23409   0.77380   0.00000  Uiso   1.00
N136   N     0.15958   0.86623   0.63525   0.00000  Uiso   1.00
N137   N     0.62855   0.49954   0.34838   0.00000  Uiso   1.00
N138   N     0.16090   0.18730   0.71672   0.00000  Uiso   1.00
C139   C     0.45677   0.06861   0.62892   0.00000  Uiso   1.00
C140   C     0.51192   0.15208   0.63246   0.00000  Uiso   1.00
C141   C     0.54482   0.24834   0.66722   0.00000  Uiso   1.00
C142   C     0.59376   0.31373   0.66422   0.00000  Uiso   1.00
C143   C     0.67701   0.44792   0.67523   0.00000  Uiso   1.00
C144   C     0.36556   0.05104   0.55339   0.00000  Uiso   1.00
C145   C     0.27541   0.06232   0.52167   0.00000  Uiso   1.00
C146   C     0.20115   0.04265   0.45212   0.00000  Uiso   1.00
C147   C     0.05717   0.01988   0.34038   0.00000  Uiso   1.00
C148   C     0.51229   0.96500   0.65491   0.00000  Uiso   1.00
C149   C     0.54549   0.90392   0.70854   0.00000  Uiso   1.00
C150   C     0.59474   0.81179   0.72445   0.00000  Uiso   1.00
C151   C     0.67858   0.65544   0.77034   0.00000  Uiso   1.00
C152   C     0.48519   0.01359   0.56179   0.00000  Uiso   1.00
C153   C     0.52735   0.12220   0.59599   0.00000  Uiso   1.00
C154   C     0.57626   0.18746   0.59295   0.00000  Uiso   1.00
C155   C     0.60923   0.28380   0.62770   0.00000  Uiso   1.00
C156   C     0.38099   0.02116   0.51693   0.00000  Uiso   1.00
C157   C     0.30685   0.00145   0.44740   0.00000  Uiso   1.00
C158   C     0.21660   0.01271   0.41559   0.00000  Uiso   1.00
C159   C     0.52773   0.93511   0.61845   0.00000  Uiso   1.00
C160   C     0.57693   0.84306   0.63427   0.00000  Uiso   1.00
C161   C     0.61020   0.78185   0.68792   0.00000  Uiso   1.00
H162   H     0.44475   0.09187   0.65730   0.00000  Uiso   1.00
H163   H     0.53286   0.27144   0.69542   0.00000  Uiso   1.00
H164   H     0.26349   0.08544   0.54990   0.00000  Uiso   1.00
H165   H     0.53353   0.92707   0.73674   0.00000  Uiso   1.00
H166   H     0.63732   0.45736   0.72159   0.00000  Uiso   1.00
H167   H     0.06934   0.06514   0.41475   0.00000  Uiso   1.00
H168   H     0.63877   0.73118   0.80875   0.00000  Uiso   1.00
H169   H     0.49720   0.99032   0.53340   0.00000  Uiso   1.00
H170   H     0.58819   0.16432   0.56473   0.00000  Uiso   1.00
H171   H     0.31882   0.97832   0.41921   0.00000  Uiso   1.00
H172   H     0.58886   0.81995   0.60605   0.00000  Uiso   1.00
H173   H     0.68222   0.37042   0.61551   0.00000  Uiso   1.00
H174   H     0.11424   0.97819   0.30867   0.00000  Uiso   1.00
H175   H     0.68368   0.64424   0.70267   0.00000  Uiso   1.00
O176   O     0.71865   0.53020   0.69137   0.00000  Uiso   1.00
O177   O     0.97349   0.01560   0.28882   0.00000  Uiso   1.00
O178   O     0.72057   0.57747   0.80573   0.00000  Uiso   1.00
N179   N     0.63541   0.41301   0.69233   0.00000  Uiso   1.00
N180   N     0.10439   0.04632   0.40546   0.00000  Uiso   1.00
N181   N     0.63674   0.73409   0.77380   0.00000  Uiso   1.00
N182   N     0.65958   0.36623   0.63525   0.00000  Uiso   1.00
N183   N     0.12855   0.99954   0.34838   0.00000  Uiso   1.00
N184   N     0.66090   0.68730   0.71672   0.00000  Uiso   1.00
C185   C     0.95677   0.43139   0.12892   0.00000  Uiso   1.00
C186   C     0.01192   0.34792   0.13246   0.00000  Uiso   1.00
C187   C     0.04482   0.25166   0.16722   0.00000  Uiso   1.00
C188   C     0.09376   0.18627   0.16422   0.00000  Uiso   1.00
C189   C     0.17701   0.05208   0.17523   0.00000  Uiso   1.00
C190   C     0.86556   0.44896   0.05339   0.00000  Uiso   1.00
C191   C     0.77541   0.43768   0.02167   0.00000  Uiso   1.00
C192   C     0.70115   0.45735   0.95212   0.00000  Uiso   1.00
C193   C     0.55717   0.48012   0.84038   0.00000  Uiso   1.00
C194   C     0.01229   0.53500   0.15491   0.00000  Uiso   1.00
C195   C     0.04549   0.59608   0.20854   0.00000  Uiso   1.00
C196   C     0.09474   0.68821   0.22445   0.00000  Uiso   1.00
C197   C     0.17858   0.84456   0.27034   0.00000  Uiso   1.00
C198   C     0.98519   0.48641   0.06179   0.00000  Uiso   1.00
C199   C     0.02735   0.37780   0.09599   0.00000  Uiso   1.00
C200   C     0.07626   0.31254   0.09295   0.00000  Uiso   1.00
C201   C     0.10923   0.21620   0.12770   0.00000  Uiso   1.00
C202   C     0.88099   0.47884   0.01693   0.00000  Uiso   1.00
C203   C     0.80685   0.49855   0.94740   0.00000  Uiso   1.00
C204   C     0.71660   0.48729   0.91559   0.00000  Uiso   1.00
C205   C     0.02773   0.56489   0.11845   0.00000  Uiso   1.00
C206   C     0.07693   0.65694   0.13427   0.00000  Uiso   1.00
C207   C     0.11020   0.71815   0.18792   0.00000  Uiso   1.00
H208   H     0.94475   0.40813   0.15730   0.00000  Uiso   1.00
H209   H     0.03286   0.22856   0.19542   0.00000  Uiso   1.00
H210   H     0.76349   0.41456   0.04990   0.00000  Uiso   1.00
H211   H     0.03353   0.57293   0.23674   0.00000  Uiso   1.00
H212   H     0.13732   0.04264   0.22159   0.00000  Uiso   1.00
H213   H     0.56934   0.43486   0.91475   0.00000  Uiso   1.00
H214   H     0.13877   0.76882   0.30875   0.00000  Uiso   1.00
H215   H     0.99720   0.50968   0.03340   0.00000  Uiso   1.00
H216   H     0.08819   0.33568   0.06473   0.00000  Uiso   1.00
H217   H     0.81882   0.52168   0.91921   0.00000  Uiso   1.00
H218   H     0.08886   0.68005   0.10605   0.00000  Uiso   1.00
H219   H     0.18222   0.12958   0.11551   0.00000  Uiso   1.00
H220   H     0.61424   0.52181   0.80867   0.00000  Uiso   1.00
H221   H     0.18368   0.85576   0.20267   0.00000  Uiso   1.00
O222   O     0.21865   0.96980   0.19137   0.00000  Uiso   1.00
O223   O     0.47349   0.48440   0.78882   0.00000  Uiso   1.00
O224   O     0.22057   0.92253   0.30573   0.00000  Uiso   1.00
N225   N     0.13541   0.08699   0.19233   0.00000  Uiso   1.00
N226   N     0.60439   0.45368   0.90546   0.00000  Uiso   1.00
N227   N     0.13674   0.76591   0.27380   0.00000  Uiso   1.00
N228   N     0.15958   0.13377   0.13525   0.00000  Uiso   1.00
N229   N     0.62855   0.50046   0.84838   0.00000  Uiso   1.00
N230   N     0.16090   0.81270   0.21672   0.00000  Uiso   1.00
C231   C     0.45677   0.93139   0.12892   0.00000  Uiso   1.00
C232   C     0.51192   0.84792   0.13246   0.00000  Uiso   1.00
C233   C     0.54482   0.75166   0.16722   0.00000  Uiso   1.00
C234   C     0.59376   0.68627   0.16422   0.00000  Uiso   1.00
C235   C     0.67701   0.55208   0.17523   0.00000  Uiso   1.00
C236   C     0.36556   0.94896   0.05339   0.00000  Uiso   1.00
C237   C     0.27541   0.93768   0.02167   0.00000  Uiso   1.00
C238   C     0.20115   0.95735   0.95212   0.00000  Uiso   1.00
C239   C     0.05717   0.98012   0.84038   0.00000  Uiso   1.00
C240   C     0.51229   0.03500   0.15491   0.00000  Uiso   1.00
C241   C     0.54549   0.09608   0.20854   0.00000  Uiso   1.00
C242   C     0.59474   0.18821   0.22445   0.00000  Uiso   1.00
C243   C     0.67858   0.34456   0.27034   0.00000  Uiso   1.00
C244   C     0.48519   0.98641   0.06179   0.00000  Uiso   1.00
C245   C     0.52735   0.87780   0.09599   0.00000  Uiso   1.00
C246   C     0.57626   0.81254   0.09295   0.00000  Uiso   1.00
C247   C     0.60923   0.71620   0.12770   0.00000  Uiso   1.00
C248   C     0.38099   0.97884   0.01693   0.00000  Uiso   1.00
C249   C     0.30685   0.99855   0.94740   0.00000  Uiso   1.00
C250   C     0.21660   0.98729   0.91559   0.00000  Uiso   1.00
C251   C     0.52773   0.06489   0.11845   0.00000  Uiso   1.00
C252   C     0.57693   0.15694   0.13427   0.00000  Uiso   1.00
C253   C     0.61020   0.21815   0.18792   0.00000  Uiso   1.00
H254   H     0.44475   0.90813   0.15730   0.00000  Uiso   1.00
H255   H     0.53286   0.72856   0.19542   0.00000  Uiso   1.00
H256   H     0.26349   0.91456   0.04990   0.00000  Uiso   1.00
H257   H     0.53353   0.07293   0.23674   0.00000  Uiso   1.00
H258   H     0.63732   0.54264   0.22159   0.00000  Uiso   1.00
H259   H     0.06934   0.93486   0.91475   0.00000  Uiso   1.00
H260   H     0.63877   0.26882   0.30875   0.00000  Uiso   1.00
H261   H     0.49720   0.00968   0.03340   0.00000  Uiso   1.00
H262   H     0.58819   0.83568   0.06473   0.00000  Uiso   1.00
H263   H     0.31882   0.02168   0.91921   0.00000  Uiso   1.00
H264   H     0.58886   0.18005   0.10605   0.00000  Uiso   1.00
H265   H     0.68222   0.62958   0.11551   0.00000  Uiso   1.00
H266   H     0.11424   0.02181   0.80867   0.00000  Uiso   1.00
H267   H     0.68368   0.35576   0.20267   0.00000  Uiso   1.00
O268   O     0.71865   0.46980   0.19137   0.00000  Uiso   1.00
O269   O     0.97349   0.98440   0.78882   0.00000  Uiso   1.00
O270   O     0.72057   0.42253   0.30573   0.00000  Uiso   1.00
N271   N     0.63541   0.58699   0.19233   0.00000  Uiso   1.00
N272   N     0.10439   0.95368   0.90546   0.00000  Uiso   1.00
N273   N     0.63674   0.26591   0.27380   0.00000  Uiso   1.00
N274   N     0.65958   0.63377   0.13525   0.00000  Uiso   1.00
N275   N     0.12855   0.00046   0.84838   0.00000  Uiso   1.00
N276   N     0.66090   0.31270   0.21672   0.00000  Uiso   1.00
C277   C     0.04323   0.43139   0.37108   0.00000  Uiso   1.00
C278   C     0.98808   0.34792   0.36754   0.00000  Uiso   1.00
C279   C     0.95518   0.25166   0.33278   0.00000  Uiso   1.00
C280   C     0.90624   0.18627   0.33578   0.00000  Uiso   1.00
C281   C     0.82299   0.05208   0.32477   0.00000  Uiso   1.00
C282   C     0.13444   0.44896   0.44661   0.00000  Uiso   1.00
C283   C     0.22459   0.43768   0.47833   0.00000  Uiso   1.00
C284   C     0.29885   0.45735   0.54788   0.00000  Uiso   1.00
C285   C     0.44283   0.48012   0.65962   0.00000  Uiso   1.00
C286   C     0.98771   0.53500   0.34509   0.00000  Uiso   1.00
C287   C     0.95451   0.59608   0.29146   0.00000  Uiso   1.00
C288   C     0.90526   0.68821   0.27555   0.00000  Uiso   1.00
C289   C     0.82142   0.84456   0.22966   0.00000  Uiso   1.00
C290   C     0.01481   0.48641   0.43821   0.00000  Uiso   1.00
C291   C     0.97265   0.37780   0.40401   0.00000  Uiso   1.00
C292   C     0.92374   0.31254   0.40705   0.00000  Uiso   1.00
C293   C     0.89077   0.21620   0.37230   0.00000  Uiso   1.00
C294   C     0.11901   0.47884   0.48307   0.00000  Uiso   1.00
C295   C     0.19315   0.49855   0.55260   0.00000  Uiso   1.00
C296   C     0.28340   0.48729   0.58441   0.00000  Uiso   1.00
C297   C     0.97227   0.56489   0.38155   0.00000  Uiso   1.00
C298   C     0.92307   0.65694   0.36573   0.00000  Uiso   1.00
C299   C     0.88980   0.71815   0.31208   0.00000  Uiso   1.00
H300   H     0.05525   0.40813   0.34270   0.00000  Uiso   1.00
H301   H     0.96714   0.22856   0.30458   0.00000  Uiso   1.00
H302   H     0.23651   0.41456   0.45010   0.00000  Uiso   1.00
H303   H     0.96647   0.57293   0.26326   0.00000  Uiso   1.00
H304   H     0.86268   0.04264   0.27841   0.00000  Uiso   1.00
H305   H     0.43066   0.43486   0.58525   0.00000  Uiso   1.00
H306   H     0.86123   0.76882   0.19125   0.00000  Uiso   1.00
H307   H     0.00280   0.50968   0.46660   0.00000  Uiso   1.00
H308   H     0.91181   0.33568   0.43527   0.00000  Uiso   1.00
H309   H     0.18118   0.52168   0.58079   0.00000  Uiso   1.00
H310   H     0.91114   0.68005   0.39395   0.00000  Uiso   1.00
H311   H     0.81778   0.12958   0.38449   0.00000  Uiso   1.00
H312   H     0.38576   0.52181   0.69133   0.00000  Uiso   1.00
H313   H     0.81632   0.85576   0.29733   0.00000  Uiso   1.00
O314   O     0.78135   0.96980   0.30863   0.00000  Uiso   1.00
O315   O     0.52651   0.48440   0.71118   0.00000  Uiso   1.00
O316   O     0.77943   0.92253   0.19427   0.00000  Uiso   1.00
N317   N     0.86459   0.08699   0.30767   0.00000  Uiso   1.00
N318   N     0.39561   0.45368   0.59454   0.00000  Uiso   1.00
N319   N     0.86326   0.76591   0.22620   0.00000  Uiso   1.00
N320   N     0.84042   0.13377   0.36475   0.00000  Uiso   1.00
N321   N     0.37145   0.50046   0.65162   0.00000  Uiso   1.00
N322   N     0.83910   0.81270   0.28328   0.00000  Uiso   1.00
C323   C     0.54323   0.93139   0.37108   0.00000  Uiso   1.00
C324   C     0.48808   0.84792   0.36754   0.00000  Uiso   1.00
C325   C     0.45518   0.75166   0.33278   0.00000  Uiso   1.00
C326   C     0.40624   0.68627   0.33578   0.00000  Uiso   1.00
C327   C     0.32299   0.55208   0.32477   0.00000  Uiso   1.00
C328   C     0.63444   0.94896   0.44661   0.00000  Uiso   1.00
C329   C     0.72459   0.93768   0.47833   0.00000  Uiso   1.00
C330   C     0.79885   0.95735   0.54788   0.00000  Uiso   1.00
C331   C     0.94283   0.98012   0.65962   0.00000  Uiso   1.00
C332   C     0.48771   0.03500   0.34509   0.00000  Uiso   1.00
C333   C     0.45451   0.09608   0.29146   0.00000  Uiso   1.00
C334   C     0.40526   0.18821   0.27555   0.00000  Uiso   1.00
C335   C     0.32142   0.34456   0.22966   0.00000  Uiso   1.00
C336   C     0.51481   0.98641   0.43821   0.00000  Uiso   1.00
C337   C     0.47265   0.87780   0.40401   0.00000  Uiso   1.00
C338   C     0.42374   0.81254   0.40705   0.00000  Uiso   1.00
C339   C     0.39077   0.71620   0.37230   0.00000  Uiso   1.00
C340   C     0.61901   0.97884   0.48307   0.00000  Uiso   1.00
C341   C     0.69315   0.99855   0.55260   0.00000  Uiso   1.00
C342   C     0.78340   0.98729   0.58441   0.00000  Uiso   1.00
C343   C     0.47227   0.06489   0.38155   0.00000  Uiso   1.00
C344   C     0.42307   0.15694   0.36573   0.00000  Uiso   1.00
C345   C     0.38980   0.21815   0.31208   0.00000  Uiso   1.00
H346   H     0.55525   0.90813   0.34270   0.00000  Uiso   1.00
H347   H     0.46714   0.72856   0.30458   0.00000  Uiso   1.00
H348   H     0.73651   0.91456   0.45010   0.00000  Uiso   1.00
H349   H     0.46647   0.07293   0.26326   0.00000  Uiso   1.00
H350   H     0.36268   0.54264   0.27841   0.00000  Uiso   1.00
H351   H     0.93066   0.93486   0.58525   0.00000  Uiso   1.00
H352   H     0.36123   0.26882   0.19125   0.00000  Uiso   1.00
H353   H     0.50280   0.00968   0.46660   0.00000  Uiso   1.00
H354   H     0.41181   0.83568   0.43527   0.00000  Uiso   1.00
H355   H     0.68118   0.02168   0.58079   0.00000  Uiso   1.00
H356   H     0.41114   0.18005   0.39395   0.00000  Uiso   1.00
H357   H     0.31778   0.62958   0.38449   0.00000  Uiso   1.00
H358   H     0.88576   0.02181   0.69133   0.00000  Uiso   1.00
H359   H     0.31632   0.35576   0.29733   0.00000  Uiso   1.00
O360   O     0.28135   0.46980   0.30863   0.00000  Uiso   1.00
O361   O     0.02651   0.98440   0.71118   0.00000  Uiso   1.00
O362   O     0.27943   0.42253   0.19427   0.00000  Uiso   1.00
N363   N     0.36459   0.58699   0.30767   0.00000  Uiso   1.00
N364   N     0.89561   0.95368   0.59454   0.00000  Uiso   1.00
N365   N     0.36326   0.26591   0.22620   0.00000  Uiso   1.00
N366   N     0.34042   0.63377   0.36475   0.00000  Uiso   1.00
N367   N     0.87145   0.00046   0.65162   0.00000  Uiso   1.00
N368   N     0.33910   0.31270   0.28328   0.00000  Uiso   1.00
