data_job_03717
_audit_creation_date              2018-12-19
_audit_creation_method            'Materials Studio'
_symmetry_space_group_name_H-M    'P1'
_symmetry_Int_Tables_number       1
_symmetry_cell_setting            triclinic
loop_
_symmetry_equiv_pos_as_xyz
  x,y,z
_cell_length_a                    17.3959
_cell_length_b                    8.6250
_cell_length_c                    10.0998
_cell_angle_alpha                 90.0000
_cell_angle_beta                  120.2730
_cell_angle_gamma                 90.0000
loop_
_atom_site_label
_atom_site_type_symbol
_atom_site_fract_x
_atom_site_fract_y
_atom_site_fract_z
_atom_site_U_iso_or_equiv
_atom_site_adp_type
_atom_site_occupancy
C1     C     0.80712   0.18960   0.37227   0.00000  Uiso   1.00
C2     C     0.83680   0.34820   0.44808   0.00000  Uiso   1.00
C3     C     0.91020   0.37677   0.59158   0.00000  Uiso   1.00
C4     C     0.92609   0.52993   0.64046   0.00000  Uiso   1.00
C5     C     0.98061   0.75791   0.77212   0.00000  Uiso   1.00
C6     C     0.71110   0.16980   0.33484   0.00000  Uiso   1.00
C7     C     0.67882   0.04836   0.38312   0.00000  Uiso   1.00
C8     C     0.58890   0.05135   0.33665   0.00000  Uiso   1.00
C9     C     0.44825   0.00230   0.29240   0.00000  Uiso   1.00
C10    C     0.80334   0.20238   0.21851   0.00000  Uiso   1.00
C11    C     0.84860   0.10830   0.16896   0.00000  Uiso   1.00
C12    C     0.83633   0.13869   0.02453   0.00000  Uiso   1.00
C13    C     0.83890   0.14023   0.79968   0.00000  Uiso   1.00
C14    C     0.70481   0.41080   0.20389   0.00000  Uiso   1.00
C15    C     0.78123   0.46834   0.35662   0.00000  Uiso   1.00
C16    C     0.79702   0.62150   0.40529   0.00000  Uiso   1.00
C17    C     0.87043   0.65030   0.54884   0.00000  Uiso   1.00
C18    C     0.65553   0.28994   0.24339   0.00000  Uiso   1.00
C19    C     0.56563   0.29310   0.19683   0.00000  Uiso   1.00
C20    C     0.53323   0.17171   0.24503   0.00000  Uiso   1.00
C21    C     0.74778   0.32253   0.12706   0.00000  Uiso   1.00
C22    C     0.73542   0.35305   0.98267   0.00000  Uiso   1.00
C23    C     0.78066   0.25905   0.93291   0.00000  Uiso   1.00
H24    H     0.85037   0.09605   0.44347   0.00000  Uiso   1.00
H25    H     0.95318   0.28375   0.66233   0.00000  Uiso   1.00
H26    H     0.72183   0.95540   0.45388   0.00000  Uiso   1.00
H27    H     0.89160   0.01534   0.23976   0.00000  Uiso   1.00
H28    H     0.04264   0.54483   0.86467   0.00000  Uiso   1.00
H29    H     0.55483   0.85245   0.42509   0.00000  Uiso   1.00
H30    H     0.91280   0.97884   0.97358   0.00000  Uiso   1.00
H31    H     0.66155   0.50434   0.13269   0.00000  Uiso   1.00
H32    H     0.75400   0.71446   0.33449   0.00000  Uiso   1.00
H33    H     0.52265   0.38609   0.12605   0.00000  Uiso   1.00
H34    H     0.69242   0.44604   0.91193   0.00000  Uiso   1.00
H35    H     0.88098   0.89441   0.59859   0.00000  Uiso   1.00
H36    H     0.39316   0.20201   0.15901   0.00000  Uiso   1.00
H37    H     0.75114   0.32841   0.70750   0.00000  Uiso   1.00
O38    O     0.02602   0.85047   0.87001   0.00000  Uiso   1.00
O39    O     0.38602   0.94206   0.29328   0.00000  Uiso   1.00
O40    O     0.85568   0.10790   0.70092   0.00000  Uiso   1.00
N41    N     0.99192   0.59828   0.77434   0.00000  Uiso   1.00
N42    N     0.53584   0.95094   0.36338   0.00000  Uiso   1.00
N43    N     0.87050   0.06909   0.94124   0.00000  Uiso   1.00
N44    N     0.90493   0.78638   0.63116   0.00000  Uiso   1.00
N45    N     0.44885   0.13905   0.22021   0.00000  Uiso   1.00
N46    N     0.78351   0.25719   0.79807   0.00000  Uiso   1.00
C47    C     0.19288   0.18960   0.62773   0.00000  Uiso   1.00
C48    C     0.16320   0.34820   0.55192   0.00000  Uiso   1.00
C49    C     0.08980   0.37677   0.40842   0.00000  Uiso   1.00
C50    C     0.07391   0.52993   0.35954   0.00000  Uiso   1.00
C51    C     0.01939   0.75791   0.22788   0.00000  Uiso   1.00
C52    C     0.28890   0.16980   0.66516   0.00000  Uiso   1.00
C53    C     0.32118   0.04836   0.61688   0.00000  Uiso   1.00
C54    C     0.41110   0.05135   0.66335   0.00000  Uiso   1.00
C55    C     0.55175   0.00230   0.70760   0.00000  Uiso   1.00
C56    C     0.19666   0.20238   0.78149   0.00000  Uiso   1.00
C57    C     0.15140   0.10830   0.83104   0.00000  Uiso   1.00
C58    C     0.16367   0.13869   0.97547   0.00000  Uiso   1.00
C59    C     0.16110   0.14023   0.20032   0.00000  Uiso   1.00
C60    C     0.29519   0.41080   0.79611   0.00000  Uiso   1.00
C61    C     0.21877   0.46834   0.64338   0.00000  Uiso   1.00
C62    C     0.20298   0.62150   0.59471   0.00000  Uiso   1.00
C63    C     0.12957   0.65030   0.45116   0.00000  Uiso   1.00
C64    C     0.34447   0.28994   0.75661   0.00000  Uiso   1.00
C65    C     0.43437   0.29310   0.80317   0.00000  Uiso   1.00
C66    C     0.46677   0.17171   0.75497   0.00000  Uiso   1.00
C67    C     0.25222   0.32253   0.87294   0.00000  Uiso   1.00
C68    C     0.26458   0.35305   0.01733   0.00000  Uiso   1.00
C69    C     0.21934   0.25905   0.06709   0.00000  Uiso   1.00
H70    H     0.14963   0.09605   0.55653   0.00000  Uiso   1.00
H71    H     0.04682   0.28375   0.33767   0.00000  Uiso   1.00
H72    H     0.27817   0.95540   0.54612   0.00000  Uiso   1.00
H73    H     0.10840   0.01534   0.76024   0.00000  Uiso   1.00
H74    H     0.95736   0.54483   0.13533   0.00000  Uiso   1.00
H75    H     0.44517   0.85245   0.57491   0.00000  Uiso   1.00
H76    H     0.08720   0.97884   0.02642   0.00000  Uiso   1.00
H77    H     0.33845   0.50434   0.86731   0.00000  Uiso   1.00
H78    H     0.24600   0.71446   0.66551   0.00000  Uiso   1.00
H79    H     0.47735   0.38609   0.87395   0.00000  Uiso   1.00
H80    H     0.30758   0.44604   0.08807   0.00000  Uiso   1.00
H81    H     0.11902   0.89441   0.40141   0.00000  Uiso   1.00
H82    H     0.60684   0.20201   0.84099   0.00000  Uiso   1.00
H83    H     0.24886   0.32841   0.29250   0.00000  Uiso   1.00
O84    O     0.97398   0.85047   0.12999   0.00000  Uiso   1.00
O85    O     0.61398   0.94206   0.70672   0.00000  Uiso   1.00
O86    O     0.14432   0.10790   0.29908   0.00000  Uiso   1.00
N87    N     0.00808   0.59828   0.22566   0.00000  Uiso   1.00
N88    N     0.46416   0.95094   0.63662   0.00000  Uiso   1.00
N89    N     0.12950   0.06909   0.05876   0.00000  Uiso   1.00
N90    N     0.09507   0.78638   0.36884   0.00000  Uiso   1.00
N91    N     0.55115   0.13905   0.77979   0.00000  Uiso   1.00
N92    N     0.21649   0.25719   0.20193   0.00000  Uiso   1.00
