data_job_00573
_audit_creation_date              2018-12-19
_audit_creation_method            'Materials Studio'
_symmetry_space_group_name_H-M    'P1'
_symmetry_Int_Tables_number       1
_symmetry_cell_setting            triclinic
loop_
_symmetry_equiv_pos_as_xyz
  x,y,z
_cell_length_a                    27.2112
_cell_length_b                    16.6698
_cell_length_c                    29.8414
_cell_angle_alpha                 90.0000
_cell_angle_beta                  155.6520
_cell_angle_gamma                 90.0000
loop_
_atom_site_label
_atom_site_type_symbol
_atom_site_fract_x
_atom_site_fract_y
_atom_site_fract_z
_atom_site_U_iso_or_equiv
_atom_site_adp_type
_atom_site_occupancy
C1     C     0.38991   0.30942   0.57931   0.00000  Uiso   1.00
C2     C     0.51639   0.30460   0.66586   0.00000  Uiso   1.00
C3     C     0.61630   0.34073   0.76743   0.00000  Uiso   1.00
C4     C     0.72399   0.32916   0.83489   0.00000  Uiso   1.00
C5     C     0.91925   0.32872   0.97429   0.00000  Uiso   1.00
C6     C     0.31310   0.34256   0.47762   0.00000  Uiso   1.00
C7     C     0.24207   0.41061   0.42091   0.00000  Uiso   1.00
C8     C     0.17861   0.43098   0.32990   0.00000  Uiso   1.00
C9     C     0.05820   0.48944   0.17700   0.00000  Uiso   1.00
C10    C     0.34953   0.22298   0.55277   0.00000  Uiso   1.00
C11    C     0.30911   0.19048   0.55922   0.00000  Uiso   1.00
C12    C     0.27630   0.11017   0.53146   0.00000  Uiso   1.00
C13    C     0.21245   0.98296   0.49526   0.00000  Uiso   1.00
C14    C     0.40348   0.22460   0.51852   0.00000  Uiso   1.00
C15    C     0.52376   0.25853   0.63284   0.00000  Uiso   1.00
C16    C     0.63132   0.24690   0.70017   0.00000  Uiso   1.00
C17    C     0.73138   0.28300   0.80181   0.00000  Uiso   1.00
C18    C     0.32047   0.29650   0.44460   0.00000  Uiso   1.00
C19    C     0.25709   0.31677   0.35365   0.00000  Uiso   1.00
C20    C     0.18600   0.38483   0.29682   0.00000  Uiso   1.00
C21    C     0.35691   0.17691   0.51976   0.00000  Uiso   1.00
C22    C     0.32414   0.09664   0.49197   0.00000  Uiso   1.00
C23    C     0.28368   0.06402   0.49838   0.00000  Uiso   1.00
H24    H     0.38416   0.34529   0.60501   0.00000  Uiso   1.00
H25    H     0.61055   0.37639   0.79294   0.00000  Uiso   1.00
H26    H     0.23638   0.44624   0.44647   0.00000  Uiso   1.00
H27    H     0.30341   0.22614   0.58478   0.00000  Uiso   1.00
H28    H     0.86480   0.39057   0.98673   0.00000  Uiso   1.00
H29    H     0.07579   0.53785   0.25616   0.00000  Uiso   1.00
H30    H     0.21715   0.07373   0.54779   0.00000  Uiso   1.00
H31    H     0.40922   0.18874   0.49280   0.00000  Uiso   1.00
H32    H     0.63700   0.21124   0.67459   0.00000  Uiso   1.00
H33    H     0.26282   0.28110   0.32812   0.00000  Uiso   1.00
H34    H     0.32986   0.06101   0.46642   0.00000  Uiso   1.00
H35    H     0.88627   0.25654   0.89067   0.00000  Uiso   1.00
H36    H     0.09725   0.40382   0.16009   0.00000  Uiso   1.00
H37    H     0.23861   0.93970   0.45173   0.00000  Uiso   1.00
O38    O     0.02492   0.34121   0.06029   0.00000  Uiso   1.00
O39    O     0.98975   0.53442   0.10180   0.00000  Uiso   1.00
O40    O     0.17521   0.92551   0.48442   0.00000  Uiso   1.00
N41    N     0.83860   0.35593   0.93918   0.00000  Uiso   1.00
N42    N     0.10094   0.49363   0.25615   0.00000  Uiso   1.00
N43    N     0.23306   0.05973   0.52877   0.00000  Uiso   1.00
N44    N     0.85015   0.28380   0.88749   0.00000  Uiso   1.00
N45    N     0.11249   0.42151   0.20446   0.00000  Uiso   1.00
N46    N     0.24461   0.98760   0.47708   0.00000  Uiso   1.00
C47    C     0.27264   0.46057   0.58096   0.00000  Uiso   1.00
C48    C     0.32104   0.46577   0.66884   0.00000  Uiso   1.00
C49    C     0.42508   0.43014   0.77066   0.00000  Uiso   1.00
C50    C     0.45395   0.44201   0.83940   0.00000  Uiso   1.00
C51    C     0.54013   0.44307   0.98071   0.00000  Uiso   1.00
C52    C     0.14672   0.42688   0.48045   0.00000  Uiso   1.00
C53    C     0.10419   0.35858   0.42387   0.00000  Uiso   1.00
C54    C     0.98631   0.33772   0.33401   0.00000  Uiso   1.00
C55    C     0.80184   0.27845   0.18278   0.00000  Uiso   1.00
C56    C     0.25849   0.54689   0.55316   0.00000  Uiso   1.00
C57    C     0.30990   0.57948   0.55769   0.00000  Uiso   1.00
C58    C     0.28610   0.65966   0.52903   0.00000  Uiso   1.00
C59    C     0.27516   0.78672   0.49071   0.00000  Uiso   1.00
C60    C     0.13891   0.54498   0.52196   0.00000  Uiso   1.00
C61    C     0.24841   0.51162   0.63679   0.00000  Uiso   1.00
C62    C     0.27713   0.52354   0.70539   0.00000  Uiso   1.00
C63    C     0.38119   0.48794   0.80730   0.00000  Uiso   1.00
C64    C     0.07409   0.47273   0.44840   0.00000  Uiso   1.00
C65    C     0.95624   0.45197   0.35860   0.00000  Uiso   1.00
C66    C     0.91355   0.38365   0.30190   0.00000  Uiso   1.00
C67    C     0.18586   0.59274   0.52112   0.00000  Uiso   1.00
C68    C     0.16196   0.67288   0.49243   0.00000  Uiso   1.00
C69    C     0.21333   0.70559   0.49692   0.00000  Uiso   1.00
H70    H     0.32918   0.42487   0.60590   0.00000  Uiso   1.00
H71    H     0.48126   0.39466   0.79543   0.00000  Uiso   1.00
H72    H     0.16042   0.32311   0.44868   0.00000  Uiso   1.00
H73    H     0.36611   0.54399   0.58249   0.00000  Uiso   1.00
H74    H     0.61781   0.38136   0.99141   0.00000  Uiso   1.00
H75    H     0.94130   0.23051   0.26025   0.00000  Uiso   1.00
H76    H     0.37502   0.69627   0.54241   0.00000  Uiso   1.00
H77    H     0.08236   0.58068   0.49701   0.00000  Uiso   1.00
H78    H     0.22090   0.55902   0.68057   0.00000  Uiso   1.00
H79    H     0.90006   0.48747   0.33382   0.00000  Uiso   1.00
H80    H     0.10575   0.70834   0.46763   0.00000  Uiso   1.00
H81    H     0.40649   0.51476   0.89818   0.00000  Uiso   1.00
H82    H     0.72997   0.36391   0.16702   0.00000  Uiso   1.00
H83    H     0.16370   0.82967   0.44919   0.00000  Uiso   1.00
O84    O     0.60772   0.43098   0.06750   0.00000  Uiso   1.00
O85    O     0.72016   0.23308   0.10823   0.00000  Uiso   1.00
O86    O     0.28920   0.84414   0.47844   0.00000  Uiso   1.00
N87    N     0.54908   0.41575   0.94428   0.00000  Uiso   1.00
N88    N     0.91658   0.27470   0.26070   0.00000  Uiso   1.00
N89    N     0.32205   0.71014   0.52448   0.00000  Uiso   1.00
N90    N     0.43537   0.48753   0.89412   0.00000  Uiso   1.00
N91    N     0.80287   0.34648   0.21054   0.00000  Uiso   1.00
N92    N     0.20835   0.78192   0.47432   0.00000  Uiso   1.00
C93    C     0.61009   0.80942   0.92069   0.00000  Uiso   1.00
C94    C     0.48361   0.80460   0.83414   0.00000  Uiso   1.00
C95    C     0.38370   0.84073   0.73257   0.00000  Uiso   1.00
C96    C     0.27601   0.82916   0.66511   0.00000  Uiso   1.00
C97    C     0.08075   0.82872   0.52571   0.00000  Uiso   1.00
C98    C     0.68690   0.84256   0.02238   0.00000  Uiso   1.00
C99    C     0.75793   0.91061   0.07909   0.00000  Uiso   1.00
C100   C     0.82139   0.93098   0.17010   0.00000  Uiso   1.00
C101   C     0.94180   0.98944   0.32300   0.00000  Uiso   1.00
C102   C     0.65047   0.72298   0.94723   0.00000  Uiso   1.00
C103   C     0.69089   0.69048   0.94078   0.00000  Uiso   1.00
C104   C     0.72370   0.61017   0.96854   0.00000  Uiso   1.00
C105   C     0.78755   0.48296   0.00474   0.00000  Uiso   1.00
C106   C     0.59652   0.72460   0.98148   0.00000  Uiso   1.00
C107   C     0.47624   0.75853   0.86716   0.00000  Uiso   1.00
C108   C     0.36868   0.74690   0.79983   0.00000  Uiso   1.00
C109   C     0.26862   0.78300   0.69819   0.00000  Uiso   1.00
C110   C     0.67953   0.79650   0.05540   0.00000  Uiso   1.00
C111   C     0.74291   0.81677   0.14635   0.00000  Uiso   1.00
C112   C     0.81400   0.88483   0.20318   0.00000  Uiso   1.00
C113   C     0.64309   0.67691   0.98024   0.00000  Uiso   1.00
C114   C     0.67586   0.59664   0.00803   0.00000  Uiso   1.00
C115   C     0.71632   0.56402   0.00162   0.00000  Uiso   1.00
H116   H     0.61584   0.84529   0.89499   0.00000  Uiso   1.00
H117   H     0.38945   0.87639   0.70706   0.00000  Uiso   1.00
H118   H     0.76362   0.94624   0.05353   0.00000  Uiso   1.00
H119   H     0.69659   0.72614   0.91522   0.00000  Uiso   1.00
H120   H     0.13520   0.89057   0.51327   0.00000  Uiso   1.00
H121   H     0.92421   0.03785   0.24384   0.00000  Uiso   1.00
H122   H     0.78285   0.57373   0.95221   0.00000  Uiso   1.00
H123   H     0.59078   0.68874   0.00720   0.00000  Uiso   1.00
H124   H     0.36300   0.71124   0.82541   0.00000  Uiso   1.00
H125   H     0.73718   0.78110   0.17188   0.00000  Uiso   1.00
H126   H     0.67014   0.56101   0.03358   0.00000  Uiso   1.00
H127   H     0.11373   0.75654   0.60933   0.00000  Uiso   1.00
H128   H     0.90275   0.90382   0.33991   0.00000  Uiso   1.00
H129   H     0.76139   0.43970   0.04827   0.00000  Uiso   1.00
O130   O     0.97508   0.84121   0.43971   0.00000  Uiso   1.00
O131   O     0.01025   0.03442   0.39820   0.00000  Uiso   1.00
O132   O     0.82479   0.42551   0.01558   0.00000  Uiso   1.00
N133   N     0.16140   0.85593   0.56082   0.00000  Uiso   1.00
N134   N     0.89906   0.99363   0.24385   0.00000  Uiso   1.00
N135   N     0.76694   0.55973   0.97123   0.00000  Uiso   1.00
N136   N     0.14985   0.78380   0.61251   0.00000  Uiso   1.00
N137   N     0.88751   0.92151   0.29554   0.00000  Uiso   1.00
N138   N     0.75539   0.48760   0.02292   0.00000  Uiso   1.00
C139   C     0.72736   0.96057   0.91904   0.00000  Uiso   1.00
C140   C     0.67896   0.96577   0.83116   0.00000  Uiso   1.00
C141   C     0.57492   0.93014   0.72934   0.00000  Uiso   1.00
C142   C     0.54605   0.94201   0.66060   0.00000  Uiso   1.00
C143   C     0.45987   0.94307   0.51929   0.00000  Uiso   1.00
C144   C     0.85328   0.92688   0.01955   0.00000  Uiso   1.00
C145   C     0.89581   0.85858   0.07613   0.00000  Uiso   1.00
C146   C     0.01369   0.83772   0.16599   0.00000  Uiso   1.00
C147   C     0.19816   0.77845   0.31722   0.00000  Uiso   1.00
C148   C     0.74151   0.04689   0.94684   0.00000  Uiso   1.00
C149   C     0.69010   0.07948   0.94231   0.00000  Uiso   1.00
C150   C     0.71390   0.15966   0.97097   0.00000  Uiso   1.00
C151   C     0.72484   0.28672   0.00929   0.00000  Uiso   1.00
C152   C     0.86109   0.04498   0.97804   0.00000  Uiso   1.00
C153   C     0.75159   0.01162   0.86321   0.00000  Uiso   1.00
C154   C     0.72287   0.02354   0.79461   0.00000  Uiso   1.00
C155   C     0.61881   0.98794   0.69270   0.00000  Uiso   1.00
C156   C     0.92591   0.97273   0.05160   0.00000  Uiso   1.00
C157   C     0.04376   0.95197   0.14140   0.00000  Uiso   1.00
C158   C     0.08645   0.88365   0.19810   0.00000  Uiso   1.00
C159   C     0.81414   0.09274   0.97888   0.00000  Uiso   1.00
C160   C     0.83804   0.17288   0.00757   0.00000  Uiso   1.00
C161   C     0.78667   0.20559   0.00308   0.00000  Uiso   1.00
H162   H     0.67082   0.92487   0.89410   0.00000  Uiso   1.00
H163   H     0.51874   0.89466   0.70457   0.00000  Uiso   1.00
H164   H     0.83958   0.82311   0.05132   0.00000  Uiso   1.00
H165   H     0.63389   0.04399   0.91751   0.00000  Uiso   1.00
H166   H     0.38219   0.88136   0.50859   0.00000  Uiso   1.00
H167   H     0.05870   0.73051   0.23975   0.00000  Uiso   1.00
H168   H     0.62498   0.19627   0.95759   0.00000  Uiso   1.00
H169   H     0.91764   0.08068   0.00299   0.00000  Uiso   1.00
H170   H     0.77910   0.05902   0.81943   0.00000  Uiso   1.00
H171   H     0.09994   0.98747   0.16618   0.00000  Uiso   1.00
H172   H     0.89425   0.20834   0.03237   0.00000  Uiso   1.00
H173   H     0.59351   0.01476   0.60182   0.00000  Uiso   1.00
H174   H     0.27003   0.86391   0.33298   0.00000  Uiso   1.00
H175   H     0.83630   0.32967   0.05081   0.00000  Uiso   1.00
O176   O     0.39228   0.93098   0.43250   0.00000  Uiso   1.00
O177   O     0.27984   0.73308   0.39177   0.00000  Uiso   1.00
O178   O     0.71080   0.34414   0.02156   0.00000  Uiso   1.00
N179   N     0.45092   0.91575   0.55572   0.00000  Uiso   1.00
N180   N     0.08342   0.77470   0.23930   0.00000  Uiso   1.00
N181   N     0.67795   0.21014   0.97552   0.00000  Uiso   1.00
N182   N     0.56463   0.98753   0.60588   0.00000  Uiso   1.00
N183   N     0.19713   0.84648   0.28946   0.00000  Uiso   1.00
N184   N     0.79165   0.28192   0.02568   0.00000  Uiso   1.00
C185   C     0.61009   0.69058   0.42069   0.00000  Uiso   1.00
C186   C     0.48361   0.69540   0.33414   0.00000  Uiso   1.00
C187   C     0.38370   0.65927   0.23257   0.00000  Uiso   1.00
C188   C     0.27601   0.67084   0.16511   0.00000  Uiso   1.00
C189   C     0.08075   0.67128   0.02571   0.00000  Uiso   1.00
C190   C     0.68690   0.65744   0.52238   0.00000  Uiso   1.00
C191   C     0.75793   0.58939   0.57909   0.00000  Uiso   1.00
C192   C     0.82139   0.56902   0.67010   0.00000  Uiso   1.00
C193   C     0.94180   0.51056   0.82300   0.00000  Uiso   1.00
C194   C     0.65047   0.77702   0.44723   0.00000  Uiso   1.00
C195   C     0.69089   0.80952   0.44078   0.00000  Uiso   1.00
C196   C     0.72370   0.88983   0.46854   0.00000  Uiso   1.00
C197   C     0.78755   0.01704   0.50474   0.00000  Uiso   1.00
C198   C     0.59652   0.77540   0.48148   0.00000  Uiso   1.00
C199   C     0.47624   0.74147   0.36716   0.00000  Uiso   1.00
C200   C     0.36868   0.75310   0.29983   0.00000  Uiso   1.00
C201   C     0.26862   0.71700   0.19819   0.00000  Uiso   1.00
C202   C     0.67953   0.70350   0.55540   0.00000  Uiso   1.00
C203   C     0.74291   0.68323   0.64635   0.00000  Uiso   1.00
C204   C     0.81400   0.61517   0.70318   0.00000  Uiso   1.00
C205   C     0.64309   0.82309   0.48024   0.00000  Uiso   1.00
C206   C     0.67586   0.90336   0.50803   0.00000  Uiso   1.00
C207   C     0.71632   0.93598   0.50162   0.00000  Uiso   1.00
H208   H     0.61584   0.65471   0.39499   0.00000  Uiso   1.00
H209   H     0.38945   0.62361   0.20706   0.00000  Uiso   1.00
H210   H     0.76362   0.55376   0.55353   0.00000  Uiso   1.00
H211   H     0.69659   0.77386   0.41522   0.00000  Uiso   1.00
H212   H     0.13520   0.60943   0.01327   0.00000  Uiso   1.00
H213   H     0.92421   0.46215   0.74384   0.00000  Uiso   1.00
H214   H     0.78285   0.92627   0.45221   0.00000  Uiso   1.00
H215   H     0.59078   0.81126   0.50720   0.00000  Uiso   1.00
H216   H     0.36300   0.78876   0.32541   0.00000  Uiso   1.00
H217   H     0.73718   0.71890   0.67188   0.00000  Uiso   1.00
H218   H     0.67014   0.93899   0.53358   0.00000  Uiso   1.00
H219   H     0.11373   0.74346   0.10933   0.00000  Uiso   1.00
H220   H     0.90275   0.59618   0.83991   0.00000  Uiso   1.00
H221   H     0.76139   0.06030   0.54827   0.00000  Uiso   1.00
O222   O     0.97508   0.65879   0.93971   0.00000  Uiso   1.00
O223   O     0.01025   0.46558   0.89820   0.00000  Uiso   1.00
O224   O     0.82479   0.07449   0.51558   0.00000  Uiso   1.00
N225   N     0.16140   0.64407   0.06082   0.00000  Uiso   1.00
N226   N     0.89906   0.50637   0.74385   0.00000  Uiso   1.00
N227   N     0.76694   0.94027   0.47123   0.00000  Uiso   1.00
N228   N     0.14985   0.71620   0.11251   0.00000  Uiso   1.00
N229   N     0.88751   0.57849   0.79554   0.00000  Uiso   1.00
N230   N     0.75539   0.01240   0.52292   0.00000  Uiso   1.00
C231   C     0.72736   0.53943   0.41904   0.00000  Uiso   1.00
C232   C     0.67896   0.53423   0.33116   0.00000  Uiso   1.00
C233   C     0.57492   0.56986   0.22934   0.00000  Uiso   1.00
C234   C     0.54605   0.55799   0.16060   0.00000  Uiso   1.00
C235   C     0.45987   0.55693   0.01929   0.00000  Uiso   1.00
C236   C     0.85328   0.57312   0.51955   0.00000  Uiso   1.00
C237   C     0.89581   0.64142   0.57613   0.00000  Uiso   1.00
C238   C     0.01369   0.66228   0.66599   0.00000  Uiso   1.00
C239   C     0.19816   0.72155   0.81722   0.00000  Uiso   1.00
C240   C     0.74151   0.45311   0.44684   0.00000  Uiso   1.00
C241   C     0.69010   0.42052   0.44231   0.00000  Uiso   1.00
C242   C     0.71390   0.34034   0.47097   0.00000  Uiso   1.00
C243   C     0.72484   0.21328   0.50929   0.00000  Uiso   1.00
C244   C     0.86109   0.45502   0.47804   0.00000  Uiso   1.00
C245   C     0.75159   0.48838   0.36321   0.00000  Uiso   1.00
C246   C     0.72287   0.47646   0.29461   0.00000  Uiso   1.00
C247   C     0.61881   0.51206   0.19270   0.00000  Uiso   1.00
C248   C     0.92591   0.52727   0.55160   0.00000  Uiso   1.00
C249   C     0.04376   0.54803   0.64140   0.00000  Uiso   1.00
C250   C     0.08645   0.61635   0.69810   0.00000  Uiso   1.00
C251   C     0.81414   0.40726   0.47888   0.00000  Uiso   1.00
C252   C     0.83804   0.32712   0.50757   0.00000  Uiso   1.00
C253   C     0.78667   0.29441   0.50308   0.00000  Uiso   1.00
H254   H     0.67082   0.57513   0.39410   0.00000  Uiso   1.00
H255   H     0.51874   0.60534   0.20457   0.00000  Uiso   1.00
H256   H     0.83958   0.67689   0.55132   0.00000  Uiso   1.00
H257   H     0.63389   0.45601   0.41751   0.00000  Uiso   1.00
H258   H     0.38219   0.61864   0.00859   0.00000  Uiso   1.00
H259   H     0.05870   0.76949   0.73975   0.00000  Uiso   1.00
H260   H     0.62498   0.30373   0.45759   0.00000  Uiso   1.00
H261   H     0.91764   0.41932   0.50299   0.00000  Uiso   1.00
H262   H     0.77910   0.44098   0.31943   0.00000  Uiso   1.00
H263   H     0.09994   0.51253   0.66618   0.00000  Uiso   1.00
H264   H     0.89425   0.29166   0.53237   0.00000  Uiso   1.00
H265   H     0.59351   0.48524   0.10182   0.00000  Uiso   1.00
H266   H     0.27003   0.63609   0.83298   0.00000  Uiso   1.00
H267   H     0.83630   0.17033   0.55081   0.00000  Uiso   1.00
O268   O     0.39228   0.56902   0.93250   0.00000  Uiso   1.00
O269   O     0.27984   0.76692   0.89177   0.00000  Uiso   1.00
O270   O     0.71080   0.15586   0.52156   0.00000  Uiso   1.00
N271   N     0.45092   0.58425   0.05572   0.00000  Uiso   1.00
N272   N     0.08342   0.72530   0.73930   0.00000  Uiso   1.00
N273   N     0.67795   0.28986   0.47552   0.00000  Uiso   1.00
N274   N     0.56463   0.51247   0.10588   0.00000  Uiso   1.00
N275   N     0.19713   0.65352   0.78946   0.00000  Uiso   1.00
N276   N     0.79165   0.21808   0.52568   0.00000  Uiso   1.00
C277   C     0.38991   0.19058   0.07931   0.00000  Uiso   1.00
C278   C     0.51639   0.19540   0.16586   0.00000  Uiso   1.00
C279   C     0.61630   0.15927   0.26743   0.00000  Uiso   1.00
C280   C     0.72399   0.17084   0.33489   0.00000  Uiso   1.00
C281   C     0.91925   0.17128   0.47429   0.00000  Uiso   1.00
C282   C     0.31310   0.15744   0.97762   0.00000  Uiso   1.00
C283   C     0.24207   0.08939   0.92091   0.00000  Uiso   1.00
C284   C     0.17861   0.06902   0.82990   0.00000  Uiso   1.00
C285   C     0.05820   0.01056   0.67700   0.00000  Uiso   1.00
C286   C     0.34953   0.27702   0.05277   0.00000  Uiso   1.00
C287   C     0.30911   0.30952   0.05922   0.00000  Uiso   1.00
C288   C     0.27630   0.38983   0.03146   0.00000  Uiso   1.00
C289   C     0.21245   0.51704   0.99526   0.00000  Uiso   1.00
C290   C     0.40348   0.27540   0.01852   0.00000  Uiso   1.00
C291   C     0.52376   0.24147   0.13284   0.00000  Uiso   1.00
C292   C     0.63132   0.25310   0.20017   0.00000  Uiso   1.00
C293   C     0.73138   0.21700   0.30181   0.00000  Uiso   1.00
C294   C     0.32047   0.20350   0.94460   0.00000  Uiso   1.00
C295   C     0.25709   0.18323   0.85365   0.00000  Uiso   1.00
C296   C     0.18600   0.11517   0.79682   0.00000  Uiso   1.00
C297   C     0.35691   0.32309   0.01976   0.00000  Uiso   1.00
C298   C     0.32414   0.40336   0.99197   0.00000  Uiso   1.00
C299   C     0.28368   0.43598   0.99838   0.00000  Uiso   1.00
H300   H     0.38416   0.15471   0.10501   0.00000  Uiso   1.00
H301   H     0.61055   0.12361   0.29294   0.00000  Uiso   1.00
H302   H     0.23638   0.05376   0.94647   0.00000  Uiso   1.00
H303   H     0.30341   0.27386   0.08478   0.00000  Uiso   1.00
H304   H     0.86480   0.10943   0.48673   0.00000  Uiso   1.00
H305   H     0.07579   0.96215   0.75616   0.00000  Uiso   1.00
H306   H     0.21715   0.42627   0.04779   0.00000  Uiso   1.00
H307   H     0.40922   0.31126   0.99280   0.00000  Uiso   1.00
H308   H     0.63700   0.28876   0.17459   0.00000  Uiso   1.00
H309   H     0.26282   0.21890   0.82812   0.00000  Uiso   1.00
H310   H     0.32986   0.43899   0.96642   0.00000  Uiso   1.00
H311   H     0.88627   0.24346   0.39067   0.00000  Uiso   1.00
H312   H     0.09725   0.09618   0.66009   0.00000  Uiso   1.00
H313   H     0.23861   0.56030   0.95173   0.00000  Uiso   1.00
O314   O     0.02492   0.15879   0.56029   0.00000  Uiso   1.00
O315   O     0.98975   0.96558   0.60180   0.00000  Uiso   1.00
O316   O     0.17521   0.57449   0.98442   0.00000  Uiso   1.00
N317   N     0.83860   0.14407   0.43918   0.00000  Uiso   1.00
N318   N     0.10094   0.00637   0.75615   0.00000  Uiso   1.00
N319   N     0.23306   0.44027   0.02877   0.00000  Uiso   1.00
N320   N     0.85015   0.21620   0.38749   0.00000  Uiso   1.00
N321   N     0.11249   0.07849   0.70446   0.00000  Uiso   1.00
N322   N     0.24461   0.51240   0.97708   0.00000  Uiso   1.00
C323   C     0.27264   0.03943   0.08096   0.00000  Uiso   1.00
C324   C     0.32104   0.03423   0.16884   0.00000  Uiso   1.00
C325   C     0.42508   0.06986   0.27066   0.00000  Uiso   1.00
C326   C     0.45395   0.05799   0.33940   0.00000  Uiso   1.00
C327   C     0.54013   0.05693   0.48071   0.00000  Uiso   1.00
C328   C     0.14672   0.07312   0.98045   0.00000  Uiso   1.00
C329   C     0.10419   0.14142   0.92387   0.00000  Uiso   1.00
C330   C     0.98631   0.16228   0.83401   0.00000  Uiso   1.00
C331   C     0.80184   0.22155   0.68278   0.00000  Uiso   1.00
C332   C     0.25849   0.95311   0.05316   0.00000  Uiso   1.00
C333   C     0.30990   0.92052   0.05769   0.00000  Uiso   1.00
C334   C     0.28610   0.84034   0.02903   0.00000  Uiso   1.00
C335   C     0.27516   0.71328   0.99071   0.00000  Uiso   1.00
C336   C     0.13891   0.95502   0.02196   0.00000  Uiso   1.00
C337   C     0.24841   0.98838   0.13679   0.00000  Uiso   1.00
C338   C     0.27713   0.97646   0.20539   0.00000  Uiso   1.00
C339   C     0.38119   0.01206   0.30730   0.00000  Uiso   1.00
C340   C     0.07409   0.02727   0.94840   0.00000  Uiso   1.00
C341   C     0.95624   0.04803   0.85860   0.00000  Uiso   1.00
C342   C     0.91355   0.11635   0.80190   0.00000  Uiso   1.00
C343   C     0.18586   0.90726   0.02112   0.00000  Uiso   1.00
C344   C     0.16196   0.82712   0.99243   0.00000  Uiso   1.00
C345   C     0.21333   0.79441   0.99692   0.00000  Uiso   1.00
H346   H     0.32918   0.07513   0.10590   0.00000  Uiso   1.00
H347   H     0.48126   0.10534   0.29543   0.00000  Uiso   1.00
H348   H     0.16042   0.17689   0.94868   0.00000  Uiso   1.00
H349   H     0.36611   0.95601   0.08249   0.00000  Uiso   1.00
H350   H     0.61781   0.11864   0.49141   0.00000  Uiso   1.00
H351   H     0.94130   0.26949   0.76025   0.00000  Uiso   1.00
H352   H     0.37502   0.80373   0.04241   0.00000  Uiso   1.00
H353   H     0.08236   0.91932   0.99701   0.00000  Uiso   1.00
H354   H     0.22090   0.94098   0.18057   0.00000  Uiso   1.00
H355   H     0.90006   0.01253   0.83382   0.00000  Uiso   1.00
H356   H     0.10575   0.79166   0.96763   0.00000  Uiso   1.00
H357   H     0.40649   0.98524   0.39818   0.00000  Uiso   1.00
H358   H     0.72997   0.13609   0.66702   0.00000  Uiso   1.00
H359   H     0.16370   0.67033   0.94919   0.00000  Uiso   1.00
O360   O     0.60772   0.06902   0.56750   0.00000  Uiso   1.00
O361   O     0.72016   0.26692   0.60823   0.00000  Uiso   1.00
O362   O     0.28920   0.65586   0.97844   0.00000  Uiso   1.00
N363   N     0.54908   0.08425   0.44428   0.00000  Uiso   1.00
N364   N     0.91658   0.22530   0.76070   0.00000  Uiso   1.00
N365   N     0.32205   0.78986   0.02448   0.00000  Uiso   1.00
N366   N     0.43537   0.01247   0.39412   0.00000  Uiso   1.00
N367   N     0.80287   0.15352   0.71054   0.00000  Uiso   1.00
N368   N     0.20835   0.71808   0.97432   0.00000  Uiso   1.00
