data_job_04050
_audit_creation_date              2018-12-19
_audit_creation_method            'Materials Studio'
_symmetry_space_group_name_H-M    'P1'
_symmetry_Int_Tables_number       1
_symmetry_cell_setting            triclinic
loop_
_symmetry_equiv_pos_as_xyz
  x,y,z
_cell_length_a                    18.1810
_cell_length_b                    16.9725
_cell_length_c                    16.7712
_cell_angle_alpha                 90.0000
_cell_angle_beta                  90.0000
_cell_angle_gamma                 90.0000
loop_
_atom_site_label
_atom_site_type_symbol
_atom_site_fract_x
_atom_site_fract_y
_atom_site_fract_z
_atom_site_U_iso_or_equiv
_atom_site_adp_type
_atom_site_occupancy
C1     C     0.27591   0.56360   0.85642   0.00000  Uiso   1.00
C2     C     0.24177   0.64482   0.84452   0.00000  Uiso   1.00
C3     C     0.21543   0.67471   0.77299   0.00000  Uiso   1.00
C4     C     0.18627   0.75029   0.77450   0.00000  Uiso   1.00
C5     C     0.13371   0.86973   0.74528   0.00000  Uiso   1.00
C6     C     0.35183   0.57789   0.89226   0.00000  Uiso   1.00
C7     C     0.41802   0.55149   0.86087   0.00000  Uiso   1.00
C8     C     0.48150   0.57072   0.90259   0.00000  Uiso   1.00
C9     C     0.59980   0.58619   0.94752   0.00000  Uiso   1.00
C10    C     0.23073   0.52366   0.92149   0.00000  Uiso   1.00
C11    C     0.19511   0.45165   0.91469   0.00000  Uiso   1.00
C12    C     0.15664   0.42521   0.98102   0.00000  Uiso   1.00
C13    C     0.08691   0.35648   0.07133   0.00000  Uiso   1.00
C14    C     0.27094   0.64468   0.98631   0.00000  Uiso   1.00
C15    C     0.23908   0.68886   0.91507   0.00000  Uiso   1.00
C16    C     0.20994   0.76442   0.91669   0.00000  Uiso   1.00
C17    C     0.18356   0.79441   0.84517   0.00000  Uiso   1.00
C18    C     0.34913   0.62193   0.96281   0.00000  Uiso   1.00
C19    C     0.41253   0.64120   0.00458   0.00000  Uiso   1.00
C20    C     0.47880   0.61484   0.97326   0.00000  Uiso   1.00
C21    C     0.22803   0.56770   0.99204   0.00000  Uiso   1.00
C22    C     0.18961   0.54137   0.05839   0.00000  Uiso   1.00
C23    C     0.15394   0.46933   0.05169   0.00000  Uiso   1.00
H24    H     0.27801   0.52931   0.80150   0.00000  Uiso   1.00
H25    H     0.21754   0.64061   0.71840   0.00000  Uiso   1.00
H26    H     0.42009   0.51740   0.80628   0.00000  Uiso   1.00
H27    H     0.19721   0.41758   0.86009   0.00000  Uiso   1.00
H28    H     0.14932   0.78344   0.65738   0.00000  Uiso   1.00
H29    H     0.57641   0.52362   0.84270   0.00000  Uiso   1.00
H30    H     0.10643   0.31313   0.95615   0.00000  Uiso   1.00
H31    H     0.26884   0.67897   0.04124   0.00000  Uiso   1.00
H32    H     0.20786   0.79849   0.97130   0.00000  Uiso   1.00
H33    H     0.41042   0.67528   0.05918   0.00000  Uiso   1.00
H34    H     0.18754   0.57546   0.11298   0.00000  Uiso   1.00
H35    H     0.14147   0.91158   0.86264   0.00000  Uiso   1.00
H36    H     0.56857   0.65176   0.04796   0.00000  Uiso   1.00
H37    H     0.09858   0.44128   0.16141   0.00000  Uiso   1.00
O38    O     0.10547   0.92344   0.70967   0.00000  Uiso   1.00
O39    O     0.66580   0.58256   0.95280   0.00000  Uiso   1.00
O40    O     0.04919   0.30641   0.10165   0.00000  Uiso   1.00
N41    N     0.15583   0.79719   0.71529   0.00000  Uiso   1.00
N42    N     0.55514   0.55429   0.88854   0.00000  Uiso   1.00
N43    N     0.11576   0.35749   0.99462   0.00000  Uiso   1.00
N44    N     0.15161   0.86614   0.82574   0.00000  Uiso   1.00
N45    N     0.55091   0.62324   0.99899   0.00000  Uiso   1.00
N46    N     0.11154   0.42644   0.10507   0.00000  Uiso   1.00
C47    C     0.22409   0.93640   0.35642   0.00000  Uiso   1.00
C48    C     0.25823   0.85518   0.34452   0.00000  Uiso   1.00
C49    C     0.28457   0.82529   0.27299   0.00000  Uiso   1.00
C50    C     0.31373   0.74971   0.27450   0.00000  Uiso   1.00
C51    C     0.36629   0.63027   0.24528   0.00000  Uiso   1.00
C52    C     0.14817   0.92211   0.39226   0.00000  Uiso   1.00
C53    C     0.08198   0.94851   0.36087   0.00000  Uiso   1.00
C54    C     0.01850   0.92928   0.40259   0.00000  Uiso   1.00
C55    C     0.90020   0.91381   0.44752   0.00000  Uiso   1.00
C56    C     0.26927   0.97634   0.42149   0.00000  Uiso   1.00
C57    C     0.30489   0.04835   0.41469   0.00000  Uiso   1.00
C58    C     0.34336   0.07479   0.48102   0.00000  Uiso   1.00
C59    C     0.41309   0.14352   0.57133   0.00000  Uiso   1.00
C60    C     0.22906   0.85532   0.48631   0.00000  Uiso   1.00
C61    C     0.26092   0.81114   0.41507   0.00000  Uiso   1.00
C62    C     0.29006   0.73558   0.41669   0.00000  Uiso   1.00
C63    C     0.31644   0.70559   0.34517   0.00000  Uiso   1.00
C64    C     0.15087   0.87807   0.46281   0.00000  Uiso   1.00
C65    C     0.08747   0.85880   0.50458   0.00000  Uiso   1.00
C66    C     0.02120   0.88516   0.47326   0.00000  Uiso   1.00
C67    C     0.27197   0.93230   0.49204   0.00000  Uiso   1.00
C68    C     0.31039   0.95863   0.55839   0.00000  Uiso   1.00
C69    C     0.34606   0.03067   0.55169   0.00000  Uiso   1.00
H70    H     0.22199   0.97069   0.30150   0.00000  Uiso   1.00
H71    H     0.28246   0.85939   0.21840   0.00000  Uiso   1.00
H72    H     0.07991   0.98260   0.30628   0.00000  Uiso   1.00
H73    H     0.30279   0.08242   0.36009   0.00000  Uiso   1.00
H74    H     0.35068   0.71656   0.15738   0.00000  Uiso   1.00
H75    H     0.92359   0.97638   0.34270   0.00000  Uiso   1.00
H76    H     0.39357   0.18687   0.45615   0.00000  Uiso   1.00
H77    H     0.23116   0.82103   0.54124   0.00000  Uiso   1.00
H78    H     0.29214   0.70151   0.47130   0.00000  Uiso   1.00
H79    H     0.08958   0.82472   0.55918   0.00000  Uiso   1.00
H80    H     0.31246   0.92454   0.61298   0.00000  Uiso   1.00
H81    H     0.35853   0.58842   0.36264   0.00000  Uiso   1.00
H82    H     0.93143   0.84824   0.54796   0.00000  Uiso   1.00
H83    H     0.40142   0.05872   0.66141   0.00000  Uiso   1.00
O84    O     0.39453   0.57656   0.20967   0.00000  Uiso   1.00
O85    O     0.83420   0.91744   0.45280   0.00000  Uiso   1.00
O86    O     0.45081   0.19359   0.60165   0.00000  Uiso   1.00
N87    N     0.34417   0.70281   0.21529   0.00000  Uiso   1.00
N88    N     0.94486   0.94571   0.38854   0.00000  Uiso   1.00
N89    N     0.38424   0.14251   0.49462   0.00000  Uiso   1.00
N90    N     0.34839   0.63386   0.32574   0.00000  Uiso   1.00
N91    N     0.94909   0.87676   0.49899   0.00000  Uiso   1.00
N92    N     0.38846   0.07356   0.60507   0.00000  Uiso   1.00
C93    C     0.72409   0.56360   0.64358   0.00000  Uiso   1.00
C94    C     0.75823   0.64482   0.65548   0.00000  Uiso   1.00
C95    C     0.78457   0.67471   0.72701   0.00000  Uiso   1.00
C96    C     0.81373   0.75029   0.72550   0.00000  Uiso   1.00
C97    C     0.86629   0.86973   0.75472   0.00000  Uiso   1.00
C98    C     0.64817   0.57789   0.60774   0.00000  Uiso   1.00
C99    C     0.58198   0.55149   0.63913   0.00000  Uiso   1.00
C100   C     0.51850   0.57072   0.59741   0.00000  Uiso   1.00
C101   C     0.40020   0.58619   0.55248   0.00000  Uiso   1.00
C102   C     0.76927   0.52366   0.57851   0.00000  Uiso   1.00
C103   C     0.80489   0.45165   0.58531   0.00000  Uiso   1.00
C104   C     0.84336   0.42521   0.51898   0.00000  Uiso   1.00
C105   C     0.91309   0.35648   0.42867   0.00000  Uiso   1.00
C106   C     0.72906   0.64468   0.51369   0.00000  Uiso   1.00
C107   C     0.76092   0.68886   0.58493   0.00000  Uiso   1.00
C108   C     0.79006   0.76442   0.58331   0.00000  Uiso   1.00
C109   C     0.81644   0.79441   0.65483   0.00000  Uiso   1.00
C110   C     0.65087   0.62193   0.53719   0.00000  Uiso   1.00
C111   C     0.58747   0.64120   0.49542   0.00000  Uiso   1.00
C112   C     0.52120   0.61484   0.52674   0.00000  Uiso   1.00
C113   C     0.77197   0.56770   0.50796   0.00000  Uiso   1.00
C114   C     0.81039   0.54137   0.44161   0.00000  Uiso   1.00
C115   C     0.84606   0.46933   0.44831   0.00000  Uiso   1.00
H116   H     0.72199   0.52931   0.69850   0.00000  Uiso   1.00
H117   H     0.78246   0.64061   0.78160   0.00000  Uiso   1.00
H118   H     0.57991   0.51740   0.69372   0.00000  Uiso   1.00
H119   H     0.80279   0.41758   0.63991   0.00000  Uiso   1.00
H120   H     0.85068   0.78344   0.84262   0.00000  Uiso   1.00
H121   H     0.42359   0.52362   0.65730   0.00000  Uiso   1.00
H122   H     0.89357   0.31313   0.54385   0.00000  Uiso   1.00
H123   H     0.73116   0.67897   0.45876   0.00000  Uiso   1.00
H124   H     0.79214   0.79849   0.52870   0.00000  Uiso   1.00
H125   H     0.58958   0.67528   0.44082   0.00000  Uiso   1.00
H126   H     0.81246   0.57546   0.38702   0.00000  Uiso   1.00
H127   H     0.85853   0.91158   0.63736   0.00000  Uiso   1.00
H128   H     0.43143   0.65176   0.45204   0.00000  Uiso   1.00
H129   H     0.90142   0.44128   0.33859   0.00000  Uiso   1.00
O130   O     0.89453   0.92344   0.79033   0.00000  Uiso   1.00
O131   O     0.33420   0.58256   0.54720   0.00000  Uiso   1.00
O132   O     0.95081   0.30641   0.39835   0.00000  Uiso   1.00
N133   N     0.84417   0.79719   0.78471   0.00000  Uiso   1.00
N134   N     0.44486   0.55429   0.61146   0.00000  Uiso   1.00
N135   N     0.88424   0.35749   0.50538   0.00000  Uiso   1.00
N136   N     0.84839   0.86614   0.67426   0.00000  Uiso   1.00
N137   N     0.44909   0.62324   0.50101   0.00000  Uiso   1.00
N138   N     0.88846   0.42644   0.39493   0.00000  Uiso   1.00
C139   C     0.77591   0.93640   0.14358   0.00000  Uiso   1.00
C140   C     0.74177   0.85518   0.15548   0.00000  Uiso   1.00
C141   C     0.71543   0.82529   0.22701   0.00000  Uiso   1.00
C142   C     0.68627   0.74971   0.22550   0.00000  Uiso   1.00
C143   C     0.63371   0.63027   0.25472   0.00000  Uiso   1.00
C144   C     0.85183   0.92211   0.10774   0.00000  Uiso   1.00
C145   C     0.91802   0.94851   0.13913   0.00000  Uiso   1.00
C146   C     0.98150   0.92928   0.09741   0.00000  Uiso   1.00
C147   C     0.09980   0.91381   0.05248   0.00000  Uiso   1.00
C148   C     0.73073   0.97634   0.07851   0.00000  Uiso   1.00
C149   C     0.69511   0.04835   0.08531   0.00000  Uiso   1.00
C150   C     0.65664   0.07479   0.01898   0.00000  Uiso   1.00
C151   C     0.58691   0.14352   0.92867   0.00000  Uiso   1.00
C152   C     0.77094   0.85532   0.01369   0.00000  Uiso   1.00
C153   C     0.73908   0.81114   0.08493   0.00000  Uiso   1.00
C154   C     0.70994   0.73558   0.08331   0.00000  Uiso   1.00
C155   C     0.68356   0.70559   0.15483   0.00000  Uiso   1.00
C156   C     0.84913   0.87807   0.03719   0.00000  Uiso   1.00
C157   C     0.91253   0.85880   0.99542   0.00000  Uiso   1.00
C158   C     0.97880   0.88516   0.02674   0.00000  Uiso   1.00
C159   C     0.72803   0.93230   0.00796   0.00000  Uiso   1.00
C160   C     0.68961   0.95863   0.94161   0.00000  Uiso   1.00
C161   C     0.65394   0.03067   0.94831   0.00000  Uiso   1.00
H162   H     0.77801   0.97069   0.19850   0.00000  Uiso   1.00
H163   H     0.71754   0.85939   0.28160   0.00000  Uiso   1.00
H164   H     0.92009   0.98260   0.19372   0.00000  Uiso   1.00
H165   H     0.69721   0.08242   0.13991   0.00000  Uiso   1.00
H166   H     0.64932   0.71656   0.34262   0.00000  Uiso   1.00
H167   H     0.07641   0.97638   0.15730   0.00000  Uiso   1.00
H168   H     0.60643   0.18687   0.04385   0.00000  Uiso   1.00
H169   H     0.76884   0.82103   0.95876   0.00000  Uiso   1.00
H170   H     0.70786   0.70151   0.02870   0.00000  Uiso   1.00
H171   H     0.91042   0.82472   0.94082   0.00000  Uiso   1.00
H172   H     0.68754   0.92454   0.88702   0.00000  Uiso   1.00
H173   H     0.64147   0.58842   0.13736   0.00000  Uiso   1.00
H174   H     0.06857   0.84824   0.95204   0.00000  Uiso   1.00
H175   H     0.59858   0.05872   0.83859   0.00000  Uiso   1.00
O176   O     0.60547   0.57656   0.29033   0.00000  Uiso   1.00
O177   O     0.16580   0.91744   0.04720   0.00000  Uiso   1.00
O178   O     0.54919   0.19359   0.89835   0.00000  Uiso   1.00
N179   N     0.65583   0.70281   0.28471   0.00000  Uiso   1.00
N180   N     0.05514   0.94571   0.11146   0.00000  Uiso   1.00
N181   N     0.61576   0.14251   0.00538   0.00000  Uiso   1.00
N182   N     0.65161   0.63386   0.17426   0.00000  Uiso   1.00
N183   N     0.05091   0.87676   0.00101   0.00000  Uiso   1.00
N184   N     0.61154   0.07356   0.89493   0.00000  Uiso   1.00
C185   C     0.72409   0.43640   0.14358   0.00000  Uiso   1.00
C186   C     0.75823   0.35518   0.15548   0.00000  Uiso   1.00
C187   C     0.78457   0.32529   0.22701   0.00000  Uiso   1.00
C188   C     0.81373   0.24971   0.22550   0.00000  Uiso   1.00
C189   C     0.86629   0.13027   0.25472   0.00000  Uiso   1.00
C190   C     0.64817   0.42211   0.10774   0.00000  Uiso   1.00
C191   C     0.58198   0.44851   0.13913   0.00000  Uiso   1.00
C192   C     0.51850   0.42928   0.09741   0.00000  Uiso   1.00
C193   C     0.40020   0.41381   0.05248   0.00000  Uiso   1.00
C194   C     0.76927   0.47634   0.07851   0.00000  Uiso   1.00
C195   C     0.80489   0.54835   0.08531   0.00000  Uiso   1.00
C196   C     0.84336   0.57479   0.01898   0.00000  Uiso   1.00
C197   C     0.91309   0.64352   0.92867   0.00000  Uiso   1.00
C198   C     0.72906   0.35532   0.01369   0.00000  Uiso   1.00
C199   C     0.76092   0.31114   0.08493   0.00000  Uiso   1.00
C200   C     0.79006   0.23558   0.08331   0.00000  Uiso   1.00
C201   C     0.81644   0.20559   0.15483   0.00000  Uiso   1.00
C202   C     0.65087   0.37807   0.03719   0.00000  Uiso   1.00
C203   C     0.58747   0.35880   0.99542   0.00000  Uiso   1.00
C204   C     0.52120   0.38516   0.02674   0.00000  Uiso   1.00
C205   C     0.77197   0.43230   0.00796   0.00000  Uiso   1.00
C206   C     0.81039   0.45863   0.94161   0.00000  Uiso   1.00
C207   C     0.84606   0.53067   0.94831   0.00000  Uiso   1.00
H208   H     0.72199   0.47069   0.19850   0.00000  Uiso   1.00
H209   H     0.78246   0.35939   0.28160   0.00000  Uiso   1.00
H210   H     0.57991   0.48260   0.19372   0.00000  Uiso   1.00
H211   H     0.80279   0.58242   0.13991   0.00000  Uiso   1.00
H212   H     0.85068   0.21656   0.34262   0.00000  Uiso   1.00
H213   H     0.42359   0.47638   0.15730   0.00000  Uiso   1.00
H214   H     0.89357   0.68687   0.04385   0.00000  Uiso   1.00
H215   H     0.73116   0.32103   0.95876   0.00000  Uiso   1.00
H216   H     0.79214   0.20151   0.02870   0.00000  Uiso   1.00
H217   H     0.58958   0.32472   0.94082   0.00000  Uiso   1.00
H218   H     0.81246   0.42454   0.88702   0.00000  Uiso   1.00
H219   H     0.85853   0.08842   0.13736   0.00000  Uiso   1.00
H220   H     0.43143   0.34824   0.95204   0.00000  Uiso   1.00
H221   H     0.90142   0.55872   0.83859   0.00000  Uiso   1.00
O222   O     0.89453   0.07656   0.29033   0.00000  Uiso   1.00
O223   O     0.33420   0.41744   0.04720   0.00000  Uiso   1.00
O224   O     0.95081   0.69359   0.89835   0.00000  Uiso   1.00
N225   N     0.84417   0.20281   0.28471   0.00000  Uiso   1.00
N226   N     0.44486   0.44571   0.11146   0.00000  Uiso   1.00
N227   N     0.88424   0.64251   0.00538   0.00000  Uiso   1.00
N228   N     0.84839   0.13386   0.17426   0.00000  Uiso   1.00
N229   N     0.44909   0.37676   0.00101   0.00000  Uiso   1.00
N230   N     0.88846   0.57356   0.89493   0.00000  Uiso   1.00
C231   C     0.77591   0.06360   0.64358   0.00000  Uiso   1.00
C232   C     0.74177   0.14482   0.65548   0.00000  Uiso   1.00
C233   C     0.71543   0.17471   0.72701   0.00000  Uiso   1.00
C234   C     0.68627   0.25029   0.72550   0.00000  Uiso   1.00
C235   C     0.63371   0.36973   0.75472   0.00000  Uiso   1.00
C236   C     0.85183   0.07789   0.60774   0.00000  Uiso   1.00
C237   C     0.91802   0.05149   0.63913   0.00000  Uiso   1.00
C238   C     0.98150   0.07072   0.59741   0.00000  Uiso   1.00
C239   C     0.09980   0.08619   0.55248   0.00000  Uiso   1.00
C240   C     0.73073   0.02366   0.57851   0.00000  Uiso   1.00
C241   C     0.69511   0.95165   0.58531   0.00000  Uiso   1.00
C242   C     0.65664   0.92521   0.51898   0.00000  Uiso   1.00
C243   C     0.58691   0.85648   0.42867   0.00000  Uiso   1.00
C244   C     0.77094   0.14468   0.51369   0.00000  Uiso   1.00
C245   C     0.73908   0.18886   0.58493   0.00000  Uiso   1.00
C246   C     0.70994   0.26442   0.58331   0.00000  Uiso   1.00
C247   C     0.68356   0.29441   0.65483   0.00000  Uiso   1.00
C248   C     0.84913   0.12193   0.53719   0.00000  Uiso   1.00
C249   C     0.91253   0.14120   0.49542   0.00000  Uiso   1.00
C250   C     0.97880   0.11484   0.52674   0.00000  Uiso   1.00
C251   C     0.72803   0.06770   0.50796   0.00000  Uiso   1.00
C252   C     0.68961   0.04137   0.44161   0.00000  Uiso   1.00
C253   C     0.65394   0.96933   0.44831   0.00000  Uiso   1.00
H254   H     0.77801   0.02931   0.69850   0.00000  Uiso   1.00
H255   H     0.71754   0.14061   0.78160   0.00000  Uiso   1.00
H256   H     0.92009   0.01740   0.69372   0.00000  Uiso   1.00
H257   H     0.69721   0.91758   0.63991   0.00000  Uiso   1.00
H258   H     0.64932   0.28344   0.84262   0.00000  Uiso   1.00
H259   H     0.07641   0.02362   0.65730   0.00000  Uiso   1.00
H260   H     0.60643   0.81313   0.54385   0.00000  Uiso   1.00
H261   H     0.76884   0.17897   0.45876   0.00000  Uiso   1.00
H262   H     0.70786   0.29849   0.52870   0.00000  Uiso   1.00
H263   H     0.91042   0.17528   0.44082   0.00000  Uiso   1.00
H264   H     0.68754   0.07546   0.38702   0.00000  Uiso   1.00
H265   H     0.64147   0.41158   0.63736   0.00000  Uiso   1.00
H266   H     0.06857   0.15176   0.45204   0.00000  Uiso   1.00
H267   H     0.59858   0.94128   0.33859   0.00000  Uiso   1.00
O268   O     0.60547   0.42344   0.79033   0.00000  Uiso   1.00
O269   O     0.16580   0.08256   0.54720   0.00000  Uiso   1.00
O270   O     0.54919   0.80641   0.39835   0.00000  Uiso   1.00
N271   N     0.65583   0.29719   0.78471   0.00000  Uiso   1.00
N272   N     0.05514   0.05429   0.61146   0.00000  Uiso   1.00
N273   N     0.61576   0.85749   0.50538   0.00000  Uiso   1.00
N274   N     0.65161   0.36614   0.67426   0.00000  Uiso   1.00
N275   N     0.05091   0.12324   0.50101   0.00000  Uiso   1.00
N276   N     0.61154   0.92644   0.39493   0.00000  Uiso   1.00
C277   C     0.27591   0.43640   0.35642   0.00000  Uiso   1.00
C278   C     0.24177   0.35518   0.34452   0.00000  Uiso   1.00
C279   C     0.21543   0.32529   0.27299   0.00000  Uiso   1.00
C280   C     0.18627   0.24971   0.27450   0.00000  Uiso   1.00
C281   C     0.13371   0.13027   0.24528   0.00000  Uiso   1.00
C282   C     0.35183   0.42211   0.39226   0.00000  Uiso   1.00
C283   C     0.41802   0.44851   0.36087   0.00000  Uiso   1.00
C284   C     0.48150   0.42928   0.40259   0.00000  Uiso   1.00
C285   C     0.59980   0.41381   0.44752   0.00000  Uiso   1.00
C286   C     0.23073   0.47634   0.42149   0.00000  Uiso   1.00
C287   C     0.19511   0.54835   0.41469   0.00000  Uiso   1.00
C288   C     0.15664   0.57479   0.48102   0.00000  Uiso   1.00
C289   C     0.08691   0.64352   0.57133   0.00000  Uiso   1.00
C290   C     0.27094   0.35532   0.48631   0.00000  Uiso   1.00
C291   C     0.23908   0.31114   0.41507   0.00000  Uiso   1.00
C292   C     0.20994   0.23558   0.41669   0.00000  Uiso   1.00
C293   C     0.18356   0.20559   0.34517   0.00000  Uiso   1.00
C294   C     0.34913   0.37807   0.46281   0.00000  Uiso   1.00
C295   C     0.41253   0.35880   0.50458   0.00000  Uiso   1.00
C296   C     0.47880   0.38516   0.47326   0.00000  Uiso   1.00
C297   C     0.22803   0.43230   0.49204   0.00000  Uiso   1.00
C298   C     0.18961   0.45863   0.55839   0.00000  Uiso   1.00
C299   C     0.15394   0.53067   0.55169   0.00000  Uiso   1.00
H300   H     0.27801   0.47069   0.30150   0.00000  Uiso   1.00
H301   H     0.21754   0.35939   0.21840   0.00000  Uiso   1.00
H302   H     0.42009   0.48260   0.30628   0.00000  Uiso   1.00
H303   H     0.19721   0.58242   0.36009   0.00000  Uiso   1.00
H304   H     0.14932   0.21656   0.15738   0.00000  Uiso   1.00
H305   H     0.57641   0.47638   0.34270   0.00000  Uiso   1.00
H306   H     0.10643   0.68687   0.45615   0.00000  Uiso   1.00
H307   H     0.26884   0.32103   0.54124   0.00000  Uiso   1.00
H308   H     0.20786   0.20151   0.47130   0.00000  Uiso   1.00
H309   H     0.41042   0.32472   0.55918   0.00000  Uiso   1.00
H310   H     0.18754   0.42454   0.61298   0.00000  Uiso   1.00
H311   H     0.14147   0.08842   0.36264   0.00000  Uiso   1.00
H312   H     0.56857   0.34824   0.54796   0.00000  Uiso   1.00
H313   H     0.09858   0.55872   0.66141   0.00000  Uiso   1.00
O314   O     0.10547   0.07656   0.20967   0.00000  Uiso   1.00
O315   O     0.66580   0.41744   0.45280   0.00000  Uiso   1.00
O316   O     0.04919   0.69359   0.60165   0.00000  Uiso   1.00
N317   N     0.15583   0.20281   0.21529   0.00000  Uiso   1.00
N318   N     0.55514   0.44571   0.38854   0.00000  Uiso   1.00
N319   N     0.11576   0.64251   0.49462   0.00000  Uiso   1.00
N320   N     0.15161   0.13386   0.32574   0.00000  Uiso   1.00
N321   N     0.55091   0.37676   0.49899   0.00000  Uiso   1.00
N322   N     0.11154   0.57356   0.60507   0.00000  Uiso   1.00
C323   C     0.22409   0.06360   0.85642   0.00000  Uiso   1.00
C324   C     0.25823   0.14482   0.84452   0.00000  Uiso   1.00
C325   C     0.28457   0.17471   0.77299   0.00000  Uiso   1.00
C326   C     0.31373   0.25029   0.77450   0.00000  Uiso   1.00
C327   C     0.36629   0.36973   0.74528   0.00000  Uiso   1.00
C328   C     0.14817   0.07789   0.89226   0.00000  Uiso   1.00
C329   C     0.08198   0.05149   0.86087   0.00000  Uiso   1.00
C330   C     0.01850   0.07072   0.90259   0.00000  Uiso   1.00
C331   C     0.90020   0.08619   0.94752   0.00000  Uiso   1.00
C332   C     0.26927   0.02366   0.92149   0.00000  Uiso   1.00
C333   C     0.30489   0.95165   0.91469   0.00000  Uiso   1.00
C334   C     0.34336   0.92521   0.98102   0.00000  Uiso   1.00
C335   C     0.41309   0.85648   0.07133   0.00000  Uiso   1.00
C336   C     0.22906   0.14468   0.98631   0.00000  Uiso   1.00
C337   C     0.26092   0.18886   0.91507   0.00000  Uiso   1.00
C338   C     0.29006   0.26442   0.91669   0.00000  Uiso   1.00
C339   C     0.31644   0.29441   0.84517   0.00000  Uiso   1.00
C340   C     0.15087   0.12193   0.96281   0.00000  Uiso   1.00
C341   C     0.08747   0.14120   0.00458   0.00000  Uiso   1.00
C342   C     0.02120   0.11484   0.97326   0.00000  Uiso   1.00
C343   C     0.27197   0.06770   0.99204   0.00000  Uiso   1.00
C344   C     0.31039   0.04137   0.05839   0.00000  Uiso   1.00
C345   C     0.34606   0.96933   0.05169   0.00000  Uiso   1.00
H346   H     0.22199   0.02931   0.80150   0.00000  Uiso   1.00
H347   H     0.28246   0.14061   0.71840   0.00000  Uiso   1.00
H348   H     0.07991   0.01740   0.80628   0.00000  Uiso   1.00
H349   H     0.30279   0.91758   0.86009   0.00000  Uiso   1.00
H350   H     0.35068   0.28344   0.65738   0.00000  Uiso   1.00
H351   H     0.92359   0.02362   0.84270   0.00000  Uiso   1.00
H352   H     0.39357   0.81313   0.95615   0.00000  Uiso   1.00
H353   H     0.23116   0.17897   0.04124   0.00000  Uiso   1.00
H354   H     0.29214   0.29849   0.97130   0.00000  Uiso   1.00
H355   H     0.08958   0.17528   0.05918   0.00000  Uiso   1.00
H356   H     0.31246   0.07546   0.11298   0.00000  Uiso   1.00
H357   H     0.35853   0.41158   0.86264   0.00000  Uiso   1.00
H358   H     0.93143   0.15176   0.04796   0.00000  Uiso   1.00
H359   H     0.40142   0.94128   0.16141   0.00000  Uiso   1.00
O360   O     0.39453   0.42344   0.70967   0.00000  Uiso   1.00
O361   O     0.83420   0.08256   0.95280   0.00000  Uiso   1.00
O362   O     0.45081   0.80641   0.10165   0.00000  Uiso   1.00
N363   N     0.34417   0.29719   0.71529   0.00000  Uiso   1.00
N364   N     0.94486   0.05429   0.88854   0.00000  Uiso   1.00
N365   N     0.38424   0.85749   0.99462   0.00000  Uiso   1.00
N366   N     0.34839   0.36614   0.82574   0.00000  Uiso   1.00
N367   N     0.94909   0.12324   0.99899   0.00000  Uiso   1.00
N368   N     0.38846   0.92644   0.10507   0.00000  Uiso   1.00
