data_job_07094
_audit_creation_date              2018-12-19
_audit_creation_method            'Materials Studio'
_symmetry_space_group_name_H-M    'P1'
_symmetry_Int_Tables_number       1
_symmetry_cell_setting            triclinic
loop_
_symmetry_equiv_pos_as_xyz
  x,y,z
_cell_length_a                    21.1574
_cell_length_b                    22.2457
_cell_length_c                    24.3258
_cell_angle_alpha                 112.8366
_cell_angle_beta                  109.2048
_cell_angle_gamma                 65.1768
loop_
_atom_site_label
_atom_site_type_symbol
_atom_site_fract_x
_atom_site_fract_y
_atom_site_fract_z
_atom_site_U_iso_or_equiv
_atom_site_adp_type
_atom_site_occupancy
C1     C     0.01814   0.54413   0.65422   0.00000  Uiso   1.00
C2     C     0.95487   0.60626   0.64044   0.00000  Uiso   1.00
C3     C     0.92907   0.62039   0.58485   0.00000  Uiso   1.00
C4     C     0.87067   0.67984   0.58150   0.00000  Uiso   1.00
C5     C     0.77723   0.76968   0.55243   0.00000  Uiso   1.00
C6     C     0.06950   0.57378   0.70804   0.00000  Uiso   1.00
C7     C     0.14008   0.56060   0.70929   0.00000  Uiso   1.00
C8     C     0.17818   0.59271   0.76285   0.00000  Uiso   1.00
C9     C     0.26272   0.63208   0.83875   0.00000  Uiso   1.00
C10    C     0.99044   0.50748   0.67785   0.00000  Uiso   1.00
C11    C     0.99455   0.43856   0.65372   0.00000  Uiso   1.00
C12    C     0.96611   0.41484   0.68188   0.00000  Uiso   1.00
C13    C     0.92788   0.35129   0.71090   0.00000  Uiso   1.00
C14    C     0.96033   0.62457   0.74712   0.00000  Uiso   1.00
C15    C     0.92347   0.64995   0.69090   0.00000  Uiso   1.00
C16    C     0.86510   0.70939   0.68763   0.00000  Uiso   1.00
C17    C     0.83921   0.72361   0.63205   0.00000  Uiso   1.00
C18    C     0.03810   0.61747   0.75850   0.00000  Uiso   1.00
C19    C     0.07611   0.64960   0.81207   0.00000  Uiso   1.00
C20    C     0.14673   0.63648   0.81340   0.00000  Uiso   1.00
C21    C     0.95903   0.55117   0.72831   0.00000  Uiso   1.00
C22    C     0.93058   0.52756   0.75651   0.00000  Uiso   1.00
C23    C     0.93465   0.45861   0.73243   0.00000  Uiso   1.00
H24    H     0.04260   0.51012   0.61494   0.00000  Uiso   1.00
H25    H     0.95339   0.58657   0.54581   0.00000  Uiso   1.00
H26    H     0.16437   0.52679   0.67023   0.00000  Uiso   1.00
H27    H     0.01886   0.40477   0.61468   0.00000  Uiso   1.00
H28    H     0.84065   0.69062   0.49143   0.00000  Uiso   1.00
H29    H     0.28552   0.56454   0.75379   0.00000  Uiso   1.00
H30    H     0.97869   0.30723   0.63664   0.00000  Uiso   1.00
H31    H     0.93588   0.65858   0.78641   0.00000  Uiso   1.00
H32    H     0.84081   0.74319   0.72669   0.00000  Uiso   1.00
H33    H     0.05179   0.68340   0.85112   0.00000  Uiso   1.00
H34    H     0.90628   0.56138   0.79556   0.00000  Uiso   1.00
H35    H     0.74928   0.81774   0.63824   0.00000  Uiso   1.00
H36    H     0.19415   0.69165   0.90060   0.00000  Uiso   1.00
H37    H     0.88732   0.43435   0.78345   0.00000  Uiso   1.00
O38    O     0.73436   0.80717   0.52246   0.00000  Uiso   1.00
O39    O     0.31802   0.64174   0.86667   0.00000  Uiso   1.00
O40    O     0.91547   0.30416   0.71297   0.00000  Uiso   1.00
N41    N     0.83218   0.70892   0.53417   0.00000  Uiso   1.00
N42    N     0.24811   0.59105   0.77946   0.00000  Uiso   1.00
N43    N     0.96127   0.35048   0.66994   0.00000  Uiso   1.00
N44    N     0.78302   0.77732   0.61317   0.00000  Uiso   1.00
N45    N     0.19894   0.65945   0.85846   0.00000  Uiso   1.00
N46    N     0.91210   0.41888   0.74894   0.00000  Uiso   1.00
C47    C     0.30410   0.81186   0.29529   0.00000  Uiso   1.00
C48    C     0.35412   0.85353   0.31807   0.00000  Uiso   1.00
C49    C     0.33996   0.92165   0.35467   0.00000  Uiso   1.00
C50    C     0.39260   0.95053   0.37057   0.00000  Uiso   1.00
C51    C     0.46044   0.02102   0.40896   0.00000  Uiso   1.00
C52    C     0.29425   0.78708   0.22611   0.00000  Uiso   1.00
C53    C     0.22974   0.79933   0.18539   0.00000  Uiso   1.00
C54    C     0.23198   0.77227   0.12387   0.00000  Uiso   1.00
C55    C     0.20686   0.73955   0.01948   0.00000  Uiso   1.00
C56    C     0.34528   0.74711   0.31644   0.00000  Uiso   1.00
C57    C     0.32366   0.72573   0.35166   0.00000  Uiso   1.00
C58    C     0.36886   0.66500   0.36618   0.00000  Uiso   1.00
C59    C     0.42297   0.57021   0.40205   0.00000  Uiso   1.00
C60    C     0.42279   0.74202   0.25844   0.00000  Uiso   1.00
C61    C     0.41859   0.81559   0.29805   0.00000  Uiso   1.00
C62    C     0.47127   0.84438   0.31390   0.00000  Uiso   1.00
C63    C     0.45718   0.91253   0.35052   0.00000  Uiso   1.00
C64    C     0.35871   0.74915   0.20609   0.00000  Uiso   1.00
C65    C     0.36105   0.72206   0.14461   0.00000  Uiso   1.00
C66    C     0.29656   0.73426   0.10381   0.00000  Uiso   1.00
C67    C     0.40974   0.70917   0.29642   0.00000  Uiso   1.00
C68    C     0.45498   0.64846   0.31089   0.00000  Uiso   1.00
C69    C     0.43344   0.62699   0.34613   0.00000  Uiso   1.00
H70    H     0.25391   0.84139   0.31087   0.00000  Uiso   1.00
H71    H     0.29006   0.95099   0.37015   0.00000  Uiso   1.00
H72    H     0.17986   0.82868   0.20089   0.00000  Uiso   1.00
H73    H     0.27377   0.75510   0.36714   0.00000  Uiso   1.00
H74    H     0.35855   0.05578   0.42702   0.00000  Uiso   1.00
H75    H     0.12618   0.79787   0.07013   0.00000  Uiso   1.00
H76    H     0.32422   0.64270   0.42070   0.00000  Uiso   1.00
H77    H     0.47298   0.71248   0.24285   0.00000  Uiso   1.00
H78    H     0.52115   0.81501   0.29840   0.00000  Uiso   1.00
H79    H     0.41095   0.69270   0.12914   0.00000  Uiso   1.00
H80    H     0.50486   0.61912   0.29539   0.00000  Uiso   1.00
H81    H     0.54611   0.94541   0.36878   0.00000  Uiso   1.00
H82    H     0.31374   0.68750   0.01189   0.00000  Uiso   1.00
H83    H     0.51178   0.53233   0.36246   0.00000  Uiso   1.00
O84    O     0.48005   0.07038   0.43565   0.00000  Uiso   1.00
O85    O     0.17520   0.73199   0.96743   0.00000  Uiso   1.00
O86    O     0.43502   0.52841   0.42737   0.00000  Uiso   1.00
N87    N     0.39609   0.01573   0.40570   0.00000  Uiso   1.00
N88    N     0.17884   0.77461   0.07203   0.00000  Uiso   1.00
N89    N     0.36398   0.62952   0.39977   0.00000  Uiso   1.00
N90    N     0.49701   0.95634   0.37437   0.00000  Uiso   1.00
N91    N     0.27977   0.71522   0.04069   0.00000  Uiso   1.00
N92    N     0.46490   0.57014   0.36843   0.00000  Uiso   1.00
C93    C     0.72957   0.55112   0.89582   0.00000  Uiso   1.00
C94    C     0.71777   0.59541   0.85634   0.00000  Uiso   1.00
C95    C     0.75056   0.64357   0.87067   0.00000  Uiso   1.00
C96    C     0.73261   0.67881   0.82853   0.00000  Uiso   1.00
C97    C     0.72171   0.74951   0.77554   0.00000  Uiso   1.00
C98    C     0.65644   0.56601   0.90609   0.00000  Uiso   1.00
C99    C     0.63769   0.58945   0.96226   0.00000  Uiso   1.00
C100   C     0.56812   0.59994   0.96200   0.00000  Uiso   1.00
C101   C     0.46203   0.62495   0.98625   0.00000  Uiso   1.00
C102   C     0.75267   0.47616   0.85627   0.00000  Uiso   1.00
C103   C     0.81481   0.42403   0.87055   0.00000  Uiso   1.00
C104   C     0.82624   0.35886   0.82835   0.00000  Uiso   1.00
C105   C     0.86956   0.24435   0.77524   0.00000  Uiso   1.00
C106   C     0.63936   0.52808   0.79549   0.00000  Uiso   1.00
C107   C     0.66877   0.58289   0.80185   0.00000  Uiso   1.00
C108   C     0.65076   0.61807   0.75967   0.00000  Uiso   1.00
C109   C     0.68353   0.66627   0.77394   0.00000  Uiso   1.00
C110   C     0.60745   0.55350   0.85160   0.00000  Uiso   1.00
C111   C     0.53789   0.56395   0.85126   0.00000  Uiso   1.00
C112   C     0.51903   0.58740   0.90741   0.00000  Uiso   1.00
C113   C     0.70367   0.46364   0.80178   0.00000  Uiso   1.00
C114   C     0.71501   0.39853   0.75955   0.00000  Uiso   1.00
C115   C     0.77716   0.34632   0.77376   0.00000  Uiso   1.00
H116   H     0.76771   0.56087   0.93825   0.00000  Uiso   1.00
H117   H     0.78847   0.65324   0.91286   0.00000  Uiso   1.00
H118   H     0.67562   0.59912   0.00443   0.00000  Uiso   1.00
H119   H     0.85271   0.43373   0.91273   0.00000  Uiso   1.00
H120   H     0.78987   0.75016   0.86068   0.00000  Uiso   1.00
H121   H     0.55191   0.63602   0.05376   0.00000  Uiso   1.00
H122   H     0.92535   0.28726   0.86040   0.00000  Uiso   1.00
H123   H     0.60122   0.51833   0.75306   0.00000  Uiso   1.00
H124   H     0.61285   0.60837   0.71750   0.00000  Uiso   1.00
H125   H     0.49999   0.55425   0.80908   0.00000  Uiso   1.00
H126   H     0.67708   0.38886   0.71738   0.00000  Uiso   1.00
H127   H     0.64732   0.71374   0.70213   0.00000  Uiso   1.00
H128   H     0.40937   0.59960   0.89521   0.00000  Uiso   1.00
H129   H     0.78280   0.25085   0.70185   0.00000  Uiso   1.00
O130   O     0.72923   0.79197   0.76136   0.00000  Uiso   1.00
O131   O     0.41705   0.64221   0.01468   0.00000  Uiso   1.00
O132   O     0.90699   0.18465   0.76100   0.00000  Uiso   1.00
N133   N     0.75473   0.72922   0.82824   0.00000  Uiso   1.00
N134   N     0.53226   0.62252   0.00876   0.00000  Uiso   1.00
N135   N     0.88138   0.29645   0.82799   0.00000  Uiso   1.00
N136   N     0.67803   0.70963   0.74292   0.00000  Uiso   1.00
N137   N     0.45556   0.60292   0.92344   0.00000  Uiso   1.00
N138   N     0.80468   0.27686   0.74268   0.00000  Uiso   1.00
C139   C     0.38453   0.31364   0.22415   0.00000  Uiso   1.00
C140   C     0.33360   0.37014   0.26498   0.00000  Uiso   1.00
C141   C     0.35270   0.41378   0.32155   0.00000  Uiso   1.00
C142   C     0.29822   0.46209   0.35175   0.00000  Uiso   1.00
C143   C     0.22994   0.54918   0.41902   0.00000  Uiso   1.00
C144   C     0.35874   0.32972   0.16340   0.00000  Uiso   1.00
C145   C     0.39898   0.33936   0.13456   0.00000  Uiso   1.00
C146   C     0.36565   0.35363   0.07925   0.00000  Uiso   1.00
C147   C     0.33641   0.37792   0.98879   0.00000  Uiso   1.00
C148   C     0.37166   0.24666   0.21188   0.00000  Uiso   1.00
C149   C     0.42276   0.18645   0.22379   0.00000  Uiso   1.00
C150   C     0.40032   0.13078   0.20928   0.00000  Uiso   1.00
C151   C     0.39115   0.02610   0.19409   0.00000  Uiso   1.00
C152   C     0.25380   0.32183   0.17719   0.00000  Uiso   1.00
C153   C     0.26259   0.37459   0.23947   0.00000  Uiso   1.00
C154   C     0.20807   0.42284   0.26960   0.00000  Uiso   1.00
C155   C     0.22709   0.46655   0.32620   0.00000  Uiso   1.00
C156   C     0.28773   0.33417   0.13790   0.00000  Uiso   1.00
C157   C     0.25434   0.34843   0.08261   0.00000  Uiso   1.00
C158   C     0.29452   0.35809   0.05370   0.00000  Uiso   1.00
C159   C     0.30065   0.25111   0.18638   0.00000  Uiso   1.00
C160   C     0.27813   0.19552   0.17184   0.00000  Uiso   1.00
C161   C     0.32919   0.13524   0.18373   0.00000  Uiso   1.00
H162   H     0.43981   0.31017   0.24400   0.00000  Uiso   1.00
H163   H     0.40766   0.41033   0.34127   0.00000  Uiso   1.00
H164   H     0.45392   0.33591   0.15430   0.00000  Uiso   1.00
H165   H     0.47771   0.18303   0.24352   0.00000  Uiso   1.00
H166   H     0.34070   0.52335   0.43785   0.00000  Uiso   1.00
H167   H     0.43826   0.36641   0.04362   0.00000  Uiso   1.00
H168   H     0.48841   0.04403   0.23175   0.00000  Uiso   1.00
H169   H     0.19852   0.32529   0.15734   0.00000  Uiso   1.00
H170   H     0.15312   0.42628   0.24985   0.00000  Uiso   1.00
H171   H     0.19939   0.35186   0.06289   0.00000  Uiso   1.00
H172   H     0.22318   0.19898   0.15211   0.00000  Uiso   1.00
H173   H     0.13411   0.53629   0.36365   0.00000  Uiso   1.00
H174   H     0.23168   0.37936   0.96942   0.00000  Uiso   1.00
H175   H     0.28182   0.05697   0.15755   0.00000  Uiso   1.00
O176   O     0.21189   0.59599   0.46316   0.00000  Uiso   1.00
O177   O     0.33990   0.39009   0.94595   0.00000  Uiso   1.00
O178   O     0.40570   0.96713   0.19277   0.00000  Uiso   1.00
N179   N     0.29831   0.51252   0.40769   0.00000  Uiso   1.00
N180   N     0.38952   0.36581   0.03912   0.00000  Uiso   1.00
N181   N     0.43641   0.06440   0.21499   0.00000  Uiso   1.00
N182   N     0.18714   0.51949   0.36777   0.00000  Uiso   1.00
N183   N     0.27836   0.37278   0.99920   0.00000  Uiso   1.00
N184   N     0.32525   0.07137   0.17507   0.00000  Uiso   1.00
C185   C     0.01855   0.11258   0.66670   0.00000  Uiso   1.00
C186   C     0.98504   0.12712   0.60528   0.00000  Uiso   1.00
C187   C     0.91290   0.14718   0.58034   0.00000  Uiso   1.00
C188   C     0.89292   0.15797   0.52363   0.00000  Uiso   1.00
C189   C     0.83321   0.18195   0.43294   0.00000  Uiso   1.00
C190   C     0.06253   0.16021   0.70252   0.00000  Uiso   1.00
C191   C     0.05555   0.20806   0.75934   0.00000  Uiso   1.00
C192   C     0.10082   0.24670   0.78449   0.00000  Uiso   1.00
C193   C     0.16146   0.32200   0.84478   0.00000  Uiso   1.00
C194   C     0.07169   0.03911   0.65367   0.00000  Uiso   1.00
C195   C     0.07243   0.98515   0.66944   0.00000  Uiso   1.00
C196   C     0.12542   0.92183   0.65347   0.00000  Uiso   1.00
C197   C     0.20028   0.80912   0.63791   0.00000  Uiso   1.00
C198   C     0.11137   0.09608   0.61032   0.00000  Uiso   1.00
C199   C     0.03545   0.11817   0.57466   0.00000  Uiso   1.00
C200   C     0.01558   0.12893   0.51797   0.00000  Uiso   1.00
C201   C     0.94342   0.14899   0.49296   0.00000  Uiso   1.00
C202   C     0.11295   0.15125   0.67190   0.00000  Uiso   1.00
C203   C     0.15824   0.18981   0.69697   0.00000  Uiso   1.00
C204   C     0.15133   0.23772   0.75381   0.00000  Uiso   1.00
C205   C     0.12211   0.03015   0.62304   0.00000  Uiso   1.00
C206   C     0.17511   0.96690   0.60706   0.00000  Uiso   1.00
C207   C     0.17593   0.91286   0.62280   0.00000  Uiso   1.00
H208   H     0.97931   0.11956   0.69054   0.00000  Uiso   1.00
H209   H     0.87390   0.15411   0.60406   0.00000  Uiso   1.00
H210   H     0.01654   0.21498   0.78303   0.00000  Uiso   1.00
H211   H     0.03341   0.99210   0.69313   0.00000  Uiso   1.00
H212   H     0.77926   0.18850   0.49468   0.00000  Uiso   1.00
H213   H     0.08005   0.31683   0.87206   0.00000  Uiso   1.00
H214   H     0.11562   0.84685   0.68250   0.00000  Uiso   1.00
H215   H     0.15062   0.08911   0.58648   0.00000  Uiso   1.00
H216   H     0.05461   0.12199   0.49428   0.00000  Uiso   1.00
H217   H     0.19725   0.18286   0.67326   0.00000  Uiso   1.00
H218   H     0.21412   0.95999   0.58336   0.00000  Uiso   1.00
H219   H     0.92593   0.16243   0.40559   0.00000  Uiso   1.00
H220   H     0.22672   0.29076   0.78297   0.00000  Uiso   1.00
H221   H     0.26229   0.82078   0.59341   0.00000  Uiso   1.00
O222   O     0.78634   0.19766   0.39137   0.00000  Uiso   1.00
O223   O     0.18097   0.36602   0.88649   0.00000  Uiso   1.00
O224   O     0.22764   0.74942   0.63778   0.00000  Uiso   1.00
N225   N     0.82696   0.17783   0.48636   0.00000  Uiso   1.00
N226   N     0.10817   0.29783   0.83919   0.00000  Uiso   1.00
N227   N     0.14143   0.85844   0.66198   0.00000  Uiso   1.00
N228   N     0.90588   0.16381   0.43842   0.00000  Uiso   1.00
N229   N     0.18709   0.28380   0.79124   0.00000  Uiso   1.00
N230   N     0.22036   0.84441   0.61403   0.00000  Uiso   1.00
C231   C     0.64663   0.13799   0.83322   0.00000  Uiso   1.00
C232   C     0.69179   0.18336   0.87407   0.00000  Uiso   1.00
C233   C     0.74481   0.19069   0.85810   0.00000  Uiso   1.00
C234   C     0.78000   0.23467   0.90191   0.00000  Uiso   1.00
C235   C     0.85272   0.29977   0.95655   0.00000  Uiso   1.00
C236   C     0.56954   0.18593   0.83053   0.00000  Uiso   1.00
C237   C     0.51978   0.19542   0.77794   0.00000  Uiso   1.00
C238   C     0.45205   0.24156   0.78511   0.00000  Uiso   1.00
C239   C     0.33496   0.31061   0.77214   0.00000  Uiso   1.00
C240   C     0.65676   0.08927   0.86786   0.00000  Uiso   1.00
C241   C     0.68032   0.01749   0.84666   0.00000  Uiso   1.00
C242   C     0.68601   0.98225   0.88525   0.00000  Uiso   1.00
C243   C     0.70435   0.90123   0.93025   0.00000  Uiso   1.00
C244   C     0.61482   0.20305   0.93944   0.00000  Uiso   1.00
C245   C     0.67451   0.21870   0.93176   0.00000  Uiso   1.00
C246   C     0.70962   0.26268   0.97562   0.00000  Uiso   1.00
C247   C     0.76270   0.27007   0.95971   0.00000  Uiso   1.00
C248   C     0.55226   0.22127   0.88822   0.00000  Uiso   1.00
C249   C     0.48459   0.26741   0.89546   0.00000  Uiso   1.00
C250   C     0.43474   0.27696   0.84291   0.00000  Uiso   1.00
C251   C     0.63948   0.12461   0.92556   0.00000  Uiso   1.00
C252   C     0.64513   0.08948   0.96418   0.00000  Uiso   1.00
C253   C     0.66870   0.01766   0.94305   0.00000  Uiso   1.00
H254   H     0.66007   0.11047   0.78830   0.00000  Uiso   1.00
H255   H     0.75816   0.16333   0.81344   0.00000  Uiso   1.00
H256   H     0.53316   0.16806   0.73330   0.00000  Uiso   1.00
H257   H     0.69368   0.99016   0.80201   0.00000  Uiso   1.00
H258   H     0.85928   0.23754   0.86674   0.00000  Uiso   1.00
H259   H     0.38484   0.24748   0.69777   0.00000  Uiso   1.00
H260   H     0.72333   0.87235   0.84265   0.00000  Uiso   1.00
H261   H     0.60137   0.23057   0.98436   0.00000  Uiso   1.00
H262   H     0.69624   0.29002   0.02026   0.00000  Uiso   1.00
H263   H     0.47124   0.29474   0.94012   0.00000  Uiso   1.00
H264   H     0.63176   0.11685   0.00883   0.00000  Uiso   1.00
H265   H     0.80902   0.34037   0.03461   0.00000  Uiso   1.00
H266   H     0.33458   0.35031   0.86563   0.00000  Uiso   1.00
H267   H     0.67307   0.97518   0.01052   0.00000  Uiso   1.00
O268   O     0.89760   0.32592   0.97075   0.00000  Uiso   1.00
O269   O     0.27516   0.33894   0.74905   0.00000  Uiso   1.00
O270   O     0.71925   0.84678   0.93914   0.00000  Uiso   1.00
N271   N     0.83444   0.25357   0.90133   0.00000  Uiso   1.00
N272   N     0.39087   0.26287   0.74334   0.00000  Uiso   1.00
N273   N     0.70731   0.91216   0.87879   0.00000  Uiso   1.00
N274   N     0.80739   0.30890   0.99165   0.00000  Uiso   1.00
N275   N     0.36383   0.31820   0.83367   0.00000  Uiso   1.00
N276   N     0.68027   0.96749   0.96912   0.00000  Uiso   1.00
C277   C     0.74626   0.41941   0.27206   0.00000  Uiso   1.00
C278   C     0.77313   0.34052   0.25427   0.00000  Uiso   1.00
C279   C     0.77945   0.30095   0.28928   0.00000  Uiso   1.00
C280   C     0.80510   0.22951   0.26493   0.00000  Uiso   1.00
C281   C     0.84395   0.11167   0.24602   0.00000  Uiso   1.00
C282   C     0.68413   0.43943   0.22115   0.00000  Uiso   1.00
C283   C     0.61563   0.48302   0.22830   0.00000  Uiso   1.00
C284   C     0.56638   0.49485   0.17607   0.00000  Uiso   1.00
C285   C     0.46708   0.53061   0.10573   0.00000  Uiso   1.00
C286   C     0.80503   0.43958   0.26847   0.00000  Uiso   1.00
C287   C     0.83817   0.48332   0.31541   0.00000  Uiso   1.00
C288   C     0.89070   0.49528   0.30302   0.00000  Uiso   1.00
C289   C     0.97911   0.53128   0.30616   0.00000  Uiso   1.00
C290   C     0.78059   0.36291   0.16658   0.00000  Uiso   1.00
C291   C     0.79177   0.30983   0.19698   0.00000  Uiso   1.00
C292   C     0.81743   0.23843   0.17257   0.00000  Uiso   1.00
C293   C     0.82379   0.19876   0.20754   0.00000  Uiso   1.00
C294   C     0.70278   0.40874   0.16385   0.00000  Uiso   1.00
C295   C     0.65362   0.42051   0.11160   0.00000  Uiso   1.00
C296   C     0.58506   0.46411   0.11867   0.00000  Uiso   1.00
C297   C     0.82368   0.40888   0.21118   0.00000  Uiso   1.00
C298   C     0.87616   0.42079   0.19871   0.00000  Uiso   1.00
C299   C     0.90938   0.46454   0.24562   0.00000  Uiso   1.00
H300   H     0.73174   0.44331   0.31666   0.00000  Uiso   1.00
H301   H     0.76500   0.32472   0.33361   0.00000  Uiso   1.00
H302   H     0.60122   0.50677   0.27265   0.00000  Uiso   1.00
H303   H     0.82373   0.50706   0.35974   0.00000  Uiso   1.00
H304   H     0.81009   0.17971   0.32713   0.00000  Uiso   1.00
H305   H     0.46474   0.56359   0.19858   0.00000  Uiso   1.00
H306   H     0.93395   0.56420   0.38224   0.00000  Uiso   1.00
H307   H     0.79510   0.33901   0.12197   0.00000  Uiso   1.00
H308   H     0.83185   0.21470   0.12824   0.00000  Uiso   1.00
H309   H     0.66807   0.39675   0.06727   0.00000  Uiso   1.00
H310   H     0.89058   0.39703   0.15437   0.00000  Uiso   1.00
H311   H     0.86434   0.09040   0.16043   0.00000  Uiso   1.00
H312   H     0.51900   0.47430   0.03189   0.00000  Uiso   1.00
H313   H     0.98820   0.47489   0.21555   0.00000  Uiso   1.00
O314   O     0.86022   0.05516   0.25140   0.00000  Uiso   1.00
O315   O     0.40715   0.55881   0.08276   0.00000  Uiso   1.00
O316   O     0.02274   0.55960   0.32372   0.00000  Uiso   1.00
N317   N     0.81782   0.17575   0.28704   0.00000  Uiso   1.00
N318   N     0.49495   0.53465   0.16686   0.00000  Uiso   1.00
N319   N     0.93360   0.53523   0.33856   0.00000  Uiso   1.00
N320   N     0.84702   0.12770   0.19734   0.00000  Uiso   1.00
N321   N     0.52414   0.48660   0.07716   0.00000  Uiso   1.00
N322   N     0.96280   0.48718   0.24886   0.00000  Uiso   1.00
C323   C     0.47767   0.37175   0.63818   0.00000  Uiso   1.00
C324   C     0.42646   0.33094   0.60662   0.00000  Uiso   1.00
C325   C     0.44089   0.26569   0.56463   0.00000  Uiso   1.00
C326   C     0.38701   0.23712   0.54097   0.00000  Uiso   1.00
C327   C     0.31753   0.16833   0.48929   0.00000  Uiso   1.00
C328   C     0.48379   0.38812   0.70630   0.00000  Uiso   1.00
C329   C     0.54643   0.37096   0.74811   0.00000  Uiso   1.00
C330   C     0.54081   0.39054   0.80836   0.00000  Uiso   1.00
C331   C     0.56035   0.41057   0.91145   0.00000  Uiso   1.00
C332   C     0.43960   0.44094   0.62400   0.00000  Uiso   1.00
C333   C     0.46508   0.46821   0.59663   0.00000  Uiso   1.00
C334   C     0.42226   0.53227   0.58761   0.00000  Uiso   1.00
C335   C     0.37318   0.63432   0.56291   0.00000  Uiso   1.00
C336   C     0.35632   0.43705   0.67084   0.00000  Uiso   1.00
C337   C     0.36055   0.36640   0.62437   0.00000  Uiso   1.00
C338   C     0.30663   0.33793   0.60076   0.00000  Uiso   1.00
C339   C     0.32097   0.27265   0.55874   0.00000  Uiso   1.00
C340   C     0.41789   0.42358   0.72404   0.00000  Uiso   1.00
C341   C     0.41217   0.44320   0.78425   0.00000  Uiso   1.00
C342   C     0.47478   0.42606   0.82614   0.00000  Uiso   1.00
C343   C     0.37369   0.47641   0.64174   0.00000  Uiso   1.00
C344   C     0.33082   0.54044   0.63276   0.00000  Uiso   1.00
C345   C     0.35623   0.56780   0.60538   0.00000  Uiso   1.00
H346   H     0.52899   0.34414   0.62437   0.00000  Uiso   1.00
H347   H     0.49191   0.23826   0.55091   0.00000  Uiso   1.00
H348   H     0.59743   0.34352   0.73437   0.00000  Uiso   1.00
H349   H     0.51609   0.44075   0.58291   0.00000  Uiso   1.00
H350   H     0.42173   0.13649   0.47731   0.00000  Uiso   1.00
H351   H     0.64423   0.35846   0.86414   0.00000  Uiso   1.00
H352   H     0.47273   0.56350   0.54476   0.00000  Uiso   1.00
H353   H     0.30501   0.46466   0.68466   0.00000  Uiso   1.00
H354   H     0.25563   0.36538   0.61450   0.00000  Uiso   1.00
H355   H     0.36116   0.47064   0.79796   0.00000  Uiso   1.00
H356   H     0.27982   0.56787   0.64650   0.00000  Uiso   1.00
H357   H     0.22997   0.23967   0.52892   0.00000  Uiso   1.00
H358   H     0.45247   0.46164   0.91576   0.00000  Uiso   1.00
H359   H     0.28096   0.66667   0.59637   0.00000  Uiso   1.00
O360   O     0.29742   0.12059   0.45589   0.00000  Uiso   1.00
O361   O     0.58933   0.41182   0.96340   0.00000  Uiso   1.00
O362   O     0.36432   0.68081   0.54438   0.00000  Uiso   1.00
N363   N     0.38337   0.17440   0.49908   0.00000  Uiso   1.00
N364   N     0.59140   0.38192   0.86074   0.00000  Uiso   1.00
N365   N     0.43106   0.57362   0.56216   0.00000  Uiso   1.00
N366   N     0.28018   0.22992   0.52685   0.00000  Uiso   1.00
N367   N     0.48821   0.43744   0.88851   0.00000  Uiso   1.00
N368   N     0.32787   0.62914   0.58993   0.00000  Uiso   1.00
C369   C     0.02308   0.57105   0.97548   0.00000  Uiso   1.00
C370   C     0.03144   0.52683   0.01381   0.00000  Uiso   1.00
C371   C     0.00449   0.47327   0.99456   0.00000  Uiso   1.00
C372   C     0.01791   0.43912   0.03648   0.00000  Uiso   1.00
C373   C     0.02499   0.36759   0.08701   0.00000  Uiso   1.00
C374   C     0.09819   0.56407   0.97623   0.00000  Uiso   1.00
C375   C     0.12734   0.54183   0.92538   0.00000  Uiso   1.00
C376   C     0.19695   0.53903   0.93566   0.00000  Uiso   1.00
C377   C     0.30763   0.52536   0.92785   0.00000  Uiso   1.00
C378   C     0.98880   0.64593   0.01087   0.00000  Uiso   1.00
C379   C     0.92600   0.69252   0.98914   0.00000  Uiso   1.00
C380   C     0.90352   0.75864   0.02858   0.00000  Uiso   1.00
C381   C     0.84437   0.87206   0.07455   0.00000  Uiso   1.00
C382   C     0.09484   0.60563   0.08415   0.00000  Uiso   1.00
C383   C     0.07042   0.54562   0.07284   0.00000  Uiso   1.00
C384   C     0.08388   0.51154   0.11480   0.00000  Uiso   1.00
C385   C     0.05695   0.45794   0.09561   0.00000  Uiso   1.00
C386   C     0.13716   0.58286   0.03525   0.00000  Uiso   1.00
C387   C     0.20674   0.58009   0.04562   0.00000  Uiso   1.00
C388   C     0.23600   0.55785   0.99480   0.00000  Uiso   1.00
C389   C     0.02778   0.66471   0.06990   0.00000  Uiso   1.00
C390   C     0.00540   0.73078   0.10938   0.00000  Uiso   1.00
C391   C     0.94257   0.77746   0.08772   0.00000  Uiso   1.00
H392   H     0.99274   0.55642   0.92952   0.00000  Uiso   1.00
H393   H     0.97433   0.45875   0.94887   0.00000  Uiso   1.00
H394   H     0.09716   0.52730   0.87970   0.00000  Uiso   1.00
H395   H     0.89585   0.67796   0.94345   0.00000  Uiso   1.00
H396   H     0.97113   0.35873   0.99635   0.00000  Uiso   1.00
H397   H     0.23013   0.50330   0.85050   0.00000  Uiso   1.00
H398   H     0.80562   0.82100   0.98494   0.00000  Uiso   1.00
H399   H     0.12519   0.62026   0.13011   0.00000  Uiso   1.00
H400   H     0.11405   0.52609   0.16048   0.00000  Uiso   1.00
H401   H     0.23688   0.59464   0.09130   0.00000  Uiso   1.00
H402   H     0.03557   0.74530   0.15506   0.00000  Uiso   1.00
H403   H     0.08454   0.41338   0.16810   0.00000  Uiso   1.00
H404   H     0.34353   0.55795   0.02225   0.00000  Uiso   1.00
H405   H     0.91902   0.87565   0.15668   0.00000  Uiso   1.00
O406   O     0.01813   0.32294   0.09857   0.00000  Uiso   1.00
O407   O     0.35792   0.51262   0.90722   0.00000  Uiso   1.00
O408   O     0.80098   0.92943   0.08360   0.00000  Uiso   1.00
N409   N     0.99934   0.38452   0.03261   0.00000  Uiso   1.00
N410   N     0.24149   0.51968   0.89625   0.00000  Uiso   1.00
N411   N     0.84462   0.81670   0.02193   0.00000  Uiso   1.00
N412   N     0.06036   0.41393   0.12502   0.00000  Uiso   1.00
N413   N     0.30251   0.54908   0.98867   0.00000  Uiso   1.00
N414   N     0.90564   0.84611   0.11434   0.00000  Uiso   1.00
C415   C     0.43152   0.81302   0.61340   0.00000  Uiso   1.00
C416   C     0.50022   0.76840   0.58972   0.00000  Uiso   1.00
C417   C     0.50616   0.71729   0.53434   0.00000  Uiso   1.00
C418   C     0.57371   0.68227   0.52105   0.00000  Uiso   1.00
C419   C     0.67135   0.61060   0.47810   0.00000  Uiso   1.00
C420   C     0.44387   0.80237   0.67486   0.00000  Uiso   1.00
C421   C     0.40243   0.77982   0.69107   0.00000  Uiso   1.00
C422   C     0.42254   0.77340   0.74946   0.00000  Uiso   1.00
C423   C     0.43266   0.75451   0.83871   0.00000  Uiso   1.00
C424   C     0.42545   0.88795   0.62695   0.00000  Uiso   1.00
C425   C     0.36850   0.93736   0.60289   0.00000  Uiso   1.00
C426   C     0.37310   0.00300   0.62095   0.00000  Uiso   1.00
C427   C     0.35462   0.11699   0.63581   0.00000  Uiso   1.00
C428   C     0.54092   0.84172   0.68828   0.00000  Uiso   1.00
C429   C     0.55964   0.78399   0.63039   0.00000  Uiso   1.00
C430   C     0.62720   0.74905   0.61718   0.00000  Uiso   1.00
C431   C     0.63324   0.69789   0.56179   0.00000  Uiso   1.00
C432   C     0.50329   0.81796   0.71553   0.00000  Uiso   1.00
C433   C     0.52347   0.81158   0.77391   0.00000  Uiso   1.00
C434   C     0.48207   0.78902   0.79021   0.00000  Uiso   1.00
C435   C     0.48487   0.90354   0.66762   0.00000  Uiso   1.00
C436   C     0.48955   0.96912   0.68573   0.00000  Uiso   1.00
C437   C     0.43263   0.01862   0.66170   0.00000  Uiso   1.00
H438   H     0.38526   0.80088   0.58174   0.00000  Uiso   1.00
H439   H     0.46016   0.70523   0.50288   0.00000  Uiso   1.00
H440   H     0.35644   0.76776   0.65959   0.00000  Uiso   1.00
H441   H     0.32253   0.92528   0.57141   0.00000  Uiso   1.00
H442   H     0.56941   0.60605   0.43339   0.00000  Uiso   1.00
H443   H     0.35070   0.73792   0.76382   0.00000  Uiso   1.00
H444   H     0.27919   0.07008   0.57790   0.00000  Uiso   1.00
H445   H     0.58719   0.85386   0.71995   0.00000  Uiso   1.00
H446   H     0.67318   0.76112   0.64867   0.00000  Uiso   1.00
H447   H     0.56945   0.82365   0.80538   0.00000  Uiso   1.00
H448   H     0.53554   0.98116   0.71720   0.00000  Uiso   1.00
H449   H     0.74231   0.65141   0.55172   0.00000  Uiso   1.00
H450   H     0.52359   0.78328   0.88216   0.00000  Uiso   1.00
H451   H     0.45208   0.11543   0.69623   0.00000  Uiso   1.00
O452   O     0.70879   0.56676   0.44318   0.00000  Uiso   1.00
O453   O     0.42183   0.73977   0.87670   0.00000  Uiso   1.00
O454   O     0.32801   0.17555   0.63276   0.00000  Uiso   1.00
N455   N     0.59830   0.62947   0.47101   0.00000  Uiso   1.00
N456   N     0.39382   0.75274   0.77995   0.00000  Uiso   1.00
N457   N     0.32696   0.06328   0.60614   0.00000  Uiso   1.00
N458   N     0.69133   0.65387   0.53469   0.00000  Uiso   1.00
N459   N     0.48686   0.77715   0.84362   0.00000  Uiso   1.00
N460   N     0.41999   0.08769   0.66981   0.00000  Uiso   1.00
C461   C     0.74054   0.91635   0.26030   0.00000  Uiso   1.00
C462   C     0.75199   0.86637   0.29414   0.00000  Uiso   1.00
C463   C     0.81732   0.82495   0.31848   0.00000  Uiso   1.00
C464   C     0.81652   0.78276   0.34773   0.00000  Uiso   1.00
C465   C     0.84401   0.70524   0.39954   0.00000  Uiso   1.00
C466   C     0.69400   0.89477   0.19845   0.00000  Uiso   1.00
C467   C     0.71058   0.87724   0.14232   0.00000  Uiso   1.00
C468   C     0.66095   0.85897   0.09102   0.00000  Uiso   1.00
C469   C     0.59840   0.82559   0.99425   0.00000  Uiso   1.00
C470   C     0.69503   0.98701   0.29426   0.00000  Uiso   1.00
C471   C     0.71246   0.04705   0.31868   0.00000  Uiso   1.00
C472   C     0.66369   0.10644   0.34803   0.00000  Uiso   1.00
C473   C     0.60273   0.21628   0.40002   0.00000  Uiso   1.00
C474   C     0.62292   0.91507   0.26898   0.00000  Uiso   1.00
C475   C     0.68810   0.86568   0.29886   0.00000  Uiso   1.00
C476   C     0.68719   0.82354   0.32808   0.00000  Uiso   1.00
C477   C     0.75252   0.78207   0.35246   0.00000  Uiso   1.00
C478   C     0.63012   0.89408   0.20316   0.00000  Uiso   1.00
C479   C     0.58045   0.87583   0.15193   0.00000  Uiso   1.00
C480   C     0.59695   0.85827   0.09574   0.00000  Uiso   1.00
C481   C     0.63114   0.98632   0.29898   0.00000  Uiso   1.00
C482   C     0.58233   0.04563   0.32829   0.00000  Uiso   1.00
C483   C     0.59969   0.10574   0.35275   0.00000  Uiso   1.00
H484   H     0.79027   0.91688   0.25663   0.00000  Uiso   1.00
H485   H     0.86675   0.82550   0.31481   0.00000  Uiso   1.00
H486   H     0.76002   0.87779   0.13869   0.00000  Uiso   1.00
H487   H     0.76190   0.04756   0.31502   0.00000  Uiso   1.00
H488   H     0.92337   0.72386   0.38139   0.00000  Uiso   1.00
H489   H     0.69831   0.83413   0.01001   0.00000  Uiso   1.00
H490   H     0.70227   0.19214   0.38184   0.00000  Uiso   1.00
H491   H     0.57318   0.91453   0.27265   0.00000  Uiso   1.00
H492   H     0.63775   0.82302   0.33173   0.00000  Uiso   1.00
H493   H     0.53102   0.87531   0.15559   0.00000  Uiso   1.00
H494   H     0.53290   0.04508   0.33193   0.00000  Uiso   1.00
H495   H     0.73750   0.72184   0.39511   0.00000  Uiso   1.00
H496   H     0.51244   0.83212   0.02373   0.00000  Uiso   1.00
H497   H     0.51641   0.19012   0.39557   0.00000  Uiso   1.00
O498   O     0.87682   0.66267   0.42680   0.00000  Uiso   1.00
O499   O     0.58155   0.80737   0.93957   0.00000  Uiso   1.00
O500   O     0.58676   0.27705   0.42741   0.00000  Uiso   1.00
N501   N     0.87076   0.73595   0.37652   0.00000  Uiso   1.00
N502   N     0.66035   0.83904   0.02930   0.00000  Uiso   1.00
N503   N     0.66405   0.17375   0.37692   0.00000  Uiso   1.00
N504   N     0.77075   0.73487   0.38391   0.00000  Uiso   1.00
N505   N     0.56034   0.83796   0.03669   0.00000  Uiso   1.00
N506   N     0.56404   0.17267   0.38431   0.00000  Uiso   1.00
C507   C     0.10927   0.97398   0.01450   0.00000  Uiso   1.00
C508   C     0.06299   0.92913   0.97578   0.00000  Uiso   1.00
C509   C     0.01321   0.92058   0.99501   0.00000  Uiso   1.00
C510   C     0.97629   0.87734   0.95272   0.00000  Uiso   1.00
C511   C     0.90256   0.81275   0.90165   0.00000  Uiso   1.00
C512   C     0.18588   0.92610   0.01265   0.00000  Uiso   1.00
C513   C     0.23943   0.91501   0.06288   0.00000  Uiso   1.00
C514   C     0.30598   0.86923   0.05162   0.00000  Uiso   1.00
C515   C     0.42306   0.79998   0.05779   0.00000  Uiso   1.00
C516   C     0.09467   0.02451   0.98014   0.00000  Uiso   1.00
C517   C     0.07154   0.09617   0.00305   0.00000  Uiso   1.00
C518   C     0.06130   0.13325   0.96442   0.00000  Uiso   1.00
C519   C     0.03676   0.21680   0.92012   0.00000  Uiso   1.00
C520   C     0.13223   0.91241   0.90518   0.00000  Uiso   1.00
C521   C     0.07546   0.89568   0.91641   0.00000  Uiso   1.00
C522   C     0.03861   0.85245   0.87407   0.00000  Uiso   1.00
C523   C     0.98879   0.84384   0.89323   0.00000  Uiso   1.00
C524   C     0.19836   0.89265   0.95328   0.00000  Uiso   1.00
C525   C     0.26484   0.84688   0.94194   0.00000  Uiso   1.00
C526   C     0.31848   0.83572   0.99214   0.00000  Uiso   1.00
C527   C     0.10714   0.99107   0.92077   0.00000  Uiso   1.00
C528   C     0.09695   0.02804   0.88210   0.00000  Uiso   1.00
C529   C     0.07380   0.09974   0.90494   0.00000  Uiso   1.00
H530   H     0.09956   0.00002   0.06072   0.00000  Uiso   1.00
H531   H     0.00357   0.94646   0.04097   0.00000  Uiso   1.00
H532   H     0.22977   0.94090   0.10883   0.00000  Uiso   1.00
H533   H     0.06189   0.12204   0.04900   0.00000  Uiso   1.00
H534   H     0.90268   0.87232   0.99289   0.00000  Uiso   1.00
H535   H     0.37962   0.86061   0.13597   0.00000  Uiso   1.00
H536   H     0.02563   0.24257   0.00981   0.00000  Uiso   1.00
H537   H     0.14194   0.88637   0.85895   0.00000  Uiso   1.00
H538   H     0.04828   0.82658   0.82812   0.00000  Uiso   1.00
H539   H     0.27448   0.82101   0.89598   0.00000  Uiso   1.00
H540   H     0.10660   0.00215   0.83615   0.00000  Uiso   1.00
H541   H     0.93896   0.77501   0.82014   0.00000  Uiso   1.00
H542   H     0.41591   0.76331   0.96322   0.00000  Uiso   1.00
H543   H     0.06192   0.14526   0.83706   0.00000  Uiso   1.00
O544   O     0.85846   0.78636   0.88988   0.00000  Uiso   1.00
O545   O     0.48419   0.77102   0.07760   0.00000  Uiso   1.00
O546   O     0.01977   0.27213   0.91208   0.00000  Uiso   1.00
N547   N     0.92406   0.85763   0.95646   0.00000  Uiso   1.00
N548   N     0.36997   0.84668   0.09023   0.00000  Uiso   1.00
N549   N     0.03904   0.20378   0.97229   0.00000  Uiso   1.00
N550   N     0.94358   0.80527   0.86350   0.00000  Uiso   1.00
N551   N     0.38950   0.79432   0.99727   0.00000  Uiso   1.00
N552   N     0.05857   0.15142   0.87933   0.00000  Uiso   1.00
