data_job_03460
_audit_creation_date              2018-12-19
_audit_creation_method            'Materials Studio'
_symmetry_space_group_name_H-M    'P1'
_symmetry_Int_Tables_number       1
_symmetry_cell_setting            triclinic
loop_
_symmetry_equiv_pos_as_xyz
  x,y,z
_cell_length_a                    18.6794
_cell_length_b                    15.9489
_cell_length_c                    18.9069
_cell_angle_alpha                 90.0000
_cell_angle_beta                  90.0000
_cell_angle_gamma                 90.0000
loop_
_atom_site_label
_atom_site_type_symbol
_atom_site_fract_x
_atom_site_fract_y
_atom_site_fract_z
_atom_site_U_iso_or_equiv
_atom_site_adp_type
_atom_site_occupancy
C1     C     0.49431   0.06566   0.74060   0.00000  Uiso   1.00
C2     C     0.46949   0.13604   0.78937   0.00000  Uiso   1.00
C3     C     0.49909   0.21572   0.79315   0.00000  Uiso   1.00
C4     C     0.46874   0.27112   0.84120   0.00000  Uiso   1.00
C5     C     0.43902   0.38397   0.91047   0.00000  Uiso   1.00
C6     C     0.51169   0.99150   0.78853   0.00000  Uiso   1.00
C7     C     0.57676   0.94966   0.79158   0.00000  Uiso   1.00
C8     C     0.58192   0.88338   0.83892   0.00000  Uiso   1.00
C9     C     0.61769   0.77179   0.90683   0.00000  Uiso   1.00
C10    C     0.42877   0.03975   0.69778   0.00000  Uiso   1.00
C11    C     0.42412   0.03846   0.62453   0.00000  Uiso   1.00
C12    C     0.35947   0.01278   0.59546   0.00000  Uiso   1.00
C13    C     0.26650   0.97611   0.52248   0.00000  Uiso   1.00
C14    C     0.38778   0.02234   0.81923   0.00000  Uiso   1.00
C15    C     0.41163   0.11251   0.83208   0.00000  Uiso   1.00
C16    C     0.38122   0.16780   0.88014   0.00000  Uiso   1.00
C17    C     0.41076   0.24756   0.88399   0.00000  Uiso   1.00
C18    C     0.45382   0.96797   0.83124   0.00000  Uiso   1.00
C19    C     0.45889   0.90174   0.87858   0.00000  Uiso   1.00
C20    C     0.52395   0.85981   0.88170   0.00000  Uiso   1.00
C21    C     0.37090   0.01623   0.74049   0.00000  Uiso   1.00
C22    C     0.30625   0.99054   0.71153   0.00000  Uiso   1.00
C23    C     0.30150   0.98921   0.63825   0.00000  Uiso   1.00
H24    H     0.53937   0.08397   0.70735   0.00000  Uiso   1.00
H25    H     0.54387   0.23390   0.76009   0.00000  Uiso   1.00
H26    H     0.62153   0.96787   0.75851   0.00000  Uiso   1.00
H27    H     0.46891   0.05667   0.59149   0.00000  Uiso   1.00
H28    H     0.52337   0.38974   0.83742   0.00000  Uiso   1.00
H29    H     0.68709   0.82879   0.83408   0.00000  Uiso   1.00
H30    H     0.36527   0.01602   0.48188   0.00000  Uiso   1.00
H31    H     0.34273   0.00403   0.85248   0.00000  Uiso   1.00
H32    H     0.33644   0.14958   0.91319   0.00000  Uiso   1.00
H33    H     0.41410   0.88355   0.91162   0.00000  Uiso   1.00
H34    H     0.26148   0.97234   0.74460   0.00000  Uiso   1.00
H35    H     0.35501   0.32130   0.96168   0.00000  Uiso   1.00
H36    H     0.51874   0.76034   0.95835   0.00000  Uiso   1.00
H37    H     0.19692   0.94758   0.60615   0.00000  Uiso   1.00
O38    O     0.43862   0.45270   0.93688   0.00000  Uiso   1.00
O39    O     0.65342   0.71674   0.93250   0.00000  Uiso   1.00
O40    O     0.23120   0.96239   0.47042   0.00000  Uiso   1.00
N41    N     0.48460   0.35367   0.85832   0.00000  Uiso   1.00
N42    N     0.63768   0.82922   0.85521   0.00000  Uiso   1.00
N43    N     0.33681   0.00424   0.52594   0.00000  Uiso   1.00
N44    N     0.39400   0.31684   0.92519   0.00000  Uiso   1.00
N45    N     0.54709   0.79239   0.92208   0.00000  Uiso   1.00
N46    N     0.24622   0.96741   0.59280   0.00000  Uiso   1.00
C47    C     0.00569   0.93434   0.24060   0.00000  Uiso   1.00
C48    C     0.03051   0.86396   0.28937   0.00000  Uiso   1.00
C49    C     0.00091   0.78428   0.29315   0.00000  Uiso   1.00
C50    C     0.03126   0.72888   0.34120   0.00000  Uiso   1.00
C51    C     0.06098   0.61603   0.41047   0.00000  Uiso   1.00
C52    C     0.98831   0.00850   0.28853   0.00000  Uiso   1.00
C53    C     0.92324   0.05034   0.29158   0.00000  Uiso   1.00
C54    C     0.91808   0.11662   0.33892   0.00000  Uiso   1.00
C55    C     0.88231   0.22821   0.40683   0.00000  Uiso   1.00
C56    C     0.07123   0.96025   0.19778   0.00000  Uiso   1.00
C57    C     0.07588   0.96154   0.12453   0.00000  Uiso   1.00
C58    C     0.14053   0.98722   0.09546   0.00000  Uiso   1.00
C59    C     0.23350   0.02389   0.02248   0.00000  Uiso   1.00
C60    C     0.11222   0.97766   0.31923   0.00000  Uiso   1.00
C61    C     0.08837   0.88749   0.33208   0.00000  Uiso   1.00
C62    C     0.11878   0.83220   0.38014   0.00000  Uiso   1.00
C63    C     0.08924   0.75244   0.38399   0.00000  Uiso   1.00
C64    C     0.04618   0.03203   0.33124   0.00000  Uiso   1.00
C65    C     0.04111   0.09826   0.37858   0.00000  Uiso   1.00
C66    C     0.97605   0.14019   0.38170   0.00000  Uiso   1.00
C67    C     0.12910   0.98377   0.24049   0.00000  Uiso   1.00
C68    C     0.19375   0.00946   0.21153   0.00000  Uiso   1.00
C69    C     0.19850   0.01079   0.13825   0.00000  Uiso   1.00
H70    H     0.96063   0.91603   0.20735   0.00000  Uiso   1.00
H71    H     0.95613   0.76610   0.26009   0.00000  Uiso   1.00
H72    H     0.87847   0.03213   0.25851   0.00000  Uiso   1.00
H73    H     0.03109   0.94333   0.09149   0.00000  Uiso   1.00
H74    H     0.97663   0.61026   0.33742   0.00000  Uiso   1.00
H75    H     0.81291   0.17121   0.33408   0.00000  Uiso   1.00
H76    H     0.13473   0.98398   0.98188   0.00000  Uiso   1.00
H77    H     0.15727   0.99597   0.35248   0.00000  Uiso   1.00
H78    H     0.16356   0.85042   0.41319   0.00000  Uiso   1.00
H79    H     0.08590   0.11645   0.41162   0.00000  Uiso   1.00
H80    H     0.23852   0.02766   0.24460   0.00000  Uiso   1.00
H81    H     0.14499   0.67870   0.46168   0.00000  Uiso   1.00
H82    H     0.98126   0.23966   0.45835   0.00000  Uiso   1.00
H83    H     0.30308   0.05242   0.10615   0.00000  Uiso   1.00
O84    O     0.06138   0.54730   0.43688   0.00000  Uiso   1.00
O85    O     0.84658   0.28326   0.43250   0.00000  Uiso   1.00
O86    O     0.26880   0.03761   0.97042   0.00000  Uiso   1.00
N87    N     0.01540   0.64633   0.35832   0.00000  Uiso   1.00
N88    N     0.86232   0.17078   0.35521   0.00000  Uiso   1.00
N89    N     0.16319   0.99576   0.02594   0.00000  Uiso   1.00
N90    N     0.10600   0.68316   0.42519   0.00000  Uiso   1.00
N91    N     0.95291   0.20761   0.42208   0.00000  Uiso   1.00
N92    N     0.25378   0.03259   0.09280   0.00000  Uiso   1.00
C93    C     0.50569   0.56566   0.75940   0.00000  Uiso   1.00
C94    C     0.53051   0.63604   0.71063   0.00000  Uiso   1.00
C95    C     0.50091   0.71572   0.70685   0.00000  Uiso   1.00
C96    C     0.53126   0.77112   0.65880   0.00000  Uiso   1.00
C97    C     0.56098   0.88397   0.58953   0.00000  Uiso   1.00
C98    C     0.48831   0.49150   0.71147   0.00000  Uiso   1.00
C99    C     0.42324   0.44966   0.70842   0.00000  Uiso   1.00
C100   C     0.41808   0.38338   0.66108   0.00000  Uiso   1.00
C101   C     0.38231   0.27179   0.59317   0.00000  Uiso   1.00
C102   C     0.57123   0.53975   0.80222   0.00000  Uiso   1.00
C103   C     0.57588   0.53846   0.87547   0.00000  Uiso   1.00
C104   C     0.64053   0.51278   0.90454   0.00000  Uiso   1.00
C105   C     0.73350   0.47611   0.97752   0.00000  Uiso   1.00
C106   C     0.61222   0.52234   0.68077   0.00000  Uiso   1.00
C107   C     0.58837   0.61251   0.66792   0.00000  Uiso   1.00
C108   C     0.61878   0.66780   0.61986   0.00000  Uiso   1.00
C109   C     0.58924   0.74756   0.61601   0.00000  Uiso   1.00
C110   C     0.54618   0.46797   0.66876   0.00000  Uiso   1.00
C111   C     0.54111   0.40174   0.62142   0.00000  Uiso   1.00
C112   C     0.47605   0.35981   0.61830   0.00000  Uiso   1.00
C113   C     0.62910   0.51623   0.75951   0.00000  Uiso   1.00
C114   C     0.69375   0.49054   0.78847   0.00000  Uiso   1.00
C115   C     0.69850   0.48921   0.86175   0.00000  Uiso   1.00
H116   H     0.46063   0.58397   0.79265   0.00000  Uiso   1.00
H117   H     0.45613   0.73390   0.73991   0.00000  Uiso   1.00
H118   H     0.37847   0.46787   0.74149   0.00000  Uiso   1.00
H119   H     0.53109   0.55667   0.90851   0.00000  Uiso   1.00
H120   H     0.47663   0.88974   0.66258   0.00000  Uiso   1.00
H121   H     0.31291   0.32879   0.66592   0.00000  Uiso   1.00
H122   H     0.63473   0.51602   0.01812   0.00000  Uiso   1.00
H123   H     0.65727   0.50403   0.64752   0.00000  Uiso   1.00
H124   H     0.66356   0.64958   0.58681   0.00000  Uiso   1.00
H125   H     0.58590   0.38355   0.58838   0.00000  Uiso   1.00
H126   H     0.73852   0.47234   0.75540   0.00000  Uiso   1.00
H127   H     0.64499   0.82130   0.53832   0.00000  Uiso   1.00
H128   H     0.48126   0.26034   0.54165   0.00000  Uiso   1.00
H129   H     0.80308   0.44758   0.89385   0.00000  Uiso   1.00
O130   O     0.56138   0.95270   0.56312   0.00000  Uiso   1.00
O131   O     0.34658   0.21674   0.56750   0.00000  Uiso   1.00
O132   O     0.76880   0.46239   0.02958   0.00000  Uiso   1.00
N133   N     0.51540   0.85367   0.64168   0.00000  Uiso   1.00
N134   N     0.36232   0.32922   0.64479   0.00000  Uiso   1.00
N135   N     0.66319   0.50424   0.97406   0.00000  Uiso   1.00
N136   N     0.60600   0.81684   0.57481   0.00000  Uiso   1.00
N137   N     0.45291   0.29239   0.57792   0.00000  Uiso   1.00
N138   N     0.75378   0.46741   0.90720   0.00000  Uiso   1.00
C139   C     0.99431   0.43434   0.25940   0.00000  Uiso   1.00
C140   C     0.96949   0.36396   0.21063   0.00000  Uiso   1.00
C141   C     0.99909   0.28428   0.20685   0.00000  Uiso   1.00
C142   C     0.96874   0.22888   0.15880   0.00000  Uiso   1.00
C143   C     0.93902   0.11603   0.08953   0.00000  Uiso   1.00
C144   C     0.01169   0.50850   0.21147   0.00000  Uiso   1.00
C145   C     0.07676   0.55034   0.20842   0.00000  Uiso   1.00
C146   C     0.08192   0.61662   0.16108   0.00000  Uiso   1.00
C147   C     0.11769   0.72821   0.09317   0.00000  Uiso   1.00
C148   C     0.92877   0.46025   0.30222   0.00000  Uiso   1.00
C149   C     0.92412   0.46154   0.37547   0.00000  Uiso   1.00
C150   C     0.85947   0.48722   0.40454   0.00000  Uiso   1.00
C151   C     0.76650   0.52389   0.47752   0.00000  Uiso   1.00
C152   C     0.88778   0.47766   0.18077   0.00000  Uiso   1.00
C153   C     0.91163   0.38749   0.16792   0.00000  Uiso   1.00
C154   C     0.88122   0.33220   0.11986   0.00000  Uiso   1.00
C155   C     0.91076   0.25244   0.11601   0.00000  Uiso   1.00
C156   C     0.95382   0.53203   0.16876   0.00000  Uiso   1.00
C157   C     0.95889   0.59826   0.12142   0.00000  Uiso   1.00
C158   C     0.02395   0.64019   0.11830   0.00000  Uiso   1.00
C159   C     0.87090   0.48377   0.25951   0.00000  Uiso   1.00
C160   C     0.80625   0.50946   0.28847   0.00000  Uiso   1.00
C161   C     0.80150   0.51079   0.36175   0.00000  Uiso   1.00
H162   H     0.03937   0.41603   0.29265   0.00000  Uiso   1.00
H163   H     0.04387   0.26610   0.23991   0.00000  Uiso   1.00
H164   H     0.12153   0.53213   0.24149   0.00000  Uiso   1.00
H165   H     0.96891   0.44333   0.40851   0.00000  Uiso   1.00
H166   H     0.02337   0.11026   0.16258   0.00000  Uiso   1.00
H167   H     0.18709   0.67121   0.16592   0.00000  Uiso   1.00
H168   H     0.86527   0.48398   0.51812   0.00000  Uiso   1.00
H169   H     0.84273   0.49597   0.14752   0.00000  Uiso   1.00
H170   H     0.83644   0.35042   0.08681   0.00000  Uiso   1.00
H171   H     0.91410   0.61645   0.08838   0.00000  Uiso   1.00
H172   H     0.76148   0.52766   0.25540   0.00000  Uiso   1.00
H173   H     0.85501   0.17870   0.03832   0.00000  Uiso   1.00
H174   H     0.01874   0.73966   0.04165   0.00000  Uiso   1.00
H175   H     0.69692   0.55242   0.39385   0.00000  Uiso   1.00
O176   O     0.93862   0.04730   0.06312   0.00000  Uiso   1.00
O177   O     0.15342   0.78326   0.06750   0.00000  Uiso   1.00
O178   O     0.73120   0.53761   0.52958   0.00000  Uiso   1.00
N179   N     0.98460   0.14633   0.14168   0.00000  Uiso   1.00
N180   N     0.13768   0.67078   0.14479   0.00000  Uiso   1.00
N181   N     0.83681   0.49576   0.47406   0.00000  Uiso   1.00
N182   N     0.89400   0.18316   0.07481   0.00000  Uiso   1.00
N183   N     0.04709   0.70761   0.07792   0.00000  Uiso   1.00
N184   N     0.74622   0.53259   0.40720   0.00000  Uiso   1.00
C185   C     0.50569   0.93434   0.25940   0.00000  Uiso   1.00
C186   C     0.53051   0.86396   0.21063   0.00000  Uiso   1.00
C187   C     0.50091   0.78428   0.20685   0.00000  Uiso   1.00
C188   C     0.53126   0.72888   0.15880   0.00000  Uiso   1.00
C189   C     0.56098   0.61603   0.08953   0.00000  Uiso   1.00
C190   C     0.48831   0.00850   0.21147   0.00000  Uiso   1.00
C191   C     0.42324   0.05034   0.20842   0.00000  Uiso   1.00
C192   C     0.41808   0.11662   0.16108   0.00000  Uiso   1.00
C193   C     0.38231   0.22821   0.09317   0.00000  Uiso   1.00
C194   C     0.57123   0.96025   0.30222   0.00000  Uiso   1.00
C195   C     0.57588   0.96154   0.37547   0.00000  Uiso   1.00
C196   C     0.64053   0.98722   0.40454   0.00000  Uiso   1.00
C197   C     0.73350   0.02389   0.47752   0.00000  Uiso   1.00
C198   C     0.61222   0.97766   0.18077   0.00000  Uiso   1.00
C199   C     0.58837   0.88749   0.16792   0.00000  Uiso   1.00
C200   C     0.61878   0.83220   0.11986   0.00000  Uiso   1.00
C201   C     0.58924   0.75244   0.11601   0.00000  Uiso   1.00
C202   C     0.54618   0.03203   0.16876   0.00000  Uiso   1.00
C203   C     0.54111   0.09826   0.12142   0.00000  Uiso   1.00
C204   C     0.47605   0.14019   0.11830   0.00000  Uiso   1.00
C205   C     0.62910   0.98377   0.25951   0.00000  Uiso   1.00
C206   C     0.69375   0.00946   0.28847   0.00000  Uiso   1.00
C207   C     0.69850   0.01079   0.36175   0.00000  Uiso   1.00
H208   H     0.46063   0.91603   0.29265   0.00000  Uiso   1.00
H209   H     0.45613   0.76610   0.23991   0.00000  Uiso   1.00
H210   H     0.37847   0.03213   0.24149   0.00000  Uiso   1.00
H211   H     0.53109   0.94333   0.40851   0.00000  Uiso   1.00
H212   H     0.47663   0.61026   0.16258   0.00000  Uiso   1.00
H213   H     0.31291   0.17121   0.16592   0.00000  Uiso   1.00
H214   H     0.63473   0.98398   0.51812   0.00000  Uiso   1.00
H215   H     0.65727   0.99597   0.14752   0.00000  Uiso   1.00
H216   H     0.66356   0.85042   0.08681   0.00000  Uiso   1.00
H217   H     0.58590   0.11645   0.08838   0.00000  Uiso   1.00
H218   H     0.73852   0.02766   0.25540   0.00000  Uiso   1.00
H219   H     0.64499   0.67870   0.03832   0.00000  Uiso   1.00
H220   H     0.48126   0.23966   0.04165   0.00000  Uiso   1.00
H221   H     0.80308   0.05242   0.39385   0.00000  Uiso   1.00
O222   O     0.56138   0.54730   0.06312   0.00000  Uiso   1.00
O223   O     0.34658   0.28326   0.06750   0.00000  Uiso   1.00
O224   O     0.76880   0.03761   0.52958   0.00000  Uiso   1.00
N225   N     0.51540   0.64633   0.14168   0.00000  Uiso   1.00
N226   N     0.36232   0.17078   0.14479   0.00000  Uiso   1.00
N227   N     0.66319   0.99576   0.47406   0.00000  Uiso   1.00
N228   N     0.60600   0.68316   0.07481   0.00000  Uiso   1.00
N229   N     0.45291   0.20761   0.07792   0.00000  Uiso   1.00
N230   N     0.75378   0.03259   0.40720   0.00000  Uiso   1.00
C231   C     0.99431   0.06566   0.75940   0.00000  Uiso   1.00
C232   C     0.96949   0.13604   0.71063   0.00000  Uiso   1.00
C233   C     0.99909   0.21572   0.70685   0.00000  Uiso   1.00
C234   C     0.96874   0.27112   0.65880   0.00000  Uiso   1.00
C235   C     0.93902   0.38397   0.58953   0.00000  Uiso   1.00
C236   C     0.01169   0.99150   0.71147   0.00000  Uiso   1.00
C237   C     0.07676   0.94966   0.70842   0.00000  Uiso   1.00
C238   C     0.08192   0.88338   0.66108   0.00000  Uiso   1.00
C239   C     0.11769   0.77179   0.59317   0.00000  Uiso   1.00
C240   C     0.92877   0.03975   0.80222   0.00000  Uiso   1.00
C241   C     0.92412   0.03846   0.87547   0.00000  Uiso   1.00
C242   C     0.85947   0.01278   0.90454   0.00000  Uiso   1.00
C243   C     0.76650   0.97611   0.97752   0.00000  Uiso   1.00
C244   C     0.88778   0.02234   0.68077   0.00000  Uiso   1.00
C245   C     0.91163   0.11251   0.66792   0.00000  Uiso   1.00
C246   C     0.88122   0.16780   0.61986   0.00000  Uiso   1.00
C247   C     0.91076   0.24756   0.61601   0.00000  Uiso   1.00
C248   C     0.95382   0.96797   0.66876   0.00000  Uiso   1.00
C249   C     0.95889   0.90174   0.62142   0.00000  Uiso   1.00
C250   C     0.02395   0.85981   0.61830   0.00000  Uiso   1.00
C251   C     0.87090   0.01623   0.75951   0.00000  Uiso   1.00
C252   C     0.80625   0.99054   0.78847   0.00000  Uiso   1.00
C253   C     0.80150   0.98921   0.86175   0.00000  Uiso   1.00
H254   H     0.03937   0.08397   0.79265   0.00000  Uiso   1.00
H255   H     0.04387   0.23390   0.73991   0.00000  Uiso   1.00
H256   H     0.12153   0.96787   0.74149   0.00000  Uiso   1.00
H257   H     0.96891   0.05667   0.90851   0.00000  Uiso   1.00
H258   H     0.02337   0.38974   0.66258   0.00000  Uiso   1.00
H259   H     0.18709   0.82879   0.66592   0.00000  Uiso   1.00
H260   H     0.86527   0.01602   0.01812   0.00000  Uiso   1.00
H261   H     0.84273   0.00403   0.64752   0.00000  Uiso   1.00
H262   H     0.83644   0.14958   0.58681   0.00000  Uiso   1.00
H263   H     0.91410   0.88355   0.58838   0.00000  Uiso   1.00
H264   H     0.76148   0.97234   0.75540   0.00000  Uiso   1.00
H265   H     0.85501   0.32130   0.53832   0.00000  Uiso   1.00
H266   H     0.01874   0.76034   0.54165   0.00000  Uiso   1.00
H267   H     0.69692   0.94758   0.89385   0.00000  Uiso   1.00
O268   O     0.93862   0.45270   0.56312   0.00000  Uiso   1.00
O269   O     0.15342   0.71674   0.56750   0.00000  Uiso   1.00
O270   O     0.73120   0.96239   0.02958   0.00000  Uiso   1.00
N271   N     0.98460   0.35367   0.64168   0.00000  Uiso   1.00
N272   N     0.13768   0.82922   0.64479   0.00000  Uiso   1.00
N273   N     0.83681   0.00424   0.97406   0.00000  Uiso   1.00
N274   N     0.89400   0.31684   0.57481   0.00000  Uiso   1.00
N275   N     0.04709   0.79239   0.57792   0.00000  Uiso   1.00
N276   N     0.74622   0.96741   0.90720   0.00000  Uiso   1.00
C277   C     0.49431   0.43434   0.24060   0.00000  Uiso   1.00
C278   C     0.46949   0.36396   0.28937   0.00000  Uiso   1.00
C279   C     0.49909   0.28428   0.29315   0.00000  Uiso   1.00
C280   C     0.46874   0.22888   0.34120   0.00000  Uiso   1.00
C281   C     0.43902   0.11603   0.41047   0.00000  Uiso   1.00
C282   C     0.51169   0.50850   0.28853   0.00000  Uiso   1.00
C283   C     0.57676   0.55034   0.29158   0.00000  Uiso   1.00
C284   C     0.58192   0.61662   0.33892   0.00000  Uiso   1.00
C285   C     0.61769   0.72821   0.40683   0.00000  Uiso   1.00
C286   C     0.42877   0.46025   0.19778   0.00000  Uiso   1.00
C287   C     0.42412   0.46154   0.12453   0.00000  Uiso   1.00
C288   C     0.35947   0.48722   0.09546   0.00000  Uiso   1.00
C289   C     0.26650   0.52389   0.02248   0.00000  Uiso   1.00
C290   C     0.38778   0.47766   0.31923   0.00000  Uiso   1.00
C291   C     0.41163   0.38749   0.33208   0.00000  Uiso   1.00
C292   C     0.38122   0.33220   0.38014   0.00000  Uiso   1.00
C293   C     0.41076   0.25244   0.38399   0.00000  Uiso   1.00
C294   C     0.45382   0.53203   0.33124   0.00000  Uiso   1.00
C295   C     0.45889   0.59826   0.37858   0.00000  Uiso   1.00
C296   C     0.52395   0.64019   0.38170   0.00000  Uiso   1.00
C297   C     0.37090   0.48377   0.24049   0.00000  Uiso   1.00
C298   C     0.30625   0.50946   0.21153   0.00000  Uiso   1.00
C299   C     0.30150   0.51079   0.13825   0.00000  Uiso   1.00
H300   H     0.53937   0.41603   0.20735   0.00000  Uiso   1.00
H301   H     0.54387   0.26610   0.26009   0.00000  Uiso   1.00
H302   H     0.62153   0.53213   0.25851   0.00000  Uiso   1.00
H303   H     0.46891   0.44333   0.09149   0.00000  Uiso   1.00
H304   H     0.52337   0.11026   0.33742   0.00000  Uiso   1.00
H305   H     0.68709   0.67121   0.33408   0.00000  Uiso   1.00
H306   H     0.36527   0.48398   0.98188   0.00000  Uiso   1.00
H307   H     0.34273   0.49597   0.35248   0.00000  Uiso   1.00
H308   H     0.33644   0.35042   0.41319   0.00000  Uiso   1.00
H309   H     0.41410   0.61645   0.41162   0.00000  Uiso   1.00
H310   H     0.26148   0.52766   0.24460   0.00000  Uiso   1.00
H311   H     0.35501   0.17870   0.46168   0.00000  Uiso   1.00
H312   H     0.51874   0.73966   0.45835   0.00000  Uiso   1.00
H313   H     0.19692   0.55242   0.10615   0.00000  Uiso   1.00
O314   O     0.43862   0.04730   0.43688   0.00000  Uiso   1.00
O315   O     0.65342   0.78326   0.43250   0.00000  Uiso   1.00
O316   O     0.23120   0.53761   0.97042   0.00000  Uiso   1.00
N317   N     0.48460   0.14633   0.35832   0.00000  Uiso   1.00
N318   N     0.63768   0.67078   0.35521   0.00000  Uiso   1.00
N319   N     0.33681   0.49576   0.02594   0.00000  Uiso   1.00
N320   N     0.39400   0.18316   0.42519   0.00000  Uiso   1.00
N321   N     0.54709   0.70761   0.42208   0.00000  Uiso   1.00
N322   N     0.24622   0.53259   0.09280   0.00000  Uiso   1.00
C323   C     0.00569   0.56566   0.74060   0.00000  Uiso   1.00
C324   C     0.03051   0.63604   0.78937   0.00000  Uiso   1.00
C325   C     0.00091   0.71572   0.79315   0.00000  Uiso   1.00
C326   C     0.03126   0.77112   0.84120   0.00000  Uiso   1.00
C327   C     0.06098   0.88397   0.91047   0.00000  Uiso   1.00
C328   C     0.98831   0.49150   0.78853   0.00000  Uiso   1.00
C329   C     0.92324   0.44966   0.79158   0.00000  Uiso   1.00
C330   C     0.91808   0.38338   0.83892   0.00000  Uiso   1.00
C331   C     0.88231   0.27179   0.90683   0.00000  Uiso   1.00
C332   C     0.07123   0.53975   0.69778   0.00000  Uiso   1.00
C333   C     0.07588   0.53846   0.62453   0.00000  Uiso   1.00
C334   C     0.14053   0.51278   0.59546   0.00000  Uiso   1.00
C335   C     0.23350   0.47611   0.52248   0.00000  Uiso   1.00
C336   C     0.11222   0.52234   0.81923   0.00000  Uiso   1.00
C337   C     0.08837   0.61251   0.83208   0.00000  Uiso   1.00
C338   C     0.11878   0.66780   0.88014   0.00000  Uiso   1.00
C339   C     0.08924   0.74756   0.88399   0.00000  Uiso   1.00
C340   C     0.04618   0.46797   0.83124   0.00000  Uiso   1.00
C341   C     0.04111   0.40174   0.87858   0.00000  Uiso   1.00
C342   C     0.97605   0.35981   0.88170   0.00000  Uiso   1.00
C343   C     0.12910   0.51623   0.74049   0.00000  Uiso   1.00
C344   C     0.19375   0.49054   0.71153   0.00000  Uiso   1.00
C345   C     0.19850   0.48921   0.63825   0.00000  Uiso   1.00
H346   H     0.96063   0.58397   0.70735   0.00000  Uiso   1.00
H347   H     0.95613   0.73390   0.76009   0.00000  Uiso   1.00
H348   H     0.87847   0.46787   0.75851   0.00000  Uiso   1.00
H349   H     0.03109   0.55667   0.59149   0.00000  Uiso   1.00
H350   H     0.97663   0.88974   0.83742   0.00000  Uiso   1.00
H351   H     0.81291   0.32879   0.83408   0.00000  Uiso   1.00
H352   H     0.13473   0.51602   0.48188   0.00000  Uiso   1.00
H353   H     0.15727   0.50403   0.85248   0.00000  Uiso   1.00
H354   H     0.16356   0.64958   0.91319   0.00000  Uiso   1.00
H355   H     0.08590   0.38355   0.91162   0.00000  Uiso   1.00
H356   H     0.23852   0.47234   0.74460   0.00000  Uiso   1.00
H357   H     0.14499   0.82130   0.96168   0.00000  Uiso   1.00
H358   H     0.98126   0.26034   0.95835   0.00000  Uiso   1.00
H359   H     0.30308   0.44758   0.60615   0.00000  Uiso   1.00
O360   O     0.06138   0.95270   0.93688   0.00000  Uiso   1.00
O361   O     0.84658   0.21674   0.93250   0.00000  Uiso   1.00
O362   O     0.26880   0.46239   0.47042   0.00000  Uiso   1.00
N363   N     0.01540   0.85367   0.85832   0.00000  Uiso   1.00
N364   N     0.86232   0.32922   0.85521   0.00000  Uiso   1.00
N365   N     0.16319   0.50424   0.52594   0.00000  Uiso   1.00
N366   N     0.10600   0.81684   0.92519   0.00000  Uiso   1.00
N367   N     0.95291   0.29239   0.92208   0.00000  Uiso   1.00
N368   N     0.25378   0.46741   0.59280   0.00000  Uiso   1.00
