data_job_03886
_audit_creation_date              2018-12-19
_audit_creation_method            'Materials Studio'
_symmetry_space_group_name_H-M    'P1'
_symmetry_Int_Tables_number       1
_symmetry_cell_setting            triclinic
loop_
_symmetry_equiv_pos_as_xyz
  x,y,z
_cell_length_a                    21.1747
_cell_length_b                    21.1747
_cell_length_c                    11.8137
_cell_angle_alpha                 90.0000
_cell_angle_beta                  90.0000
_cell_angle_gamma                 90.0000
loop_
_atom_site_label
_atom_site_type_symbol
_atom_site_fract_x
_atom_site_fract_y
_atom_site_fract_z
_atom_site_U_iso_or_equiv
_atom_site_adp_type
_atom_site_occupancy
C1     C     0.63594   0.40965   0.10291   0.00000  Uiso   1.00
C2     C     0.63213   0.42829   0.97841   0.00000  Uiso   1.00
C3     C     0.58830   0.40593   0.90083   0.00000  Uiso   1.00
C4     C     0.59272   0.42874   0.79093   0.00000  Uiso   1.00
C5     C     0.57973   0.45102   0.60233   0.00000  Uiso   1.00
C6     C     0.70268   0.38460   0.12126   0.00000  Uiso   1.00
C7     C     0.71816   0.32550   0.16380   0.00000  Uiso   1.00
C8     C     0.78196   0.31154   0.17417   0.00000  Uiso   1.00
C9     C     0.87850   0.26600   0.20743   0.00000  Uiso   1.00
C10    C     0.63181   0.47109   0.16985   0.00000  Uiso   1.00
C11    C     0.58772   0.48471   0.25326   0.00000  Uiso   1.00
C12    C     0.59187   0.54356   0.30455   0.00000  Uiso   1.00
C13    C     0.57838   0.63231   0.41325   0.00000  Uiso   1.00
C14    C     0.72174   0.48995   0.04570   0.00000  Uiso   1.00
C15    C     0.67874   0.47190   0.94734   0.00000  Uiso   1.00
C16    C     0.68322   0.49476   0.83754   0.00000  Uiso   1.00
C17    C     0.63940   0.47243   0.75980   0.00000  Uiso   1.00
C18    C     0.74928   0.42821   0.09019   0.00000  Uiso   1.00
C19    C     0.81308   0.41433   0.10051   0.00000  Uiso   1.00
C20    C     0.82865   0.35523   0.14305   0.00000  Uiso   1.00
C21    C     0.67841   0.51470   0.13877   0.00000  Uiso   1.00
C22    C     0.68264   0.57354   0.18996   0.00000  Uiso   1.00
C23    C     0.63855   0.58725   0.27343   0.00000  Uiso   1.00
H24    H     0.59967   0.37570   0.12710   0.00000  Uiso   1.00
H25    H     0.55225   0.37217   0.92491   0.00000  Uiso   1.00
H26    H     0.68209   0.29176   0.18785   0.00000  Uiso   1.00
H27    H     0.55166   0.45094   0.27728   0.00000  Uiso   1.00
H28    H     0.52024   0.38747   0.68702   0.00000  Uiso   1.00
H29    H     0.79401   0.21793   0.24149   0.00000  Uiso   1.00
H30    H     0.51899   0.55360   0.43008   0.00000  Uiso   1.00
H31    H     0.75802   0.52390   0.02151   0.00000  Uiso   1.00
H32    H     0.71929   0.52851   0.81352   0.00000  Uiso   1.00
H33    H     0.84912   0.44810   0.07646   0.00000  Uiso   1.00
H34    H     0.71870   0.60728   0.16589   0.00000  Uiso   1.00
H35    H     0.65582   0.51436   0.59661   0.00000  Uiso   1.00
H36    H     0.92958   0.34482   0.15109   0.00000  Uiso   1.00
H37    H     0.65457   0.68049   0.33967   0.00000  Uiso   1.00
O38    O     0.55970   0.45126   0.50689   0.00000  Uiso   1.00
O39    O     0.91887   0.22883   0.23435   0.00000  Uiso   1.00
O40    O     0.55806   0.66922   0.48177   0.00000  Uiso   1.00
N41    N     0.55745   0.41672   0.69429   0.00000  Uiso   1.00
N42    N     0.81341   0.25820   0.21267   0.00000  Uiso   1.00
N43    N     0.55630   0.57202   0.38901   0.00000  Uiso   1.00
N44    N     0.63041   0.48499   0.64564   0.00000  Uiso   1.00
N45    N     0.88636   0.32648   0.16402   0.00000  Uiso   1.00
N46    N     0.62926   0.64029   0.34036   0.00000  Uiso   1.00
C47    C     0.13594   0.90965   0.60291   0.00000  Uiso   1.00
C48    C     0.13213   0.92829   0.47841   0.00000  Uiso   1.00
C49    C     0.08830   0.90593   0.40083   0.00000  Uiso   1.00
C50    C     0.09272   0.92874   0.29093   0.00000  Uiso   1.00
C51    C     0.07973   0.95102   0.10233   0.00000  Uiso   1.00
C52    C     0.20268   0.88460   0.62126   0.00000  Uiso   1.00
C53    C     0.21816   0.82550   0.66380   0.00000  Uiso   1.00
C54    C     0.28196   0.81154   0.67417   0.00000  Uiso   1.00
C55    C     0.37850   0.76600   0.70743   0.00000  Uiso   1.00
C56    C     0.13181   0.97109   0.66985   0.00000  Uiso   1.00
C57    C     0.08772   0.98471   0.75326   0.00000  Uiso   1.00
C58    C     0.09187   0.04356   0.80455   0.00000  Uiso   1.00
C59    C     0.07838   0.13231   0.91325   0.00000  Uiso   1.00
C60    C     0.22174   0.98995   0.54570   0.00000  Uiso   1.00
C61    C     0.17874   0.97190   0.44734   0.00000  Uiso   1.00
C62    C     0.18322   0.99476   0.33754   0.00000  Uiso   1.00
C63    C     0.13940   0.97243   0.25980   0.00000  Uiso   1.00
C64    C     0.24928   0.92821   0.59019   0.00000  Uiso   1.00
C65    C     0.31308   0.91433   0.60051   0.00000  Uiso   1.00
C66    C     0.32865   0.85523   0.64305   0.00000  Uiso   1.00
C67    C     0.17841   0.01470   0.63877   0.00000  Uiso   1.00
C68    C     0.18264   0.07354   0.68996   0.00000  Uiso   1.00
C69    C     0.13855   0.08725   0.77343   0.00000  Uiso   1.00
H70    H     0.09967   0.87570   0.62710   0.00000  Uiso   1.00
H71    H     0.05225   0.87217   0.42491   0.00000  Uiso   1.00
H72    H     0.18209   0.79176   0.68785   0.00000  Uiso   1.00
H73    H     0.05166   0.95094   0.77728   0.00000  Uiso   1.00
H74    H     0.02024   0.88747   0.18702   0.00000  Uiso   1.00
H75    H     0.29401   0.71793   0.74149   0.00000  Uiso   1.00
H76    H     0.01899   0.05360   0.93008   0.00000  Uiso   1.00
H77    H     0.25802   0.02390   0.52151   0.00000  Uiso   1.00
H78    H     0.21929   0.02851   0.31352   0.00000  Uiso   1.00
H79    H     0.34912   0.94810   0.57646   0.00000  Uiso   1.00
H80    H     0.21870   0.10728   0.66589   0.00000  Uiso   1.00
H81    H     0.15582   0.01436   0.09661   0.00000  Uiso   1.00
H82    H     0.42958   0.84482   0.65109   0.00000  Uiso   1.00
H83    H     0.15457   0.18049   0.83967   0.00000  Uiso   1.00
O84    O     0.05970   0.95126   0.00689   0.00000  Uiso   1.00
O85    O     0.41887   0.72883   0.73435   0.00000  Uiso   1.00
O86    O     0.05806   0.16922   0.98177   0.00000  Uiso   1.00
N87    N     0.05745   0.91672   0.19429   0.00000  Uiso   1.00
N88    N     0.31341   0.75820   0.71267   0.00000  Uiso   1.00
N89    N     0.05630   0.07202   0.88901   0.00000  Uiso   1.00
N90    N     0.13041   0.98499   0.14564   0.00000  Uiso   1.00
N91    N     0.38636   0.82648   0.66402   0.00000  Uiso   1.00
N92    N     0.12926   0.14029   0.84036   0.00000  Uiso   1.00
C93    C     0.86406   0.09035   0.60291   0.00000  Uiso   1.00
C94    C     0.86787   0.07171   0.47841   0.00000  Uiso   1.00
C95    C     0.91170   0.09407   0.40083   0.00000  Uiso   1.00
C96    C     0.90728   0.07126   0.29093   0.00000  Uiso   1.00
C97    C     0.92027   0.04898   0.10233   0.00000  Uiso   1.00
C98    C     0.79732   0.11540   0.62126   0.00000  Uiso   1.00
C99    C     0.78184   0.17450   0.66380   0.00000  Uiso   1.00
C100   C     0.71804   0.18846   0.67417   0.00000  Uiso   1.00
C101   C     0.62150   0.23400   0.70743   0.00000  Uiso   1.00
C102   C     0.86819   0.02891   0.66985   0.00000  Uiso   1.00
C103   C     0.91228   0.01529   0.75326   0.00000  Uiso   1.00
C104   C     0.90813   0.95644   0.80455   0.00000  Uiso   1.00
C105   C     0.92162   0.86769   0.91325   0.00000  Uiso   1.00
C106   C     0.77826   0.01005   0.54570   0.00000  Uiso   1.00
C107   C     0.82126   0.02810   0.44734   0.00000  Uiso   1.00
C108   C     0.81678   0.00524   0.33754   0.00000  Uiso   1.00
C109   C     0.86060   0.02757   0.25980   0.00000  Uiso   1.00
C110   C     0.75072   0.07179   0.59019   0.00000  Uiso   1.00
C111   C     0.68692   0.08567   0.60051   0.00000  Uiso   1.00
C112   C     0.67135   0.14477   0.64305   0.00000  Uiso   1.00
C113   C     0.82159   0.98530   0.63877   0.00000  Uiso   1.00
C114   C     0.81736   0.92646   0.68996   0.00000  Uiso   1.00
C115   C     0.86145   0.91275   0.77343   0.00000  Uiso   1.00
H116   H     0.90033   0.12430   0.62710   0.00000  Uiso   1.00
H117   H     0.94775   0.12783   0.42491   0.00000  Uiso   1.00
H118   H     0.81791   0.20824   0.68785   0.00000  Uiso   1.00
H119   H     0.94834   0.04906   0.77728   0.00000  Uiso   1.00
H120   H     0.97976   0.11253   0.18702   0.00000  Uiso   1.00
H121   H     0.70599   0.28207   0.74149   0.00000  Uiso   1.00
H122   H     0.98101   0.94640   0.93008   0.00000  Uiso   1.00
H123   H     0.74198   0.97610   0.52151   0.00000  Uiso   1.00
H124   H     0.78071   0.97149   0.31352   0.00000  Uiso   1.00
H125   H     0.65088   0.05190   0.57646   0.00000  Uiso   1.00
H126   H     0.78130   0.89272   0.66589   0.00000  Uiso   1.00
H127   H     0.84418   0.98564   0.09661   0.00000  Uiso   1.00
H128   H     0.57042   0.15518   0.65109   0.00000  Uiso   1.00
H129   H     0.84543   0.81951   0.83967   0.00000  Uiso   1.00
O130   O     0.94030   0.04874   0.00689   0.00000  Uiso   1.00
O131   O     0.58113   0.27117   0.73435   0.00000  Uiso   1.00
O132   O     0.94194   0.83078   0.98177   0.00000  Uiso   1.00
N133   N     0.94255   0.08328   0.19429   0.00000  Uiso   1.00
N134   N     0.68659   0.24180   0.71267   0.00000  Uiso   1.00
N135   N     0.94370   0.92798   0.88901   0.00000  Uiso   1.00
N136   N     0.86959   0.01501   0.14564   0.00000  Uiso   1.00
N137   N     0.61364   0.17352   0.66402   0.00000  Uiso   1.00
N138   N     0.87074   0.85971   0.84036   0.00000  Uiso   1.00
C139   C     0.36406   0.59035   0.10291   0.00000  Uiso   1.00
C140   C     0.36787   0.57171   0.97841   0.00000  Uiso   1.00
C141   C     0.41170   0.59407   0.90083   0.00000  Uiso   1.00
C142   C     0.40728   0.57126   0.79093   0.00000  Uiso   1.00
C143   C     0.42027   0.54898   0.60233   0.00000  Uiso   1.00
C144   C     0.29732   0.61540   0.12126   0.00000  Uiso   1.00
C145   C     0.28184   0.67450   0.16380   0.00000  Uiso   1.00
C146   C     0.21804   0.68846   0.17417   0.00000  Uiso   1.00
C147   C     0.12150   0.73400   0.20743   0.00000  Uiso   1.00
C148   C     0.36819   0.52891   0.16985   0.00000  Uiso   1.00
C149   C     0.41228   0.51529   0.25326   0.00000  Uiso   1.00
C150   C     0.40813   0.45644   0.30455   0.00000  Uiso   1.00
C151   C     0.42162   0.36769   0.41325   0.00000  Uiso   1.00
C152   C     0.27826   0.51005   0.04570   0.00000  Uiso   1.00
C153   C     0.32126   0.52810   0.94734   0.00000  Uiso   1.00
C154   C     0.31678   0.50524   0.83754   0.00000  Uiso   1.00
C155   C     0.36060   0.52757   0.75980   0.00000  Uiso   1.00
C156   C     0.25072   0.57179   0.09019   0.00000  Uiso   1.00
C157   C     0.18692   0.58567   0.10051   0.00000  Uiso   1.00
C158   C     0.17135   0.64477   0.14305   0.00000  Uiso   1.00
C159   C     0.32159   0.48530   0.13877   0.00000  Uiso   1.00
C160   C     0.31736   0.42646   0.18996   0.00000  Uiso   1.00
C161   C     0.36145   0.41275   0.27343   0.00000  Uiso   1.00
H162   H     0.40033   0.62430   0.12710   0.00000  Uiso   1.00
H163   H     0.44775   0.62783   0.92491   0.00000  Uiso   1.00
H164   H     0.31791   0.70824   0.18785   0.00000  Uiso   1.00
H165   H     0.44834   0.54906   0.27728   0.00000  Uiso   1.00
H166   H     0.47976   0.61253   0.68702   0.00000  Uiso   1.00
H167   H     0.20599   0.78207   0.24149   0.00000  Uiso   1.00
H168   H     0.48101   0.44640   0.43008   0.00000  Uiso   1.00
H169   H     0.24198   0.47610   0.02151   0.00000  Uiso   1.00
H170   H     0.28071   0.47149   0.81352   0.00000  Uiso   1.00
H171   H     0.15088   0.55190   0.07646   0.00000  Uiso   1.00
H172   H     0.28130   0.39272   0.16589   0.00000  Uiso   1.00
H173   H     0.34418   0.48564   0.59661   0.00000  Uiso   1.00
H174   H     0.07042   0.65518   0.15109   0.00000  Uiso   1.00
H175   H     0.34543   0.31951   0.33967   0.00000  Uiso   1.00
O176   O     0.44030   0.54874   0.50689   0.00000  Uiso   1.00
O177   O     0.08113   0.77117   0.23435   0.00000  Uiso   1.00
O178   O     0.44194   0.33078   0.48177   0.00000  Uiso   1.00
N179   N     0.44255   0.58328   0.69429   0.00000  Uiso   1.00
N180   N     0.18659   0.74180   0.21267   0.00000  Uiso   1.00
N181   N     0.44370   0.42798   0.38901   0.00000  Uiso   1.00
N182   N     0.36959   0.51501   0.64564   0.00000  Uiso   1.00
N183   N     0.11364   0.67352   0.16402   0.00000  Uiso   1.00
N184   N     0.37074   0.35971   0.34036   0.00000  Uiso   1.00
C185   C     0.59035   0.13594   0.35291   0.00000  Uiso   1.00
C186   C     0.57171   0.13213   0.22841   0.00000  Uiso   1.00
C187   C     0.59407   0.08830   0.15083   0.00000  Uiso   1.00
C188   C     0.57126   0.09272   0.04093   0.00000  Uiso   1.00
C189   C     0.54898   0.07973   0.85233   0.00000  Uiso   1.00
C190   C     0.61540   0.20268   0.37126   0.00000  Uiso   1.00
C191   C     0.67450   0.21816   0.41380   0.00000  Uiso   1.00
C192   C     0.68846   0.28196   0.42417   0.00000  Uiso   1.00
C193   C     0.73400   0.37850   0.45743   0.00000  Uiso   1.00
C194   C     0.52891   0.13181   0.41985   0.00000  Uiso   1.00
C195   C     0.51529   0.08772   0.50326   0.00000  Uiso   1.00
C196   C     0.45644   0.09187   0.55455   0.00000  Uiso   1.00
C197   C     0.36769   0.07838   0.66325   0.00000  Uiso   1.00
C198   C     0.51005   0.22174   0.29570   0.00000  Uiso   1.00
C199   C     0.52810   0.17874   0.19734   0.00000  Uiso   1.00
C200   C     0.50524   0.18322   0.08754   0.00000  Uiso   1.00
C201   C     0.52757   0.13940   0.00980   0.00000  Uiso   1.00
C202   C     0.57179   0.24928   0.34019   0.00000  Uiso   1.00
C203   C     0.58567   0.31308   0.35051   0.00000  Uiso   1.00
C204   C     0.64477   0.32865   0.39305   0.00000  Uiso   1.00
C205   C     0.48530   0.17841   0.38877   0.00000  Uiso   1.00
C206   C     0.42646   0.18264   0.43996   0.00000  Uiso   1.00
C207   C     0.41275   0.13855   0.52343   0.00000  Uiso   1.00
H208   H     0.62430   0.09967   0.37710   0.00000  Uiso   1.00
H209   H     0.62783   0.05225   0.17491   0.00000  Uiso   1.00
H210   H     0.70824   0.18209   0.43785   0.00000  Uiso   1.00
H211   H     0.54906   0.05166   0.52728   0.00000  Uiso   1.00
H212   H     0.61253   0.02024   0.93702   0.00000  Uiso   1.00
H213   H     0.78207   0.29401   0.49149   0.00000  Uiso   1.00
H214   H     0.44640   0.01899   0.68008   0.00000  Uiso   1.00
H215   H     0.47610   0.25802   0.27151   0.00000  Uiso   1.00
H216   H     0.47149   0.21929   0.06352   0.00000  Uiso   1.00
H217   H     0.55190   0.34912   0.32646   0.00000  Uiso   1.00
H218   H     0.39272   0.21870   0.41589   0.00000  Uiso   1.00
H219   H     0.48564   0.15582   0.84661   0.00000  Uiso   1.00
H220   H     0.65518   0.42958   0.40109   0.00000  Uiso   1.00
H221   H     0.31951   0.15457   0.58967   0.00000  Uiso   1.00
O222   O     0.54874   0.05970   0.75689   0.00000  Uiso   1.00
O223   O     0.77117   0.41887   0.48435   0.00000  Uiso   1.00
O224   O     0.33078   0.05806   0.73177   0.00000  Uiso   1.00
N225   N     0.58328   0.05745   0.94429   0.00000  Uiso   1.00
N226   N     0.74180   0.31341   0.46267   0.00000  Uiso   1.00
N227   N     0.42798   0.05630   0.63901   0.00000  Uiso   1.00
N228   N     0.51501   0.13041   0.89564   0.00000  Uiso   1.00
N229   N     0.67352   0.38636   0.41402   0.00000  Uiso   1.00
N230   N     0.35971   0.12926   0.59036   0.00000  Uiso   1.00
C231   C     0.09035   0.63594   0.85291   0.00000  Uiso   1.00
C232   C     0.07171   0.63213   0.72841   0.00000  Uiso   1.00
C233   C     0.09407   0.58830   0.65083   0.00000  Uiso   1.00
C234   C     0.07126   0.59272   0.54093   0.00000  Uiso   1.00
C235   C     0.04898   0.57973   0.35233   0.00000  Uiso   1.00
C236   C     0.11540   0.70268   0.87126   0.00000  Uiso   1.00
C237   C     0.17450   0.71816   0.91380   0.00000  Uiso   1.00
C238   C     0.18846   0.78196   0.92417   0.00000  Uiso   1.00
C239   C     0.23400   0.87850   0.95743   0.00000  Uiso   1.00
C240   C     0.02891   0.63181   0.91985   0.00000  Uiso   1.00
C241   C     0.01529   0.58772   0.00326   0.00000  Uiso   1.00
C242   C     0.95644   0.59187   0.05455   0.00000  Uiso   1.00
C243   C     0.86769   0.57838   0.16325   0.00000  Uiso   1.00
C244   C     0.01005   0.72174   0.79570   0.00000  Uiso   1.00
C245   C     0.02810   0.67874   0.69734   0.00000  Uiso   1.00
C246   C     0.00524   0.68322   0.58754   0.00000  Uiso   1.00
C247   C     0.02757   0.63940   0.50980   0.00000  Uiso   1.00
C248   C     0.07179   0.74928   0.84019   0.00000  Uiso   1.00
C249   C     0.08567   0.81308   0.85051   0.00000  Uiso   1.00
C250   C     0.14477   0.82865   0.89305   0.00000  Uiso   1.00
C251   C     0.98530   0.67841   0.88877   0.00000  Uiso   1.00
C252   C     0.92646   0.68264   0.93996   0.00000  Uiso   1.00
C253   C     0.91275   0.63855   0.02343   0.00000  Uiso   1.00
H254   H     0.12430   0.59967   0.87710   0.00000  Uiso   1.00
H255   H     0.12783   0.55225   0.67491   0.00000  Uiso   1.00
H256   H     0.20824   0.68209   0.93785   0.00000  Uiso   1.00
H257   H     0.04906   0.55166   0.02728   0.00000  Uiso   1.00
H258   H     0.11253   0.52024   0.43702   0.00000  Uiso   1.00
H259   H     0.28207   0.79401   0.99149   0.00000  Uiso   1.00
H260   H     0.94640   0.51899   0.18008   0.00000  Uiso   1.00
H261   H     0.97610   0.75802   0.77151   0.00000  Uiso   1.00
H262   H     0.97149   0.71929   0.56352   0.00000  Uiso   1.00
H263   H     0.05190   0.84912   0.82646   0.00000  Uiso   1.00
H264   H     0.89272   0.71870   0.91589   0.00000  Uiso   1.00
H265   H     0.98564   0.65582   0.34661   0.00000  Uiso   1.00
H266   H     0.15518   0.92958   0.90109   0.00000  Uiso   1.00
H267   H     0.81951   0.65457   0.08967   0.00000  Uiso   1.00
O268   O     0.04874   0.55970   0.25689   0.00000  Uiso   1.00
O269   O     0.27117   0.91887   0.98435   0.00000  Uiso   1.00
O270   O     0.83078   0.55806   0.23177   0.00000  Uiso   1.00
N271   N     0.08328   0.55745   0.44429   0.00000  Uiso   1.00
N272   N     0.24180   0.81341   0.96267   0.00000  Uiso   1.00
N273   N     0.92798   0.55630   0.13901   0.00000  Uiso   1.00
N274   N     0.01501   0.63041   0.39564   0.00000  Uiso   1.00
N275   N     0.17352   0.88636   0.91402   0.00000  Uiso   1.00
N276   N     0.85971   0.62926   0.09036   0.00000  Uiso   1.00
C277   C     0.90965   0.36406   0.85291   0.00000  Uiso   1.00
C278   C     0.92829   0.36787   0.72841   0.00000  Uiso   1.00
C279   C     0.90593   0.41170   0.65083   0.00000  Uiso   1.00
C280   C     0.92874   0.40728   0.54093   0.00000  Uiso   1.00
C281   C     0.95102   0.42027   0.35233   0.00000  Uiso   1.00
C282   C     0.88460   0.29732   0.87126   0.00000  Uiso   1.00
C283   C     0.82550   0.28184   0.91380   0.00000  Uiso   1.00
C284   C     0.81154   0.21804   0.92417   0.00000  Uiso   1.00
C285   C     0.76600   0.12150   0.95743   0.00000  Uiso   1.00
C286   C     0.97109   0.36819   0.91985   0.00000  Uiso   1.00
C287   C     0.98471   0.41228   0.00326   0.00000  Uiso   1.00
C288   C     0.04356   0.40813   0.05455   0.00000  Uiso   1.00
C289   C     0.13231   0.42162   0.16325   0.00000  Uiso   1.00
C290   C     0.98995   0.27826   0.79570   0.00000  Uiso   1.00
C291   C     0.97190   0.32126   0.69734   0.00000  Uiso   1.00
C292   C     0.99476   0.31678   0.58754   0.00000  Uiso   1.00
C293   C     0.97243   0.36060   0.50980   0.00000  Uiso   1.00
C294   C     0.92821   0.25072   0.84019   0.00000  Uiso   1.00
C295   C     0.91433   0.18692   0.85051   0.00000  Uiso   1.00
C296   C     0.85523   0.17135   0.89305   0.00000  Uiso   1.00
C297   C     0.01470   0.32159   0.88877   0.00000  Uiso   1.00
C298   C     0.07354   0.31736   0.93996   0.00000  Uiso   1.00
C299   C     0.08725   0.36145   0.02343   0.00000  Uiso   1.00
H300   H     0.87570   0.40033   0.87710   0.00000  Uiso   1.00
H301   H     0.87217   0.44775   0.67491   0.00000  Uiso   1.00
H302   H     0.79176   0.31791   0.93785   0.00000  Uiso   1.00
H303   H     0.95094   0.44834   0.02728   0.00000  Uiso   1.00
H304   H     0.88747   0.47976   0.43702   0.00000  Uiso   1.00
H305   H     0.71793   0.20599   0.99149   0.00000  Uiso   1.00
H306   H     0.05360   0.48101   0.18008   0.00000  Uiso   1.00
H307   H     0.02390   0.24198   0.77151   0.00000  Uiso   1.00
H308   H     0.02851   0.28071   0.56352   0.00000  Uiso   1.00
H309   H     0.94810   0.15088   0.82646   0.00000  Uiso   1.00
H310   H     0.10728   0.28130   0.91589   0.00000  Uiso   1.00
H311   H     0.01436   0.34418   0.34661   0.00000  Uiso   1.00
H312   H     0.84482   0.07042   0.90109   0.00000  Uiso   1.00
H313   H     0.18049   0.34543   0.08967   0.00000  Uiso   1.00
O314   O     0.95126   0.44030   0.25689   0.00000  Uiso   1.00
O315   O     0.72883   0.08113   0.98435   0.00000  Uiso   1.00
O316   O     0.16922   0.44194   0.23177   0.00000  Uiso   1.00
N317   N     0.91672   0.44255   0.44429   0.00000  Uiso   1.00
N318   N     0.75820   0.18659   0.96267   0.00000  Uiso   1.00
N319   N     0.07202   0.44370   0.13901   0.00000  Uiso   1.00
N320   N     0.98499   0.36959   0.39564   0.00000  Uiso   1.00
N321   N     0.82648   0.11364   0.91402   0.00000  Uiso   1.00
N322   N     0.14029   0.37074   0.09036   0.00000  Uiso   1.00
C323   C     0.40965   0.86406   0.35291   0.00000  Uiso   1.00
C324   C     0.42829   0.86787   0.22841   0.00000  Uiso   1.00
C325   C     0.40593   0.91170   0.15083   0.00000  Uiso   1.00
C326   C     0.42874   0.90728   0.04093   0.00000  Uiso   1.00
C327   C     0.45102   0.92027   0.85233   0.00000  Uiso   1.00
C328   C     0.38460   0.79732   0.37126   0.00000  Uiso   1.00
C329   C     0.32550   0.78184   0.41380   0.00000  Uiso   1.00
C330   C     0.31154   0.71804   0.42417   0.00000  Uiso   1.00
C331   C     0.26600   0.62150   0.45743   0.00000  Uiso   1.00
C332   C     0.47109   0.86819   0.41985   0.00000  Uiso   1.00
C333   C     0.48471   0.91228   0.50326   0.00000  Uiso   1.00
C334   C     0.54356   0.90813   0.55455   0.00000  Uiso   1.00
C335   C     0.63231   0.92162   0.66325   0.00000  Uiso   1.00
C336   C     0.48995   0.77826   0.29570   0.00000  Uiso   1.00
C337   C     0.47190   0.82126   0.19734   0.00000  Uiso   1.00
C338   C     0.49476   0.81678   0.08754   0.00000  Uiso   1.00
C339   C     0.47243   0.86060   0.00980   0.00000  Uiso   1.00
C340   C     0.42821   0.75072   0.34019   0.00000  Uiso   1.00
C341   C     0.41433   0.68692   0.35051   0.00000  Uiso   1.00
C342   C     0.35523   0.67135   0.39305   0.00000  Uiso   1.00
C343   C     0.51470   0.82159   0.38877   0.00000  Uiso   1.00
C344   C     0.57354   0.81736   0.43996   0.00000  Uiso   1.00
C345   C     0.58725   0.86145   0.52343   0.00000  Uiso   1.00
H346   H     0.37570   0.90033   0.37710   0.00000  Uiso   1.00
H347   H     0.37217   0.94775   0.17491   0.00000  Uiso   1.00
H348   H     0.29176   0.81791   0.43785   0.00000  Uiso   1.00
H349   H     0.45094   0.94834   0.52728   0.00000  Uiso   1.00
H350   H     0.38747   0.97976   0.93702   0.00000  Uiso   1.00
H351   H     0.21793   0.70599   0.49149   0.00000  Uiso   1.00
H352   H     0.55360   0.98101   0.68008   0.00000  Uiso   1.00
H353   H     0.52390   0.74198   0.27151   0.00000  Uiso   1.00
H354   H     0.52851   0.78071   0.06352   0.00000  Uiso   1.00
H355   H     0.44810   0.65088   0.32646   0.00000  Uiso   1.00
H356   H     0.60728   0.78130   0.41589   0.00000  Uiso   1.00
H357   H     0.51436   0.84418   0.84661   0.00000  Uiso   1.00
H358   H     0.34482   0.57042   0.40109   0.00000  Uiso   1.00
H359   H     0.68049   0.84543   0.58967   0.00000  Uiso   1.00
O360   O     0.45126   0.94030   0.75689   0.00000  Uiso   1.00
O361   O     0.22883   0.58113   0.48435   0.00000  Uiso   1.00
O362   O     0.66922   0.94194   0.73177   0.00000  Uiso   1.00
N363   N     0.41672   0.94255   0.94429   0.00000  Uiso   1.00
N364   N     0.25820   0.68659   0.46267   0.00000  Uiso   1.00
N365   N     0.57202   0.94370   0.63901   0.00000  Uiso   1.00
N366   N     0.48499   0.86959   0.89564   0.00000  Uiso   1.00
N367   N     0.32648   0.61364   0.41402   0.00000  Uiso   1.00
N368   N     0.64029   0.87074   0.59036   0.00000  Uiso   1.00
