data_job_01004
_audit_creation_date              2018-12-19
_audit_creation_method            'Materials Studio'
_symmetry_space_group_name_H-M    'P1'
_symmetry_Int_Tables_number       1
_symmetry_cell_setting            triclinic
loop_
_symmetry_equiv_pos_as_xyz
  x,y,z
_cell_length_a                    15.6779
_cell_length_b                    16.2860
_cell_length_c                    9.4474
_cell_angle_alpha                 90.0000
_cell_angle_beta                  96.4760
_cell_angle_gamma                 90.0000
loop_
_atom_site_label
_atom_site_type_symbol
_atom_site_fract_x
_atom_site_fract_y
_atom_site_fract_z
_atom_site_U_iso_or_equiv
_atom_site_adp_type
_atom_site_occupancy
C1     C     0.18668   0.49503   0.96255   0.00000  Uiso   1.00
C2     C     0.22166   0.41123   0.92598   0.00000  Uiso   1.00
C3     C     0.20186   0.33695   0.98643   0.00000  Uiso   1.00
C4     C     0.24056   0.26712   0.93857   0.00000  Uiso   1.00
C5     C     0.28632   0.13634   0.89774   0.00000  Uiso   1.00
C6     C     0.26488   0.54860   0.00721   0.00000  Uiso   1.00
C7     C     0.28140   0.58982   0.13596   0.00000  Uiso   1.00
C8     C     0.35646   0.63564   0.15646   0.00000  Uiso   1.00
C9     C     0.46929   0.71817   0.24171   0.00000  Uiso   1.00
C10    C     0.14472   0.53079   0.82254   0.00000  Uiso   1.00
C11    C     0.06022   0.55707   0.79602   0.00000  Uiso   1.00
C12    C     0.03413   0.58792   0.66105   0.00000  Uiso   1.00
C13    C     0.96039   0.64281   0.45957   0.00000  Uiso   1.00
C14    C     0.29060   0.50310   0.77004   0.00000  Uiso   1.00
C15    C     0.27811   0.41562   0.82142   0.00000  Uiso   1.00
C16    C     0.31684   0.34588   0.77344   0.00000  Uiso   1.00
C17    C     0.29710   0.27151   0.83381   0.00000  Uiso   1.00
C18    C     0.32132   0.55298   0.90266   0.00000  Uiso   1.00
C19    C     0.39637   0.59875   0.92297   0.00000  Uiso   1.00
C20    C     0.41301   0.64003   0.05172   0.00000  Uiso   1.00
C21    C     0.20116   0.53518   0.71798   0.00000  Uiso   1.00
C22    C     0.17520   0.56600   0.58303   0.00000  Uiso   1.00
C23    C     0.09067   0.59231   0.55630   0.00000  Uiso   1.00
H24    H     0.14274   0.49162   0.04396   0.00000  Uiso   1.00
H25    H     0.15819   0.33359   0.06736   0.00000  Uiso   1.00
H26    H     0.23770   0.58642   0.21685   0.00000  Uiso   1.00
H27    H     0.01656   0.55367   0.87696   0.00000  Uiso   1.00
H28    H     0.20023   0.16031   0.04722   0.00000  Uiso   1.00
H29    H     0.36788   0.69345   0.36242   0.00000  Uiso   1.00
H30    H     0.90156   0.62440   0.64570   0.00000  Uiso   1.00
H31    H     0.33455   0.50652   0.68863   0.00000  Uiso   1.00
H32    H     0.36052   0.34930   0.69253   0.00000  Uiso   1.00
H33    H     0.44004   0.60214   0.84203   0.00000  Uiso   1.00
H34    H     0.21889   0.56938   0.50214   0.00000  Uiso   1.00
H35    H     0.36445   0.17307   0.74301   0.00000  Uiso   1.00
H36    H     0.53211   0.70621   0.05820   0.00000  Uiso   1.00
H37    H     0.06578   0.63715   0.34148   0.00000  Uiso   1.00
O38    O     0.29599   0.06300   0.90412   0.00000  Uiso   1.00
O39    O     0.51593   0.76247   0.31763   0.00000  Uiso   1.00
O40    O     0.90412   0.67186   0.37732   0.00000  Uiso   1.00
N41    N     0.23530   0.18489   0.97507   0.00000  Uiso   1.00
N42    N     0.39206   0.68333   0.26977   0.00000  Uiso   1.00
N43    N     0.95608   0.61879   0.59971   0.00000  Uiso   1.00
N44    N     0.32367   0.19175   0.81137   0.00000  Uiso   1.00
N45    N     0.48042   0.69020   0.10607   0.00000  Uiso   1.00
N46    N     0.04445   0.62565   0.43601   0.00000  Uiso   1.00
C47    C     0.81332   0.99503   0.53745   0.00000  Uiso   1.00
C48    C     0.77834   0.91123   0.57402   0.00000  Uiso   1.00
C49    C     0.79814   0.83695   0.51357   0.00000  Uiso   1.00
C50    C     0.75944   0.76712   0.56143   0.00000  Uiso   1.00
C51    C     0.71368   0.63634   0.60226   0.00000  Uiso   1.00
C52    C     0.73512   0.04860   0.49279   0.00000  Uiso   1.00
C53    C     0.71860   0.08982   0.36404   0.00000  Uiso   1.00
C54    C     0.64354   0.13564   0.34354   0.00000  Uiso   1.00
C55    C     0.53071   0.21817   0.25829   0.00000  Uiso   1.00
C56    C     0.85528   0.03079   0.67746   0.00000  Uiso   1.00
C57    C     0.93978   0.05707   0.70398   0.00000  Uiso   1.00
C58    C     0.96587   0.08792   0.83895   0.00000  Uiso   1.00
C59    C     0.03961   0.14281   0.04043   0.00000  Uiso   1.00
C60    C     0.70940   0.00310   0.72996   0.00000  Uiso   1.00
C61    C     0.72189   0.91562   0.67858   0.00000  Uiso   1.00
C62    C     0.68316   0.84588   0.72656   0.00000  Uiso   1.00
C63    C     0.70290   0.77151   0.66619   0.00000  Uiso   1.00
C64    C     0.67868   0.05298   0.59734   0.00000  Uiso   1.00
C65    C     0.60363   0.09875   0.57703   0.00000  Uiso   1.00
C66    C     0.58699   0.14003   0.44828   0.00000  Uiso   1.00
C67    C     0.79884   0.03518   0.78202   0.00000  Uiso   1.00
C68    C     0.82480   0.06600   0.91697   0.00000  Uiso   1.00
C69    C     0.90933   0.09231   0.94370   0.00000  Uiso   1.00
H70    H     0.85726   0.99162   0.45604   0.00000  Uiso   1.00
H71    H     0.84181   0.83359   0.43264   0.00000  Uiso   1.00
H72    H     0.76230   0.08642   0.28315   0.00000  Uiso   1.00
H73    H     0.98344   0.05367   0.62304   0.00000  Uiso   1.00
H74    H     0.79977   0.66031   0.45278   0.00000  Uiso   1.00
H75    H     0.63212   0.19345   0.13758   0.00000  Uiso   1.00
H76    H     0.09844   0.12440   0.85430   0.00000  Uiso   1.00
H77    H     0.66545   0.00652   0.81137   0.00000  Uiso   1.00
H78    H     0.63948   0.84930   0.80747   0.00000  Uiso   1.00
H79    H     0.55996   0.10214   0.65797   0.00000  Uiso   1.00
H80    H     0.78111   0.06938   0.99786   0.00000  Uiso   1.00
H81    H     0.63555   0.67307   0.75699   0.00000  Uiso   1.00
H82    H     0.46789   0.20621   0.44180   0.00000  Uiso   1.00
H83    H     0.93422   0.13715   0.15852   0.00000  Uiso   1.00
O84    O     0.70401   0.56300   0.59588   0.00000  Uiso   1.00
O85    O     0.48407   0.26247   0.18237   0.00000  Uiso   1.00
O86    O     0.09588   0.17186   0.12268   0.00000  Uiso   1.00
N87    N     0.76470   0.68489   0.52493   0.00000  Uiso   1.00
N88    N     0.60794   0.18333   0.23023   0.00000  Uiso   1.00
N89    N     0.04392   0.11879   0.90029   0.00000  Uiso   1.00
N90    N     0.67633   0.69175   0.68863   0.00000  Uiso   1.00
N91    N     0.51958   0.19020   0.39393   0.00000  Uiso   1.00
N92    N     0.95555   0.12565   0.06399   0.00000  Uiso   1.00
C93    C     0.81332   0.50497   0.03745   0.00000  Uiso   1.00
C94    C     0.77834   0.58877   0.07402   0.00000  Uiso   1.00
C95    C     0.79814   0.66305   0.01357   0.00000  Uiso   1.00
C96    C     0.75944   0.73288   0.06143   0.00000  Uiso   1.00
C97    C     0.71368   0.86366   0.10226   0.00000  Uiso   1.00
C98    C     0.73512   0.45140   0.99279   0.00000  Uiso   1.00
C99    C     0.71860   0.41018   0.86404   0.00000  Uiso   1.00
C100   C     0.64354   0.36436   0.84354   0.00000  Uiso   1.00
C101   C     0.53071   0.28183   0.75829   0.00000  Uiso   1.00
C102   C     0.85528   0.46921   0.17746   0.00000  Uiso   1.00
C103   C     0.93978   0.44293   0.20398   0.00000  Uiso   1.00
C104   C     0.96587   0.41208   0.33895   0.00000  Uiso   1.00
C105   C     0.03961   0.35719   0.54043   0.00000  Uiso   1.00
C106   C     0.70940   0.49690   0.22996   0.00000  Uiso   1.00
C107   C     0.72189   0.58438   0.17858   0.00000  Uiso   1.00
C108   C     0.68316   0.65412   0.22656   0.00000  Uiso   1.00
C109   C     0.70290   0.72849   0.16619   0.00000  Uiso   1.00
C110   C     0.67868   0.44702   0.09734   0.00000  Uiso   1.00
C111   C     0.60363   0.40125   0.07703   0.00000  Uiso   1.00
C112   C     0.58699   0.35997   0.94828   0.00000  Uiso   1.00
C113   C     0.79884   0.46482   0.28202   0.00000  Uiso   1.00
C114   C     0.82480   0.43400   0.41697   0.00000  Uiso   1.00
C115   C     0.90933   0.40769   0.44370   0.00000  Uiso   1.00
H116   H     0.85726   0.50838   0.95604   0.00000  Uiso   1.00
H117   H     0.84181   0.66641   0.93264   0.00000  Uiso   1.00
H118   H     0.76230   0.41358   0.78315   0.00000  Uiso   1.00
H119   H     0.98344   0.44633   0.12304   0.00000  Uiso   1.00
H120   H     0.79977   0.83969   0.95278   0.00000  Uiso   1.00
H121   H     0.63212   0.30655   0.63758   0.00000  Uiso   1.00
H122   H     0.09844   0.37560   0.35430   0.00000  Uiso   1.00
H123   H     0.66545   0.49348   0.31137   0.00000  Uiso   1.00
H124   H     0.63948   0.65070   0.30747   0.00000  Uiso   1.00
H125   H     0.55996   0.39786   0.15797   0.00000  Uiso   1.00
H126   H     0.78111   0.43062   0.49786   0.00000  Uiso   1.00
H127   H     0.63555   0.82693   0.25699   0.00000  Uiso   1.00
H128   H     0.46789   0.29379   0.94180   0.00000  Uiso   1.00
H129   H     0.93422   0.36285   0.65852   0.00000  Uiso   1.00
O130   O     0.70401   0.93700   0.09588   0.00000  Uiso   1.00
O131   O     0.48407   0.23753   0.68237   0.00000  Uiso   1.00
O132   O     0.09588   0.32814   0.62268   0.00000  Uiso   1.00
N133   N     0.76470   0.81511   0.02493   0.00000  Uiso   1.00
N134   N     0.60794   0.31667   0.73023   0.00000  Uiso   1.00
N135   N     0.04392   0.38121   0.40029   0.00000  Uiso   1.00
N136   N     0.67633   0.80825   0.18863   0.00000  Uiso   1.00
N137   N     0.51958   0.30980   0.89393   0.00000  Uiso   1.00
N138   N     0.95555   0.37435   0.56399   0.00000  Uiso   1.00
C139   C     0.18668   0.00497   0.46255   0.00000  Uiso   1.00
C140   C     0.22166   0.08877   0.42598   0.00000  Uiso   1.00
C141   C     0.20186   0.16305   0.48643   0.00000  Uiso   1.00
C142   C     0.24056   0.23288   0.43857   0.00000  Uiso   1.00
C143   C     0.28632   0.36366   0.39774   0.00000  Uiso   1.00
C144   C     0.26488   0.95140   0.50721   0.00000  Uiso   1.00
C145   C     0.28140   0.91018   0.63596   0.00000  Uiso   1.00
C146   C     0.35646   0.86436   0.65646   0.00000  Uiso   1.00
C147   C     0.46929   0.78183   0.74171   0.00000  Uiso   1.00
C148   C     0.14472   0.96921   0.32254   0.00000  Uiso   1.00
C149   C     0.06022   0.94293   0.29602   0.00000  Uiso   1.00
C150   C     0.03413   0.91208   0.16105   0.00000  Uiso   1.00
C151   C     0.96039   0.85719   0.95957   0.00000  Uiso   1.00
C152   C     0.29060   0.99690   0.27004   0.00000  Uiso   1.00
C153   C     0.27811   0.08438   0.32142   0.00000  Uiso   1.00
C154   C     0.31684   0.15412   0.27344   0.00000  Uiso   1.00
C155   C     0.29710   0.22849   0.33381   0.00000  Uiso   1.00
C156   C     0.32132   0.94702   0.40266   0.00000  Uiso   1.00
C157   C     0.39637   0.90125   0.42297   0.00000  Uiso   1.00
C158   C     0.41301   0.85997   0.55172   0.00000  Uiso   1.00
C159   C     0.20116   0.96482   0.21798   0.00000  Uiso   1.00
C160   C     0.17520   0.93400   0.08303   0.00000  Uiso   1.00
C161   C     0.09067   0.90769   0.05630   0.00000  Uiso   1.00
H162   H     0.14274   0.00838   0.54396   0.00000  Uiso   1.00
H163   H     0.15819   0.16641   0.56736   0.00000  Uiso   1.00
H164   H     0.23770   0.91358   0.71685   0.00000  Uiso   1.00
H165   H     0.01656   0.94633   0.37696   0.00000  Uiso   1.00
H166   H     0.20023   0.33969   0.54722   0.00000  Uiso   1.00
H167   H     0.36788   0.80655   0.86242   0.00000  Uiso   1.00
H168   H     0.90156   0.87560   0.14570   0.00000  Uiso   1.00
H169   H     0.33455   0.99348   0.18863   0.00000  Uiso   1.00
H170   H     0.36052   0.15070   0.19253   0.00000  Uiso   1.00
H171   H     0.44004   0.89786   0.34203   0.00000  Uiso   1.00
H172   H     0.21889   0.93062   0.00214   0.00000  Uiso   1.00
H173   H     0.36445   0.32693   0.24301   0.00000  Uiso   1.00
H174   H     0.53211   0.79379   0.55820   0.00000  Uiso   1.00
H175   H     0.06578   0.86285   0.84148   0.00000  Uiso   1.00
O176   O     0.29599   0.43700   0.40412   0.00000  Uiso   1.00
O177   O     0.51593   0.73753   0.81763   0.00000  Uiso   1.00
O178   O     0.90412   0.82814   0.87732   0.00000  Uiso   1.00
N179   N     0.23530   0.31511   0.47507   0.00000  Uiso   1.00
N180   N     0.39206   0.81667   0.76977   0.00000  Uiso   1.00
N181   N     0.95608   0.88121   0.09971   0.00000  Uiso   1.00
N182   N     0.32367   0.30825   0.31137   0.00000  Uiso   1.00
N183   N     0.48042   0.80980   0.60607   0.00000  Uiso   1.00
N184   N     0.04445   0.87435   0.93601   0.00000  Uiso   1.00
