data_job_05442
_audit_creation_date              2018-12-19
_audit_creation_method            'Materials Studio'
_symmetry_space_group_name_H-M    'P1'
_symmetry_Int_Tables_number       1
_symmetry_cell_setting            triclinic
loop_
_symmetry_equiv_pos_as_xyz
  x,y,z
_cell_length_a                    25.1893
_cell_length_b                    11.2475
_cell_length_c                    21.5374
_cell_angle_alpha                 90.0000
_cell_angle_beta                  90.0000
_cell_angle_gamma                 90.0000
loop_
_atom_site_label
_atom_site_type_symbol
_atom_site_fract_x
_atom_site_fract_y
_atom_site_fract_z
_atom_site_U_iso_or_equiv
_atom_site_adp_type
_atom_site_occupancy
C1     C     0.13705   0.40821   0.95936   0.00000  Uiso   1.00
C2     C     0.14962   0.47918   0.01787   0.00000  Uiso   1.00
C3     C     0.15126   0.60223   0.02222   0.00000  Uiso   1.00
C4     C     0.16352   0.65009   0.07989   0.00000  Uiso   1.00
C5     C     0.18151   0.77134   0.16291   0.00000  Uiso   1.00
C6     C     0.18423   0.32550   0.94919   0.00000  Uiso   1.00
C7     C     0.21495   0.31932   0.89580   0.00000  Uiso   1.00
C8     C     0.25634   0.23780   0.89565   0.00000  Uiso   1.00
C9     C     0.32802   0.12039   0.87204   0.00000  Uiso   1.00
C10    C     0.09025   0.32826   0.97588   0.00000  Uiso   1.00
C11    C     0.04196   0.32439   0.94492   0.00000  Uiso   1.00
C12    C     0.00423   0.24517   0.96723   0.00000  Uiso   1.00
C13    C     0.93000   0.13206   0.98505   0.00000  Uiso   1.00
C14    C     0.15592   0.27440   0.05402   0.00000  Uiso   1.00
C15    C     0.15987   0.40650   0.06928   0.00000  Uiso   1.00
C16    C     0.17213   0.45419   0.12696   0.00000  Uiso   1.00
C17    C     0.17379   0.57728   0.13140   0.00000  Uiso   1.00
C18    C     0.19447   0.25282   0.00061   0.00000  Uiso   1.00
C19    C     0.23583   0.17128   0.00053   0.00000  Uiso   1.00
C20    C     0.26661   0.16499   0.94716   0.00000  Uiso   1.00
C21    C     0.10050   0.25558   0.02730   0.00000  Uiso   1.00
C22    C     0.06284   0.17635   0.04965   0.00000  Uiso   1.00
C23    C     0.01450   0.17236   0.01874   0.00000  Uiso   1.00
H24    H     0.12908   0.46479   0.91932   0.00000  Uiso   1.00
H25    H     0.14333   0.65844   0.98242   0.00000  Uiso   1.00
H26    H     0.20701   0.37557   0.85602   0.00000  Uiso   1.00
H27    H     0.03404   0.38064   0.90513   0.00000  Uiso   1.00
H28    H     0.16367   0.84109   0.07504   0.00000  Uiso   1.00
H29    H     0.29793   0.24461   0.80851   0.00000  Uiso   1.00
H30    H     0.93320   0.25530   0.91207   0.00000  Uiso   1.00
H31    H     0.16390   0.21782   0.09405   0.00000  Uiso   1.00
H32    H     0.18006   0.39792   0.16674   0.00000  Uiso   1.00
H33    H     0.24374   0.11505   0.04033   0.00000  Uiso   1.00
H34    H     0.07078   0.12012   0.08944   0.00000  Uiso   1.00
H35    H     0.19349   0.62964   0.22464   0.00000  Uiso   1.00
H36    H     0.32775   0.03315   0.95810   0.00000  Uiso   1.00
H37    H     0.96302   0.04385   0.06167   0.00000  Uiso   1.00
O38    O     0.18860   0.85830   0.19450   0.00000  Uiso   1.00
O39    O     0.36473   0.07572   0.84481   0.00000  Uiso   1.00
O40    O     0.88622   0.08976   0.98068   0.00000  Uiso   1.00
N41    N     0.16846   0.76661   0.10028   0.00000  Uiso   1.00
N42    N     0.29399   0.20895   0.85109   0.00000  Uiso   1.00
N43    N     0.95300   0.21892   0.94790   0.00000  Uiso   1.00
N44    N     0.18450   0.65283   0.18078   0.00000  Uiso   1.00
N45    N     0.31003   0.09517   0.93158   0.00000  Uiso   1.00
N46    N     0.96905   0.10514   0.02840   0.00000  Uiso   1.00
C47    C     0.36295   0.59179   0.95936   0.00000  Uiso   1.00
C48    C     0.35038   0.52082   0.01787   0.00000  Uiso   1.00
C49    C     0.34874   0.39777   0.02222   0.00000  Uiso   1.00
C50    C     0.33648   0.34991   0.07989   0.00000  Uiso   1.00
C51    C     0.31849   0.22866   0.16291   0.00000  Uiso   1.00
C52    C     0.31577   0.67450   0.94919   0.00000  Uiso   1.00
C53    C     0.28505   0.68068   0.89580   0.00000  Uiso   1.00
C54    C     0.24366   0.76220   0.89565   0.00000  Uiso   1.00
C55    C     0.17198   0.87961   0.87204   0.00000  Uiso   1.00
C56    C     0.40975   0.67174   0.97588   0.00000  Uiso   1.00
C57    C     0.45804   0.67561   0.94492   0.00000  Uiso   1.00
C58    C     0.49577   0.75483   0.96723   0.00000  Uiso   1.00
C59    C     0.57000   0.86794   0.98505   0.00000  Uiso   1.00
C60    C     0.34408   0.72560   0.05402   0.00000  Uiso   1.00
C61    C     0.34013   0.59350   0.06928   0.00000  Uiso   1.00
C62    C     0.32787   0.54581   0.12696   0.00000  Uiso   1.00
C63    C     0.32621   0.42272   0.13140   0.00000  Uiso   1.00
C64    C     0.30553   0.74718   0.00061   0.00000  Uiso   1.00
C65    C     0.26417   0.82872   0.00053   0.00000  Uiso   1.00
C66    C     0.23339   0.83501   0.94716   0.00000  Uiso   1.00
C67    C     0.39950   0.74442   0.02730   0.00000  Uiso   1.00
C68    C     0.43716   0.82365   0.04965   0.00000  Uiso   1.00
C69    C     0.48550   0.82764   0.01874   0.00000  Uiso   1.00
H70    H     0.37092   0.53521   0.91932   0.00000  Uiso   1.00
H71    H     0.35667   0.34156   0.98242   0.00000  Uiso   1.00
H72    H     0.29299   0.62443   0.85602   0.00000  Uiso   1.00
H73    H     0.46596   0.61936   0.90513   0.00000  Uiso   1.00
H74    H     0.33633   0.15891   0.07504   0.00000  Uiso   1.00
H75    H     0.20207   0.75539   0.80851   0.00000  Uiso   1.00
H76    H     0.56680   0.74470   0.91207   0.00000  Uiso   1.00
H77    H     0.33610   0.78218   0.09405   0.00000  Uiso   1.00
H78    H     0.31994   0.60208   0.16674   0.00000  Uiso   1.00
H79    H     0.25626   0.88495   0.04033   0.00000  Uiso   1.00
H80    H     0.42922   0.87988   0.08944   0.00000  Uiso   1.00
H81    H     0.30651   0.37036   0.22464   0.00000  Uiso   1.00
H82    H     0.17225   0.96685   0.95810   0.00000  Uiso   1.00
H83    H     0.53698   0.95615   0.06167   0.00000  Uiso   1.00
O84    O     0.31140   0.14170   0.19450   0.00000  Uiso   1.00
O85    O     0.13527   0.92428   0.84481   0.00000  Uiso   1.00
O86    O     0.61378   0.91024   0.98068   0.00000  Uiso   1.00
N87    N     0.33154   0.23339   0.10028   0.00000  Uiso   1.00
N88    N     0.20601   0.79105   0.85109   0.00000  Uiso   1.00
N89    N     0.54700   0.78108   0.94790   0.00000  Uiso   1.00
N90    N     0.31550   0.34717   0.18078   0.00000  Uiso   1.00
N91    N     0.18997   0.90483   0.93158   0.00000  Uiso   1.00
N92    N     0.53095   0.89486   0.02840   0.00000  Uiso   1.00
C93    C     0.36295   0.90821   0.54064   0.00000  Uiso   1.00
C94    C     0.35038   0.97918   0.48213   0.00000  Uiso   1.00
C95    C     0.34874   0.10223   0.47778   0.00000  Uiso   1.00
C96    C     0.33648   0.15009   0.42011   0.00000  Uiso   1.00
C97    C     0.31849   0.27134   0.33709   0.00000  Uiso   1.00
C98    C     0.31577   0.82550   0.55081   0.00000  Uiso   1.00
C99    C     0.28505   0.81932   0.60420   0.00000  Uiso   1.00
C100   C     0.24366   0.73780   0.60435   0.00000  Uiso   1.00
C101   C     0.17198   0.62039   0.62796   0.00000  Uiso   1.00
C102   C     0.40975   0.82826   0.52412   0.00000  Uiso   1.00
C103   C     0.45804   0.82439   0.55508   0.00000  Uiso   1.00
C104   C     0.49577   0.74517   0.53277   0.00000  Uiso   1.00
C105   C     0.57000   0.63206   0.51495   0.00000  Uiso   1.00
C106   C     0.34408   0.77440   0.44598   0.00000  Uiso   1.00
C107   C     0.34013   0.90650   0.43072   0.00000  Uiso   1.00
C108   C     0.32787   0.95419   0.37304   0.00000  Uiso   1.00
C109   C     0.32621   0.07728   0.36860   0.00000  Uiso   1.00
C110   C     0.30553   0.75282   0.49939   0.00000  Uiso   1.00
C111   C     0.26417   0.67128   0.49947   0.00000  Uiso   1.00
C112   C     0.23339   0.66499   0.55284   0.00000  Uiso   1.00
C113   C     0.39950   0.75558   0.47270   0.00000  Uiso   1.00
C114   C     0.43716   0.67635   0.45035   0.00000  Uiso   1.00
C115   C     0.48550   0.67236   0.48126   0.00000  Uiso   1.00
H116   H     0.37092   0.96479   0.58068   0.00000  Uiso   1.00
H117   H     0.35667   0.15844   0.51758   0.00000  Uiso   1.00
H118   H     0.29299   0.87557   0.64398   0.00000  Uiso   1.00
H119   H     0.46596   0.88064   0.59487   0.00000  Uiso   1.00
H120   H     0.33633   0.34109   0.42496   0.00000  Uiso   1.00
H121   H     0.20207   0.74461   0.69149   0.00000  Uiso   1.00
H122   H     0.56680   0.75530   0.58793   0.00000  Uiso   1.00
H123   H     0.33610   0.71782   0.40595   0.00000  Uiso   1.00
H124   H     0.31994   0.89792   0.33326   0.00000  Uiso   1.00
H125   H     0.25626   0.61505   0.45967   0.00000  Uiso   1.00
H126   H     0.42922   0.62012   0.41056   0.00000  Uiso   1.00
H127   H     0.30651   0.12964   0.27536   0.00000  Uiso   1.00
H128   H     0.17225   0.53315   0.54190   0.00000  Uiso   1.00
H129   H     0.53698   0.54385   0.43833   0.00000  Uiso   1.00
O130   O     0.31140   0.35830   0.30550   0.00000  Uiso   1.00
O131   O     0.13527   0.57572   0.65519   0.00000  Uiso   1.00
O132   O     0.61378   0.58976   0.51932   0.00000  Uiso   1.00
N133   N     0.33154   0.26661   0.39972   0.00000  Uiso   1.00
N134   N     0.20601   0.70895   0.64891   0.00000  Uiso   1.00
N135   N     0.54700   0.71892   0.55210   0.00000  Uiso   1.00
N136   N     0.31550   0.15283   0.31922   0.00000  Uiso   1.00
N137   N     0.18997   0.59517   0.56842   0.00000  Uiso   1.00
N138   N     0.53095   0.60514   0.47160   0.00000  Uiso   1.00
C139   C     0.13705   0.09179   0.54064   0.00000  Uiso   1.00
C140   C     0.14962   0.02082   0.48213   0.00000  Uiso   1.00
C141   C     0.15126   0.89777   0.47778   0.00000  Uiso   1.00
C142   C     0.16352   0.84991   0.42011   0.00000  Uiso   1.00
C143   C     0.18151   0.72866   0.33709   0.00000  Uiso   1.00
C144   C     0.18423   0.17450   0.55081   0.00000  Uiso   1.00
C145   C     0.21495   0.18068   0.60420   0.00000  Uiso   1.00
C146   C     0.25634   0.26220   0.60435   0.00000  Uiso   1.00
C147   C     0.32802   0.37961   0.62796   0.00000  Uiso   1.00
C148   C     0.09025   0.17174   0.52412   0.00000  Uiso   1.00
C149   C     0.04196   0.17561   0.55508   0.00000  Uiso   1.00
C150   C     0.00423   0.25483   0.53277   0.00000  Uiso   1.00
C151   C     0.93000   0.36794   0.51495   0.00000  Uiso   1.00
C152   C     0.15592   0.22560   0.44598   0.00000  Uiso   1.00
C153   C     0.15987   0.09350   0.43072   0.00000  Uiso   1.00
C154   C     0.17213   0.04581   0.37304   0.00000  Uiso   1.00
C155   C     0.17379   0.92272   0.36860   0.00000  Uiso   1.00
C156   C     0.19447   0.24718   0.49939   0.00000  Uiso   1.00
C157   C     0.23583   0.32872   0.49947   0.00000  Uiso   1.00
C158   C     0.26661   0.33501   0.55284   0.00000  Uiso   1.00
C159   C     0.10050   0.24442   0.47270   0.00000  Uiso   1.00
C160   C     0.06284   0.32365   0.45035   0.00000  Uiso   1.00
C161   C     0.01450   0.32764   0.48126   0.00000  Uiso   1.00
H162   H     0.12908   0.03521   0.58068   0.00000  Uiso   1.00
H163   H     0.14333   0.84156   0.51758   0.00000  Uiso   1.00
H164   H     0.20701   0.12443   0.64398   0.00000  Uiso   1.00
H165   H     0.03404   0.11936   0.59487   0.00000  Uiso   1.00
H166   H     0.16367   0.65891   0.42496   0.00000  Uiso   1.00
H167   H     0.29793   0.25539   0.69149   0.00000  Uiso   1.00
H168   H     0.93320   0.24470   0.58793   0.00000  Uiso   1.00
H169   H     0.16390   0.28218   0.40595   0.00000  Uiso   1.00
H170   H     0.18006   0.10208   0.33326   0.00000  Uiso   1.00
H171   H     0.24374   0.38495   0.45967   0.00000  Uiso   1.00
H172   H     0.07078   0.37988   0.41056   0.00000  Uiso   1.00
H173   H     0.19349   0.87036   0.27536   0.00000  Uiso   1.00
H174   H     0.32775   0.46685   0.54190   0.00000  Uiso   1.00
H175   H     0.96302   0.45615   0.43833   0.00000  Uiso   1.00
O176   O     0.18860   0.64170   0.30550   0.00000  Uiso   1.00
O177   O     0.36473   0.42428   0.65519   0.00000  Uiso   1.00
O178   O     0.88622   0.41024   0.51932   0.00000  Uiso   1.00
N179   N     0.16846   0.73339   0.39972   0.00000  Uiso   1.00
N180   N     0.29399   0.29105   0.64891   0.00000  Uiso   1.00
N181   N     0.95300   0.28108   0.55210   0.00000  Uiso   1.00
N182   N     0.18450   0.84717   0.31922   0.00000  Uiso   1.00
N183   N     0.31003   0.40483   0.56842   0.00000  Uiso   1.00
N184   N     0.96905   0.39486   0.47160   0.00000  Uiso   1.00
C185   C     0.86295   0.59179   0.04064   0.00000  Uiso   1.00
C186   C     0.85038   0.52082   0.98213   0.00000  Uiso   1.00
C187   C     0.84874   0.39777   0.97778   0.00000  Uiso   1.00
C188   C     0.83648   0.34991   0.92011   0.00000  Uiso   1.00
C189   C     0.81849   0.22866   0.83709   0.00000  Uiso   1.00
C190   C     0.81577   0.67450   0.05081   0.00000  Uiso   1.00
C191   C     0.78505   0.68068   0.10420   0.00000  Uiso   1.00
C192   C     0.74366   0.76220   0.10435   0.00000  Uiso   1.00
C193   C     0.67198   0.87961   0.12796   0.00000  Uiso   1.00
C194   C     0.90975   0.67174   0.02412   0.00000  Uiso   1.00
C195   C     0.95804   0.67561   0.05508   0.00000  Uiso   1.00
C196   C     0.99577   0.75483   0.03277   0.00000  Uiso   1.00
C197   C     0.07000   0.86794   0.01495   0.00000  Uiso   1.00
C198   C     0.84408   0.72560   0.94598   0.00000  Uiso   1.00
C199   C     0.84013   0.59350   0.93072   0.00000  Uiso   1.00
C200   C     0.82787   0.54581   0.87304   0.00000  Uiso   1.00
C201   C     0.82621   0.42272   0.86860   0.00000  Uiso   1.00
C202   C     0.80553   0.74718   0.99939   0.00000  Uiso   1.00
C203   C     0.76417   0.82872   0.99947   0.00000  Uiso   1.00
C204   C     0.73339   0.83501   0.05284   0.00000  Uiso   1.00
C205   C     0.89950   0.74442   0.97270   0.00000  Uiso   1.00
C206   C     0.93716   0.82365   0.95035   0.00000  Uiso   1.00
C207   C     0.98550   0.82764   0.98126   0.00000  Uiso   1.00
H208   H     0.87092   0.53521   0.08068   0.00000  Uiso   1.00
H209   H     0.85667   0.34156   0.01758   0.00000  Uiso   1.00
H210   H     0.79299   0.62443   0.14398   0.00000  Uiso   1.00
H211   H     0.96596   0.61936   0.09487   0.00000  Uiso   1.00
H212   H     0.83633   0.15891   0.92496   0.00000  Uiso   1.00
H213   H     0.70207   0.75539   0.19149   0.00000  Uiso   1.00
H214   H     0.06680   0.74470   0.08793   0.00000  Uiso   1.00
H215   H     0.83610   0.78218   0.90595   0.00000  Uiso   1.00
H216   H     0.81994   0.60208   0.83326   0.00000  Uiso   1.00
H217   H     0.75626   0.88495   0.95967   0.00000  Uiso   1.00
H218   H     0.92922   0.87988   0.91056   0.00000  Uiso   1.00
H219   H     0.80651   0.37036   0.77536   0.00000  Uiso   1.00
H220   H     0.67225   0.96685   0.04190   0.00000  Uiso   1.00
H221   H     0.03698   0.95615   0.93833   0.00000  Uiso   1.00
O222   O     0.81140   0.14170   0.80550   0.00000  Uiso   1.00
O223   O     0.63527   0.92428   0.15519   0.00000  Uiso   1.00
O224   O     0.11378   0.91024   0.01932   0.00000  Uiso   1.00
N225   N     0.83154   0.23339   0.89972   0.00000  Uiso   1.00
N226   N     0.70601   0.79105   0.14891   0.00000  Uiso   1.00
N227   N     0.04700   0.78108   0.05210   0.00000  Uiso   1.00
N228   N     0.81550   0.34717   0.81922   0.00000  Uiso   1.00
N229   N     0.68997   0.90483   0.06842   0.00000  Uiso   1.00
N230   N     0.03095   0.89486   0.97160   0.00000  Uiso   1.00
C231   C     0.63705   0.40821   0.04064   0.00000  Uiso   1.00
C232   C     0.64962   0.47918   0.98213   0.00000  Uiso   1.00
C233   C     0.65126   0.60223   0.97778   0.00000  Uiso   1.00
C234   C     0.66352   0.65009   0.92011   0.00000  Uiso   1.00
C235   C     0.68151   0.77134   0.83709   0.00000  Uiso   1.00
C236   C     0.68423   0.32550   0.05081   0.00000  Uiso   1.00
C237   C     0.71495   0.31932   0.10420   0.00000  Uiso   1.00
C238   C     0.75634   0.23780   0.10435   0.00000  Uiso   1.00
C239   C     0.82802   0.12039   0.12796   0.00000  Uiso   1.00
C240   C     0.59025   0.32826   0.02412   0.00000  Uiso   1.00
C241   C     0.54196   0.32439   0.05508   0.00000  Uiso   1.00
C242   C     0.50423   0.24517   0.03277   0.00000  Uiso   1.00
C243   C     0.43000   0.13206   0.01495   0.00000  Uiso   1.00
C244   C     0.65592   0.27440   0.94598   0.00000  Uiso   1.00
C245   C     0.65987   0.40650   0.93072   0.00000  Uiso   1.00
C246   C     0.67213   0.45419   0.87304   0.00000  Uiso   1.00
C247   C     0.67379   0.57728   0.86860   0.00000  Uiso   1.00
C248   C     0.69447   0.25282   0.99939   0.00000  Uiso   1.00
C249   C     0.73583   0.17128   0.99947   0.00000  Uiso   1.00
C250   C     0.76661   0.16499   0.05284   0.00000  Uiso   1.00
C251   C     0.60050   0.25558   0.97270   0.00000  Uiso   1.00
C252   C     0.56284   0.17635   0.95035   0.00000  Uiso   1.00
C253   C     0.51450   0.17236   0.98126   0.00000  Uiso   1.00
H254   H     0.62908   0.46479   0.08068   0.00000  Uiso   1.00
H255   H     0.64333   0.65844   0.01758   0.00000  Uiso   1.00
H256   H     0.70701   0.37557   0.14398   0.00000  Uiso   1.00
H257   H     0.53404   0.38064   0.09487   0.00000  Uiso   1.00
H258   H     0.66367   0.84109   0.92496   0.00000  Uiso   1.00
H259   H     0.79793   0.24461   0.19149   0.00000  Uiso   1.00
H260   H     0.43320   0.25530   0.08793   0.00000  Uiso   1.00
H261   H     0.66390   0.21782   0.90595   0.00000  Uiso   1.00
H262   H     0.68006   0.39792   0.83326   0.00000  Uiso   1.00
H263   H     0.74374   0.11505   0.95967   0.00000  Uiso   1.00
H264   H     0.57078   0.12012   0.91056   0.00000  Uiso   1.00
H265   H     0.69349   0.62964   0.77536   0.00000  Uiso   1.00
H266   H     0.82775   0.03315   0.04190   0.00000  Uiso   1.00
H267   H     0.46302   0.04385   0.93833   0.00000  Uiso   1.00
O268   O     0.68860   0.85830   0.80550   0.00000  Uiso   1.00
O269   O     0.86473   0.07572   0.15519   0.00000  Uiso   1.00
O270   O     0.38622   0.08976   0.01932   0.00000  Uiso   1.00
N271   N     0.66846   0.76661   0.89972   0.00000  Uiso   1.00
N272   N     0.79399   0.20895   0.14891   0.00000  Uiso   1.00
N273   N     0.45300   0.21892   0.05210   0.00000  Uiso   1.00
N274   N     0.68450   0.65283   0.81922   0.00000  Uiso   1.00
N275   N     0.81003   0.09517   0.06842   0.00000  Uiso   1.00
N276   N     0.46905   0.10514   0.97160   0.00000  Uiso   1.00
C277   C     0.63705   0.09179   0.45936   0.00000  Uiso   1.00
C278   C     0.64962   0.02082   0.51787   0.00000  Uiso   1.00
C279   C     0.65126   0.89777   0.52222   0.00000  Uiso   1.00
C280   C     0.66352   0.84991   0.57989   0.00000  Uiso   1.00
C281   C     0.68151   0.72866   0.66291   0.00000  Uiso   1.00
C282   C     0.68423   0.17450   0.44919   0.00000  Uiso   1.00
C283   C     0.71495   0.18068   0.39580   0.00000  Uiso   1.00
C284   C     0.75634   0.26220   0.39565   0.00000  Uiso   1.00
C285   C     0.82802   0.37961   0.37204   0.00000  Uiso   1.00
C286   C     0.59025   0.17174   0.47588   0.00000  Uiso   1.00
C287   C     0.54196   0.17561   0.44492   0.00000  Uiso   1.00
C288   C     0.50423   0.25483   0.46723   0.00000  Uiso   1.00
C289   C     0.43000   0.36794   0.48505   0.00000  Uiso   1.00
C290   C     0.65592   0.22560   0.55402   0.00000  Uiso   1.00
C291   C     0.65987   0.09350   0.56928   0.00000  Uiso   1.00
C292   C     0.67213   0.04581   0.62696   0.00000  Uiso   1.00
C293   C     0.67379   0.92272   0.63140   0.00000  Uiso   1.00
C294   C     0.69447   0.24718   0.50061   0.00000  Uiso   1.00
C295   C     0.73583   0.32872   0.50053   0.00000  Uiso   1.00
C296   C     0.76661   0.33501   0.44716   0.00000  Uiso   1.00
C297   C     0.60050   0.24442   0.52730   0.00000  Uiso   1.00
C298   C     0.56284   0.32365   0.54965   0.00000  Uiso   1.00
C299   C     0.51450   0.32764   0.51874   0.00000  Uiso   1.00
H300   H     0.62908   0.03521   0.41932   0.00000  Uiso   1.00
H301   H     0.64333   0.84156   0.48242   0.00000  Uiso   1.00
H302   H     0.70701   0.12443   0.35602   0.00000  Uiso   1.00
H303   H     0.53404   0.11936   0.40513   0.00000  Uiso   1.00
H304   H     0.66367   0.65891   0.57504   0.00000  Uiso   1.00
H305   H     0.79793   0.25539   0.30851   0.00000  Uiso   1.00
H306   H     0.43320   0.24470   0.41207   0.00000  Uiso   1.00
H307   H     0.66390   0.28218   0.59405   0.00000  Uiso   1.00
H308   H     0.68006   0.10208   0.66674   0.00000  Uiso   1.00
H309   H     0.74374   0.38495   0.54033   0.00000  Uiso   1.00
H310   H     0.57078   0.37988   0.58944   0.00000  Uiso   1.00
H311   H     0.69349   0.87036   0.72464   0.00000  Uiso   1.00
H312   H     0.82775   0.46685   0.45810   0.00000  Uiso   1.00
H313   H     0.46302   0.45615   0.56167   0.00000  Uiso   1.00
O314   O     0.68860   0.64170   0.69450   0.00000  Uiso   1.00
O315   O     0.86473   0.42428   0.34481   0.00000  Uiso   1.00
O316   O     0.38622   0.41024   0.48068   0.00000  Uiso   1.00
N317   N     0.66846   0.73339   0.60028   0.00000  Uiso   1.00
N318   N     0.79399   0.29105   0.35109   0.00000  Uiso   1.00
N319   N     0.45300   0.28108   0.44790   0.00000  Uiso   1.00
N320   N     0.68450   0.84717   0.68078   0.00000  Uiso   1.00
N321   N     0.81003   0.40483   0.43158   0.00000  Uiso   1.00
N322   N     0.46905   0.39486   0.52840   0.00000  Uiso   1.00
C323   C     0.86295   0.90821   0.45936   0.00000  Uiso   1.00
C324   C     0.85038   0.97918   0.51787   0.00000  Uiso   1.00
C325   C     0.84874   0.10223   0.52222   0.00000  Uiso   1.00
C326   C     0.83648   0.15009   0.57989   0.00000  Uiso   1.00
C327   C     0.81849   0.27134   0.66291   0.00000  Uiso   1.00
C328   C     0.81577   0.82550   0.44919   0.00000  Uiso   1.00
C329   C     0.78505   0.81932   0.39580   0.00000  Uiso   1.00
C330   C     0.74366   0.73780   0.39565   0.00000  Uiso   1.00
C331   C     0.67198   0.62039   0.37204   0.00000  Uiso   1.00
C332   C     0.90975   0.82826   0.47588   0.00000  Uiso   1.00
C333   C     0.95804   0.82439   0.44492   0.00000  Uiso   1.00
C334   C     0.99577   0.74517   0.46723   0.00000  Uiso   1.00
C335   C     0.07000   0.63206   0.48505   0.00000  Uiso   1.00
C336   C     0.84408   0.77440   0.55402   0.00000  Uiso   1.00
C337   C     0.84013   0.90650   0.56928   0.00000  Uiso   1.00
C338   C     0.82787   0.95419   0.62696   0.00000  Uiso   1.00
C339   C     0.82621   0.07728   0.63140   0.00000  Uiso   1.00
C340   C     0.80553   0.75282   0.50061   0.00000  Uiso   1.00
C341   C     0.76417   0.67128   0.50053   0.00000  Uiso   1.00
C342   C     0.73339   0.66499   0.44716   0.00000  Uiso   1.00
C343   C     0.89950   0.75558   0.52730   0.00000  Uiso   1.00
C344   C     0.93716   0.67635   0.54965   0.00000  Uiso   1.00
C345   C     0.98550   0.67236   0.51874   0.00000  Uiso   1.00
H346   H     0.87092   0.96479   0.41932   0.00000  Uiso   1.00
H347   H     0.85667   0.15844   0.48242   0.00000  Uiso   1.00
H348   H     0.79299   0.87557   0.35602   0.00000  Uiso   1.00
H349   H     0.96596   0.88064   0.40513   0.00000  Uiso   1.00
H350   H     0.83633   0.34109   0.57504   0.00000  Uiso   1.00
H351   H     0.70207   0.74461   0.30851   0.00000  Uiso   1.00
H352   H     0.06680   0.75530   0.41207   0.00000  Uiso   1.00
H353   H     0.83610   0.71782   0.59405   0.00000  Uiso   1.00
H354   H     0.81994   0.89792   0.66674   0.00000  Uiso   1.00
H355   H     0.75626   0.61505   0.54033   0.00000  Uiso   1.00
H356   H     0.92922   0.62012   0.58944   0.00000  Uiso   1.00
H357   H     0.80651   0.12964   0.72464   0.00000  Uiso   1.00
H358   H     0.67225   0.53315   0.45810   0.00000  Uiso   1.00
H359   H     0.03698   0.54385   0.56167   0.00000  Uiso   1.00
O360   O     0.81140   0.35830   0.69450   0.00000  Uiso   1.00
O361   O     0.63527   0.57572   0.34481   0.00000  Uiso   1.00
O362   O     0.11378   0.58976   0.48068   0.00000  Uiso   1.00
N363   N     0.83154   0.26661   0.60028   0.00000  Uiso   1.00
N364   N     0.70601   0.70895   0.35109   0.00000  Uiso   1.00
N365   N     0.04700   0.71892   0.44790   0.00000  Uiso   1.00
N366   N     0.81550   0.15283   0.68078   0.00000  Uiso   1.00
N367   N     0.68997   0.59517   0.43158   0.00000  Uiso   1.00
N368   N     0.03095   0.60514   0.52840   0.00000  Uiso   1.00
