data_job_03165
_audit_creation_date              2018-12-19
_audit_creation_method            'Materials Studio'
_symmetry_space_group_name_H-M    'P1'
_symmetry_Int_Tables_number       1
_symmetry_cell_setting            triclinic
loop_
_symmetry_equiv_pos_as_xyz
  x,y,z
_cell_length_a                    12.3847
_cell_length_b                    41.2651
_cell_length_c                    26.0588
_cell_angle_alpha                 90.0000
_cell_angle_beta                  111.8179
_cell_angle_gamma                 90.0000
loop_
_atom_site_label
_atom_site_type_symbol
_atom_site_fract_x
_atom_site_fract_y
_atom_site_fract_z
_atom_site_U_iso_or_equiv
_atom_site_adp_type
_atom_site_occupancy
C1     C     0.93347   0.33669   0.47682   0.00000  Uiso   1.00
C2     C     0.03383   0.31505   0.51156   0.00000  Uiso   1.00
C3     C     0.04412   0.30011   0.56088   0.00000  Uiso   1.00
C4     C     0.14251   0.28128   0.58636   0.00000  Uiso   1.00
C5     C     0.28544   0.24826   0.64383   0.00000  Uiso   1.00
C6     C     0.98819   0.36879   0.47047   0.00000  Uiso   1.00
C7     C     0.96010   0.39904   0.48522   0.00000  Uiso   1.00
C8     C     0.02006   0.42546   0.47610   0.00000  Uiso   1.00
C9     C     0.09208   0.47589   0.46972   0.00000  Uiso   1.00
C10    C     0.88560   0.32152   0.41936   0.00000  Uiso   1.00
C11    C     0.77123   0.31203   0.39113   0.00000  Uiso   1.00
C12    C     0.74481   0.29866   0.33898   0.00000  Uiso   1.00
C13    C     0.65753   0.27569   0.25326   0.00000  Uiso   1.00
C14    C     0.08989   0.32983   0.43439   0.00000  Uiso   1.00
C15    C     0.11879   0.31132   0.48852   0.00000  Uiso   1.00
C16    C     0.21719   0.29252   0.51393   0.00000  Uiso   1.00
C17    C     0.22762   0.27755   0.56327   0.00000  Uiso   1.00
C18    C     0.07315   0.36507   0.44742   0.00000  Uiso   1.00
C19    C     0.13316   0.39145   0.43827   0.00000  Uiso   1.00
C20    C     0.10517   0.42173   0.45301   0.00000  Uiso   1.00
C21    C     0.97056   0.31780   0.39631   0.00000  Uiso   1.00
C22    C     0.94430   0.30444   0.34419   0.00000  Uiso   1.00
C23    C     0.82992   0.29493   0.31589   0.00000  Uiso   1.00
H24    H     0.86733   0.33959   0.49476   0.00000  Uiso   1.00
H25    H     0.97836   0.30300   0.57870   0.00000  Uiso   1.00
H26    H     0.89434   0.40192   0.50305   0.00000  Uiso   1.00
H27    H     0.70551   0.31492   0.40898   0.00000  Uiso   1.00
H28    H     0.13895   0.26079   0.66161   0.00000  Uiso   1.00
H29    H     0.96176   0.46937   0.50207   0.00000  Uiso   1.00
H30    H     0.56357   0.28592   0.30371   0.00000  Uiso   1.00
H31    H     0.15604   0.32693   0.41645   0.00000  Uiso   1.00
H32    H     0.28292   0.28964   0.49609   0.00000  Uiso   1.00
H33    H     0.19890   0.38856   0.42043   0.00000  Uiso   1.00
H34    H     0.01007   0.30156   0.32637   0.00000  Uiso   1.00
H35    H     0.38615   0.24995   0.59456   0.00000  Uiso   1.00
H36    H     0.20895   0.45853   0.43502   0.00000  Uiso   1.00
H37    H     0.81077   0.27508   0.23666   0.00000  Uiso   1.00
O38    O     0.34082   0.23108   0.68189   0.00000  Uiso   1.00
O39    O     0.10833   0.50473   0.47258   0.00000  Uiso   1.00
O40    O     0.58593   0.26405   0.21234   0.00000  Uiso   1.00
N41    N     0.17970   0.26335   0.63489   0.00000  Uiso   1.00
N42    N     0.01405   0.45836   0.48574   0.00000  Uiso   1.00
N43    N     0.64177   0.28686   0.30029   0.00000  Uiso   1.00
N44    N     0.31272   0.25752   0.59881   0.00000  Uiso   1.00
N45    N     0.14707   0.45253   0.44966   0.00000  Uiso   1.00
N46    N     0.77479   0.28103   0.26421   0.00000  Uiso   1.00
C47    C     0.43347   0.83669   0.47682   0.00000  Uiso   1.00
C48    C     0.53383   0.81505   0.51156   0.00000  Uiso   1.00
C49    C     0.54412   0.80011   0.56088   0.00000  Uiso   1.00
C50    C     0.64251   0.78128   0.58636   0.00000  Uiso   1.00
C51    C     0.78544   0.74826   0.64383   0.00000  Uiso   1.00
C52    C     0.48819   0.86879   0.47047   0.00000  Uiso   1.00
C53    C     0.46010   0.89904   0.48522   0.00000  Uiso   1.00
C54    C     0.52006   0.92546   0.47610   0.00000  Uiso   1.00
C55    C     0.59208   0.97589   0.46972   0.00000  Uiso   1.00
C56    C     0.38560   0.82152   0.41936   0.00000  Uiso   1.00
C57    C     0.27123   0.81203   0.39113   0.00000  Uiso   1.00
C58    C     0.24481   0.79866   0.33898   0.00000  Uiso   1.00
C59    C     0.15753   0.77569   0.25326   0.00000  Uiso   1.00
C60    C     0.58989   0.82983   0.43439   0.00000  Uiso   1.00
C61    C     0.61879   0.81132   0.48852   0.00000  Uiso   1.00
C62    C     0.71719   0.79252   0.51393   0.00000  Uiso   1.00
C63    C     0.72762   0.77755   0.56327   0.00000  Uiso   1.00
C64    C     0.57315   0.86507   0.44742   0.00000  Uiso   1.00
C65    C     0.63316   0.89145   0.43827   0.00000  Uiso   1.00
C66    C     0.60517   0.92173   0.45301   0.00000  Uiso   1.00
C67    C     0.47056   0.81780   0.39631   0.00000  Uiso   1.00
C68    C     0.44430   0.80444   0.34419   0.00000  Uiso   1.00
C69    C     0.32992   0.79493   0.31589   0.00000  Uiso   1.00
H70    H     0.36733   0.83959   0.49476   0.00000  Uiso   1.00
H71    H     0.47836   0.80300   0.57870   0.00000  Uiso   1.00
H72    H     0.39434   0.90192   0.50305   0.00000  Uiso   1.00
H73    H     0.20551   0.81492   0.40898   0.00000  Uiso   1.00
H74    H     0.63895   0.76079   0.66161   0.00000  Uiso   1.00
H75    H     0.46176   0.96937   0.50207   0.00000  Uiso   1.00
H76    H     0.06357   0.78592   0.30371   0.00000  Uiso   1.00
H77    H     0.65604   0.82693   0.41645   0.00000  Uiso   1.00
H78    H     0.78292   0.78964   0.49609   0.00000  Uiso   1.00
H79    H     0.69890   0.88856   0.42043   0.00000  Uiso   1.00
H80    H     0.51007   0.80156   0.32637   0.00000  Uiso   1.00
H81    H     0.88615   0.74995   0.59456   0.00000  Uiso   1.00
H82    H     0.70895   0.95853   0.43502   0.00000  Uiso   1.00
H83    H     0.31077   0.77508   0.23666   0.00000  Uiso   1.00
O84    O     0.84082   0.73108   0.68189   0.00000  Uiso   1.00
O85    O     0.60833   0.00473   0.47258   0.00000  Uiso   1.00
O86    O     0.08593   0.76405   0.21234   0.00000  Uiso   1.00
N87    N     0.67970   0.76335   0.63489   0.00000  Uiso   1.00
N88    N     0.51405   0.95836   0.48574   0.00000  Uiso   1.00
N89    N     0.14177   0.78686   0.30029   0.00000  Uiso   1.00
N90    N     0.81272   0.75752   0.59881   0.00000  Uiso   1.00
N91    N     0.64707   0.95253   0.44966   0.00000  Uiso   1.00
N92    N     0.27479   0.78103   0.26421   0.00000  Uiso   1.00
C93    C     0.06653   0.33669   0.02318   0.00000  Uiso   1.00
C94    C     0.96617   0.31505   0.98844   0.00000  Uiso   1.00
C95    C     0.95588   0.30011   0.93912   0.00000  Uiso   1.00
C96    C     0.85749   0.28128   0.91364   0.00000  Uiso   1.00
C97    C     0.71456   0.24826   0.85617   0.00000  Uiso   1.00
C98    C     0.01181   0.36879   0.02953   0.00000  Uiso   1.00
C99    C     0.03990   0.39904   0.01478   0.00000  Uiso   1.00
C100   C     0.97994   0.42546   0.02390   0.00000  Uiso   1.00
C101   C     0.90792   0.47589   0.03028   0.00000  Uiso   1.00
C102   C     0.11440   0.32152   0.08064   0.00000  Uiso   1.00
C103   C     0.22877   0.31203   0.10887   0.00000  Uiso   1.00
C104   C     0.25519   0.29866   0.16102   0.00000  Uiso   1.00
C105   C     0.34247   0.27569   0.24674   0.00000  Uiso   1.00
C106   C     0.91011   0.32983   0.06561   0.00000  Uiso   1.00
C107   C     0.88121   0.31132   0.01148   0.00000  Uiso   1.00
C108   C     0.78281   0.29252   0.98607   0.00000  Uiso   1.00
C109   C     0.77238   0.27755   0.93673   0.00000  Uiso   1.00
C110   C     0.92685   0.36507   0.05258   0.00000  Uiso   1.00
C111   C     0.86684   0.39145   0.06173   0.00000  Uiso   1.00
C112   C     0.89483   0.42173   0.04699   0.00000  Uiso   1.00
C113   C     0.02944   0.31780   0.10369   0.00000  Uiso   1.00
C114   C     0.05570   0.30444   0.15581   0.00000  Uiso   1.00
C115   C     0.17008   0.29493   0.18411   0.00000  Uiso   1.00
H116   H     0.13267   0.33959   0.00524   0.00000  Uiso   1.00
H117   H     0.02164   0.30300   0.92130   0.00000  Uiso   1.00
H118   H     0.10566   0.40192   0.99695   0.00000  Uiso   1.00
H119   H     0.29449   0.31492   0.09102   0.00000  Uiso   1.00
H120   H     0.86105   0.26079   0.83839   0.00000  Uiso   1.00
H121   H     0.03824   0.46937   0.99793   0.00000  Uiso   1.00
H122   H     0.43643   0.28592   0.19629   0.00000  Uiso   1.00
H123   H     0.84396   0.32693   0.08355   0.00000  Uiso   1.00
H124   H     0.71708   0.28964   0.00391   0.00000  Uiso   1.00
H125   H     0.80110   0.38856   0.07957   0.00000  Uiso   1.00
H126   H     0.98993   0.30156   0.17363   0.00000  Uiso   1.00
H127   H     0.61385   0.24995   0.90544   0.00000  Uiso   1.00
H128   H     0.79105   0.45853   0.06498   0.00000  Uiso   1.00
H129   H     0.18923   0.27508   0.26334   0.00000  Uiso   1.00
O130   O     0.65918   0.23108   0.81811   0.00000  Uiso   1.00
O131   O     0.89167   0.50473   0.02742   0.00000  Uiso   1.00
O132   O     0.41407   0.26405   0.28766   0.00000  Uiso   1.00
N133   N     0.82030   0.26335   0.86511   0.00000  Uiso   1.00
N134   N     0.98595   0.45836   0.01426   0.00000  Uiso   1.00
N135   N     0.35823   0.28686   0.19971   0.00000  Uiso   1.00
N136   N     0.68728   0.25752   0.90119   0.00000  Uiso   1.00
N137   N     0.85293   0.45253   0.05034   0.00000  Uiso   1.00
N138   N     0.22521   0.28103   0.23579   0.00000  Uiso   1.00
C139   C     0.56653   0.83669   0.02318   0.00000  Uiso   1.00
C140   C     0.46617   0.81505   0.98844   0.00000  Uiso   1.00
C141   C     0.45588   0.80011   0.93912   0.00000  Uiso   1.00
C142   C     0.35749   0.78128   0.91364   0.00000  Uiso   1.00
C143   C     0.21456   0.74826   0.85617   0.00000  Uiso   1.00
C144   C     0.51181   0.86879   0.02953   0.00000  Uiso   1.00
C145   C     0.53990   0.89904   0.01478   0.00000  Uiso   1.00
C146   C     0.47994   0.92546   0.02390   0.00000  Uiso   1.00
C147   C     0.40792   0.97589   0.03028   0.00000  Uiso   1.00
C148   C     0.61440   0.82152   0.08064   0.00000  Uiso   1.00
C149   C     0.72877   0.81203   0.10887   0.00000  Uiso   1.00
C150   C     0.75519   0.79866   0.16102   0.00000  Uiso   1.00
C151   C     0.84247   0.77569   0.24674   0.00000  Uiso   1.00
C152   C     0.41011   0.82983   0.06561   0.00000  Uiso   1.00
C153   C     0.38121   0.81132   0.01148   0.00000  Uiso   1.00
C154   C     0.28281   0.79252   0.98607   0.00000  Uiso   1.00
C155   C     0.27238   0.77755   0.93673   0.00000  Uiso   1.00
C156   C     0.42685   0.86507   0.05258   0.00000  Uiso   1.00
C157   C     0.36684   0.89145   0.06173   0.00000  Uiso   1.00
C158   C     0.39483   0.92173   0.04699   0.00000  Uiso   1.00
C159   C     0.52944   0.81780   0.10369   0.00000  Uiso   1.00
C160   C     0.55570   0.80444   0.15581   0.00000  Uiso   1.00
C161   C     0.67008   0.79493   0.18411   0.00000  Uiso   1.00
H162   H     0.63267   0.83959   0.00524   0.00000  Uiso   1.00
H163   H     0.52164   0.80300   0.92130   0.00000  Uiso   1.00
H164   H     0.60566   0.90192   0.99695   0.00000  Uiso   1.00
H165   H     0.79449   0.81492   0.09102   0.00000  Uiso   1.00
H166   H     0.36105   0.76079   0.83839   0.00000  Uiso   1.00
H167   H     0.53824   0.96937   0.99793   0.00000  Uiso   1.00
H168   H     0.93643   0.78592   0.19629   0.00000  Uiso   1.00
H169   H     0.34396   0.82693   0.08355   0.00000  Uiso   1.00
H170   H     0.21708   0.78964   0.00391   0.00000  Uiso   1.00
H171   H     0.30110   0.88856   0.07957   0.00000  Uiso   1.00
H172   H     0.48993   0.80156   0.17363   0.00000  Uiso   1.00
H173   H     0.11385   0.74995   0.90544   0.00000  Uiso   1.00
H174   H     0.29105   0.95853   0.06498   0.00000  Uiso   1.00
H175   H     0.68923   0.77508   0.26334   0.00000  Uiso   1.00
O176   O     0.15918   0.73108   0.81811   0.00000  Uiso   1.00
O177   O     0.39167   0.00473   0.02742   0.00000  Uiso   1.00
O178   O     0.91407   0.76405   0.28766   0.00000  Uiso   1.00
N179   N     0.32030   0.76335   0.86511   0.00000  Uiso   1.00
N180   N     0.48595   0.95836   0.01426   0.00000  Uiso   1.00
N181   N     0.85823   0.78686   0.19971   0.00000  Uiso   1.00
N182   N     0.18728   0.75752   0.90119   0.00000  Uiso   1.00
N183   N     0.35293   0.95253   0.05034   0.00000  Uiso   1.00
N184   N     0.72521   0.78103   0.23579   0.00000  Uiso   1.00
C185   C     0.06653   0.66331   0.52318   0.00000  Uiso   1.00
C186   C     0.96617   0.68495   0.48844   0.00000  Uiso   1.00
C187   C     0.95588   0.69989   0.43912   0.00000  Uiso   1.00
C188   C     0.85749   0.71872   0.41364   0.00000  Uiso   1.00
C189   C     0.71456   0.75174   0.35617   0.00000  Uiso   1.00
C190   C     0.01181   0.63121   0.52953   0.00000  Uiso   1.00
C191   C     0.03990   0.60096   0.51478   0.00000  Uiso   1.00
C192   C     0.97994   0.57454   0.52390   0.00000  Uiso   1.00
C193   C     0.90792   0.52411   0.53028   0.00000  Uiso   1.00
C194   C     0.11440   0.67848   0.58064   0.00000  Uiso   1.00
C195   C     0.22877   0.68797   0.60887   0.00000  Uiso   1.00
C196   C     0.25519   0.70134   0.66102   0.00000  Uiso   1.00
C197   C     0.34247   0.72431   0.74674   0.00000  Uiso   1.00
C198   C     0.91011   0.67017   0.56561   0.00000  Uiso   1.00
C199   C     0.88121   0.68868   0.51148   0.00000  Uiso   1.00
C200   C     0.78281   0.70748   0.48607   0.00000  Uiso   1.00
C201   C     0.77238   0.72245   0.43673   0.00000  Uiso   1.00
C202   C     0.92685   0.63493   0.55258   0.00000  Uiso   1.00
C203   C     0.86684   0.60855   0.56173   0.00000  Uiso   1.00
C204   C     0.89483   0.57827   0.54699   0.00000  Uiso   1.00
C205   C     0.02944   0.68220   0.60369   0.00000  Uiso   1.00
C206   C     0.05570   0.69556   0.65581   0.00000  Uiso   1.00
C207   C     0.17008   0.70507   0.68411   0.00000  Uiso   1.00
H208   H     0.13267   0.66041   0.50524   0.00000  Uiso   1.00
H209   H     0.02164   0.69700   0.42130   0.00000  Uiso   1.00
H210   H     0.10566   0.59808   0.49695   0.00000  Uiso   1.00
H211   H     0.29449   0.68508   0.59102   0.00000  Uiso   1.00
H212   H     0.86105   0.73921   0.33839   0.00000  Uiso   1.00
H213   H     0.03824   0.53063   0.49793   0.00000  Uiso   1.00
H214   H     0.43643   0.71408   0.69629   0.00000  Uiso   1.00
H215   H     0.84396   0.67307   0.58355   0.00000  Uiso   1.00
H216   H     0.71708   0.71036   0.50391   0.00000  Uiso   1.00
H217   H     0.80110   0.61144   0.57957   0.00000  Uiso   1.00
H218   H     0.98993   0.69844   0.67363   0.00000  Uiso   1.00
H219   H     0.61385   0.75005   0.40544   0.00000  Uiso   1.00
H220   H     0.79105   0.54147   0.56498   0.00000  Uiso   1.00
H221   H     0.18923   0.72492   0.76334   0.00000  Uiso   1.00
O222   O     0.65918   0.76892   0.31811   0.00000  Uiso   1.00
O223   O     0.89167   0.49527   0.52742   0.00000  Uiso   1.00
O224   O     0.41407   0.73595   0.78766   0.00000  Uiso   1.00
N225   N     0.82030   0.73665   0.36511   0.00000  Uiso   1.00
N226   N     0.98595   0.54164   0.51426   0.00000  Uiso   1.00
N227   N     0.35823   0.71314   0.69971   0.00000  Uiso   1.00
N228   N     0.68728   0.74248   0.40119   0.00000  Uiso   1.00
N229   N     0.85293   0.54747   0.55034   0.00000  Uiso   1.00
N230   N     0.22521   0.71897   0.73579   0.00000  Uiso   1.00
C231   C     0.56653   0.16331   0.52318   0.00000  Uiso   1.00
C232   C     0.46617   0.18495   0.48844   0.00000  Uiso   1.00
C233   C     0.45588   0.19989   0.43912   0.00000  Uiso   1.00
C234   C     0.35749   0.21872   0.41364   0.00000  Uiso   1.00
C235   C     0.21456   0.25174   0.35617   0.00000  Uiso   1.00
C236   C     0.51181   0.13121   0.52953   0.00000  Uiso   1.00
C237   C     0.53990   0.10096   0.51478   0.00000  Uiso   1.00
C238   C     0.47994   0.07454   0.52390   0.00000  Uiso   1.00
C239   C     0.40792   0.02411   0.53028   0.00000  Uiso   1.00
C240   C     0.61440   0.17848   0.58064   0.00000  Uiso   1.00
C241   C     0.72877   0.18797   0.60887   0.00000  Uiso   1.00
C242   C     0.75519   0.20134   0.66102   0.00000  Uiso   1.00
C243   C     0.84247   0.22431   0.74674   0.00000  Uiso   1.00
C244   C     0.41011   0.17017   0.56561   0.00000  Uiso   1.00
C245   C     0.38121   0.18868   0.51148   0.00000  Uiso   1.00
C246   C     0.28281   0.20748   0.48607   0.00000  Uiso   1.00
C247   C     0.27238   0.22245   0.43673   0.00000  Uiso   1.00
C248   C     0.42685   0.13493   0.55258   0.00000  Uiso   1.00
C249   C     0.36684   0.10855   0.56173   0.00000  Uiso   1.00
C250   C     0.39483   0.07827   0.54699   0.00000  Uiso   1.00
C251   C     0.52944   0.18220   0.60369   0.00000  Uiso   1.00
C252   C     0.55570   0.19556   0.65581   0.00000  Uiso   1.00
C253   C     0.67008   0.20507   0.68411   0.00000  Uiso   1.00
H254   H     0.63267   0.16041   0.50524   0.00000  Uiso   1.00
H255   H     0.52164   0.19700   0.42130   0.00000  Uiso   1.00
H256   H     0.60566   0.09808   0.49695   0.00000  Uiso   1.00
H257   H     0.79449   0.18508   0.59102   0.00000  Uiso   1.00
H258   H     0.36105   0.23921   0.33839   0.00000  Uiso   1.00
H259   H     0.53824   0.03063   0.49793   0.00000  Uiso   1.00
H260   H     0.93643   0.21408   0.69629   0.00000  Uiso   1.00
H261   H     0.34396   0.17307   0.58355   0.00000  Uiso   1.00
H262   H     0.21708   0.21036   0.50391   0.00000  Uiso   1.00
H263   H     0.30110   0.11144   0.57957   0.00000  Uiso   1.00
H264   H     0.48993   0.19844   0.67363   0.00000  Uiso   1.00
H265   H     0.11385   0.25005   0.40544   0.00000  Uiso   1.00
H266   H     0.29105   0.04147   0.56498   0.00000  Uiso   1.00
H267   H     0.68923   0.22492   0.76334   0.00000  Uiso   1.00
O268   O     0.15918   0.26892   0.31811   0.00000  Uiso   1.00
O269   O     0.39167   0.99527   0.52742   0.00000  Uiso   1.00
O270   O     0.91407   0.23595   0.78766   0.00000  Uiso   1.00
N271   N     0.32030   0.23665   0.36511   0.00000  Uiso   1.00
N272   N     0.48595   0.04164   0.51426   0.00000  Uiso   1.00
N273   N     0.85823   0.21314   0.69971   0.00000  Uiso   1.00
N274   N     0.18728   0.24248   0.40119   0.00000  Uiso   1.00
N275   N     0.35293   0.04747   0.55034   0.00000  Uiso   1.00
N276   N     0.72521   0.21897   0.73579   0.00000  Uiso   1.00
C277   C     0.93347   0.66331   0.97682   0.00000  Uiso   1.00
C278   C     0.03383   0.68495   0.01156   0.00000  Uiso   1.00
C279   C     0.04412   0.69989   0.06088   0.00000  Uiso   1.00
C280   C     0.14251   0.71872   0.08636   0.00000  Uiso   1.00
C281   C     0.28544   0.75174   0.14383   0.00000  Uiso   1.00
C282   C     0.98819   0.63121   0.97047   0.00000  Uiso   1.00
C283   C     0.96010   0.60096   0.98522   0.00000  Uiso   1.00
C284   C     0.02006   0.57454   0.97610   0.00000  Uiso   1.00
C285   C     0.09208   0.52411   0.96972   0.00000  Uiso   1.00
C286   C     0.88560   0.67848   0.91936   0.00000  Uiso   1.00
C287   C     0.77123   0.68797   0.89113   0.00000  Uiso   1.00
C288   C     0.74481   0.70134   0.83898   0.00000  Uiso   1.00
C289   C     0.65753   0.72431   0.75326   0.00000  Uiso   1.00
C290   C     0.08989   0.67017   0.93439   0.00000  Uiso   1.00
C291   C     0.11879   0.68868   0.98852   0.00000  Uiso   1.00
C292   C     0.21719   0.70748   0.01393   0.00000  Uiso   1.00
C293   C     0.22762   0.72245   0.06327   0.00000  Uiso   1.00
C294   C     0.07315   0.63493   0.94742   0.00000  Uiso   1.00
C295   C     0.13316   0.60855   0.93827   0.00000  Uiso   1.00
C296   C     0.10517   0.57827   0.95301   0.00000  Uiso   1.00
C297   C     0.97056   0.68220   0.89631   0.00000  Uiso   1.00
C298   C     0.94430   0.69556   0.84419   0.00000  Uiso   1.00
C299   C     0.82992   0.70507   0.81589   0.00000  Uiso   1.00
H300   H     0.86733   0.66041   0.99476   0.00000  Uiso   1.00
H301   H     0.97836   0.69700   0.07870   0.00000  Uiso   1.00
H302   H     0.89434   0.59808   0.00305   0.00000  Uiso   1.00
H303   H     0.70551   0.68508   0.90898   0.00000  Uiso   1.00
H304   H     0.13895   0.73921   0.16161   0.00000  Uiso   1.00
H305   H     0.96176   0.53063   0.00207   0.00000  Uiso   1.00
H306   H     0.56357   0.71408   0.80371   0.00000  Uiso   1.00
H307   H     0.15604   0.67307   0.91645   0.00000  Uiso   1.00
H308   H     0.28292   0.71036   0.99609   0.00000  Uiso   1.00
H309   H     0.19890   0.61144   0.92043   0.00000  Uiso   1.00
H310   H     0.01007   0.69844   0.82637   0.00000  Uiso   1.00
H311   H     0.38615   0.75005   0.09456   0.00000  Uiso   1.00
H312   H     0.20895   0.54147   0.93502   0.00000  Uiso   1.00
H313   H     0.81077   0.72492   0.73666   0.00000  Uiso   1.00
O314   O     0.34082   0.76892   0.18189   0.00000  Uiso   1.00
O315   O     0.10833   0.49527   0.97258   0.00000  Uiso   1.00
O316   O     0.58593   0.73595   0.71234   0.00000  Uiso   1.00
N317   N     0.17970   0.73665   0.13489   0.00000  Uiso   1.00
N318   N     0.01405   0.54164   0.98574   0.00000  Uiso   1.00
N319   N     0.64177   0.71314   0.80029   0.00000  Uiso   1.00
N320   N     0.31272   0.74248   0.09881   0.00000  Uiso   1.00
N321   N     0.14707   0.54747   0.94966   0.00000  Uiso   1.00
N322   N     0.77479   0.71897   0.76421   0.00000  Uiso   1.00
C323   C     0.43347   0.16331   0.97682   0.00000  Uiso   1.00
C324   C     0.53383   0.18495   0.01156   0.00000  Uiso   1.00
C325   C     0.54412   0.19989   0.06088   0.00000  Uiso   1.00
C326   C     0.64251   0.21872   0.08636   0.00000  Uiso   1.00
C327   C     0.78544   0.25174   0.14383   0.00000  Uiso   1.00
C328   C     0.48819   0.13121   0.97047   0.00000  Uiso   1.00
C329   C     0.46010   0.10096   0.98522   0.00000  Uiso   1.00
C330   C     0.52006   0.07454   0.97610   0.00000  Uiso   1.00
C331   C     0.59208   0.02411   0.96972   0.00000  Uiso   1.00
C332   C     0.38560   0.17848   0.91936   0.00000  Uiso   1.00
C333   C     0.27123   0.18797   0.89113   0.00000  Uiso   1.00
C334   C     0.24481   0.20134   0.83898   0.00000  Uiso   1.00
C335   C     0.15753   0.22431   0.75326   0.00000  Uiso   1.00
C336   C     0.58989   0.17017   0.93439   0.00000  Uiso   1.00
C337   C     0.61879   0.18868   0.98852   0.00000  Uiso   1.00
C338   C     0.71719   0.20748   0.01393   0.00000  Uiso   1.00
C339   C     0.72762   0.22245   0.06327   0.00000  Uiso   1.00
C340   C     0.57315   0.13493   0.94742   0.00000  Uiso   1.00
C341   C     0.63316   0.10855   0.93827   0.00000  Uiso   1.00
C342   C     0.60517   0.07827   0.95301   0.00000  Uiso   1.00
C343   C     0.47056   0.18220   0.89631   0.00000  Uiso   1.00
C344   C     0.44430   0.19556   0.84419   0.00000  Uiso   1.00
C345   C     0.32992   0.20507   0.81589   0.00000  Uiso   1.00
H346   H     0.36733   0.16041   0.99476   0.00000  Uiso   1.00
H347   H     0.47836   0.19700   0.07870   0.00000  Uiso   1.00
H348   H     0.39434   0.09808   0.00305   0.00000  Uiso   1.00
H349   H     0.20551   0.18508   0.90898   0.00000  Uiso   1.00
H350   H     0.63895   0.23921   0.16161   0.00000  Uiso   1.00
H351   H     0.46176   0.03063   0.00207   0.00000  Uiso   1.00
H352   H     0.06357   0.21408   0.80371   0.00000  Uiso   1.00
H353   H     0.65604   0.17307   0.91645   0.00000  Uiso   1.00
H354   H     0.78292   0.21036   0.99609   0.00000  Uiso   1.00
H355   H     0.69890   0.11144   0.92043   0.00000  Uiso   1.00
H356   H     0.51007   0.19844   0.82637   0.00000  Uiso   1.00
H357   H     0.88615   0.25005   0.09456   0.00000  Uiso   1.00
H358   H     0.70895   0.04147   0.93502   0.00000  Uiso   1.00
H359   H     0.31077   0.22492   0.73666   0.00000  Uiso   1.00
O360   O     0.84082   0.26892   0.18189   0.00000  Uiso   1.00
O361   O     0.60833   0.99527   0.97258   0.00000  Uiso   1.00
O362   O     0.08593   0.23595   0.71234   0.00000  Uiso   1.00
N363   N     0.67970   0.23665   0.13489   0.00000  Uiso   1.00
N364   N     0.51405   0.04164   0.98574   0.00000  Uiso   1.00
N365   N     0.14177   0.21314   0.80029   0.00000  Uiso   1.00
N366   N     0.81272   0.24248   0.09881   0.00000  Uiso   1.00
N367   N     0.64707   0.04747   0.94966   0.00000  Uiso   1.00
N368   N     0.27479   0.21897   0.76421   0.00000  Uiso   1.00
