data_job_03016
_audit_creation_date              2018-12-19
_audit_creation_method            'Materials Studio'
_symmetry_space_group_name_H-M    'P1'
_symmetry_Int_Tables_number       1
_symmetry_cell_setting            triclinic
loop_
_symmetry_equiv_pos_as_xyz
  x,y,z
_cell_length_a                    23.0277
_cell_length_b                    7.8092
_cell_length_c                    30.4999
_cell_angle_alpha                 90.0000
_cell_angle_beta                  127.0894
_cell_angle_gamma                 90.0000
loop_
_atom_site_label
_atom_site_type_symbol
_atom_site_fract_x
_atom_site_fract_y
_atom_site_fract_z
_atom_site_U_iso_or_equiv
_atom_site_adp_type
_atom_site_occupancy
C1     C     0.84099   0.82064   0.64515   0.00000  Uiso   1.00
C2     C     0.75881   0.82977   0.60104   0.00000  Uiso   1.00
C3     C     0.70932   0.70187   0.58897   0.00000  Uiso   1.00
C4     C     0.63646   0.73495   0.54714   0.00000  Uiso   1.00
C5     C     0.51229   0.72543   0.48299   0.00000  Uiso   1.00
C6     C     0.87488   0.85350   0.61573   0.00000  Uiso   1.00
C7     C     0.92300   0.74557   0.61602   0.00000  Uiso   1.00
C8     C     0.94786   0.79865   0.58655   0.00000  Uiso   1.00
C9     C     0.00393   0.82605   0.54524   0.00000  Uiso   1.00
C10    C     0.86091   0.97478   0.68247   0.00000  Uiso   1.00
C11    C     0.89729   0.96882   0.73889   0.00000  Uiso   1.00
C12    C     0.91040   0.12402   0.76562   0.00000  Uiso   1.00
C13    C     0.94477   0.33971   0.82795   0.00000  Uiso   1.00
C14    C     0.79960   0.10683   0.59231   0.00000  Uiso   1.00
C15    C     0.73633   0.98521   0.57234   0.00000  Uiso   1.00
C16    C     0.66353   0.01850   0.53052   0.00000  Uiso   1.00
C17    C     0.61394   0.89068   0.51839   0.00000  Uiso   1.00
C18    C     0.85241   0.00894   0.58703   0.00000  Uiso   1.00
C19    C     0.87721   0.06221   0.55756   0.00000  Uiso   1.00
C20    C     0.92534   0.95438   0.55780   0.00000  Uiso   1.00
C21    C     0.83843   0.13023   0.65378   0.00000  Uiso   1.00
C22    C     0.85149   0.28546   0.68043   0.00000  Uiso   1.00
C23    C     0.88788   0.27974   0.73687   0.00000  Uiso   1.00
H24    H     0.85849   0.69962   0.66749   0.00000  Uiso   1.00
H25    H     0.72674   0.58158   0.61119   0.00000  Uiso   1.00
H26    H     0.94039   0.62529   0.63823   0.00000  Uiso   1.00
H27    H     0.91468   0.84851   0.76108   0.00000  Uiso   1.00
H28    H     0.57076   0.51924   0.53610   0.00000  Uiso   1.00
H29    H     0.02126   0.61143   0.59313   0.00000  Uiso   1.00
H30    H     0.96705   0.08213   0.85219   0.00000  Uiso   1.00
H31    H     0.78210   0.22786   0.56997   0.00000  Uiso   1.00
H32    H     0.64615   0.13881   0.50831   0.00000  Uiso   1.00
H33    H     0.85980   0.18251   0.53536   0.00000  Uiso   1.00
H34    H     0.83409   0.40573   0.65821   0.00000  Uiso   1.00
H35    H     0.50535   0.97150   0.45260   0.00000  Uiso   1.00
H36    H     0.95586   0.06369   0.50964   0.00000  Uiso   1.00
H37    H     0.90164   0.53439   0.76869   0.00000  Uiso   1.00
O38    O     0.45000   0.67723   0.45553   0.00000  Uiso   1.00
O39    O     0.04106   0.79820   0.53038   0.00000  Uiso   1.00
O40    O     0.96993   0.41574   0.87025   0.00000  Uiso   1.00
N41    N     0.57402   0.63791   0.52491   0.00000  Uiso   1.00
N42    N     0.99521   0.72409   0.57823   0.00000  Uiso   1.00
N43    N     0.94454   0.16416   0.82043   0.00000  Uiso   1.00
N44    N     0.53882   0.88127   0.47998   0.00000  Uiso   1.00
N45    N     0.96001   0.96745   0.53330   0.00000  Uiso   1.00
N46    N     0.90934   0.40752   0.77550   0.00000  Uiso   1.00
C47    C     0.15901   0.82064   0.85485   0.00000  Uiso   1.00
C48    C     0.24119   0.82977   0.89896   0.00000  Uiso   1.00
C49    C     0.29068   0.70187   0.91103   0.00000  Uiso   1.00
C50    C     0.36354   0.73495   0.95286   0.00000  Uiso   1.00
C51    C     0.48771   0.72543   0.01701   0.00000  Uiso   1.00
C52    C     0.12512   0.85350   0.88427   0.00000  Uiso   1.00
C53    C     0.07700   0.74557   0.88398   0.00000  Uiso   1.00
C54    C     0.05214   0.79865   0.91345   0.00000  Uiso   1.00
C55    C     0.99607   0.82605   0.95476   0.00000  Uiso   1.00
C56    C     0.13909   0.97478   0.81753   0.00000  Uiso   1.00
C57    C     0.10271   0.96882   0.76111   0.00000  Uiso   1.00
C58    C     0.08960   0.12402   0.73438   0.00000  Uiso   1.00
C59    C     0.05523   0.33971   0.67205   0.00000  Uiso   1.00
C60    C     0.20040   0.10683   0.90769   0.00000  Uiso   1.00
C61    C     0.26367   0.98521   0.92766   0.00000  Uiso   1.00
C62    C     0.33647   0.01850   0.96948   0.00000  Uiso   1.00
C63    C     0.38606   0.89068   0.98161   0.00000  Uiso   1.00
C64    C     0.14759   0.00894   0.91297   0.00000  Uiso   1.00
C65    C     0.12279   0.06221   0.94244   0.00000  Uiso   1.00
C66    C     0.07466   0.95438   0.94220   0.00000  Uiso   1.00
C67    C     0.16157   0.13023   0.84622   0.00000  Uiso   1.00
C68    C     0.14851   0.28546   0.81957   0.00000  Uiso   1.00
C69    C     0.11212   0.27974   0.76313   0.00000  Uiso   1.00
H70    H     0.14151   0.69962   0.83251   0.00000  Uiso   1.00
H71    H     0.27326   0.58158   0.88881   0.00000  Uiso   1.00
H72    H     0.05961   0.62529   0.86177   0.00000  Uiso   1.00
H73    H     0.08532   0.84851   0.73892   0.00000  Uiso   1.00
H74    H     0.42924   0.51924   0.96390   0.00000  Uiso   1.00
H75    H     0.97874   0.61143   0.90687   0.00000  Uiso   1.00
H76    H     0.03295   0.08213   0.64781   0.00000  Uiso   1.00
H77    H     0.21790   0.22786   0.93003   0.00000  Uiso   1.00
H78    H     0.35385   0.13881   0.99169   0.00000  Uiso   1.00
H79    H     0.14020   0.18251   0.96464   0.00000  Uiso   1.00
H80    H     0.16591   0.40573   0.84179   0.00000  Uiso   1.00
H81    H     0.49465   0.97150   0.04740   0.00000  Uiso   1.00
H82    H     0.04414   0.06369   0.99036   0.00000  Uiso   1.00
H83    H     0.09836   0.53439   0.73131   0.00000  Uiso   1.00
O84    O     0.55000   0.67723   0.04447   0.00000  Uiso   1.00
O85    O     0.95894   0.79820   0.96962   0.00000  Uiso   1.00
O86    O     0.03007   0.41574   0.62975   0.00000  Uiso   1.00
N87    N     0.42598   0.63791   0.97509   0.00000  Uiso   1.00
N88    N     0.00479   0.72409   0.92177   0.00000  Uiso   1.00
N89    N     0.05546   0.16416   0.67957   0.00000  Uiso   1.00
N90    N     0.46118   0.88127   0.02002   0.00000  Uiso   1.00
N91    N     0.03999   0.96745   0.96670   0.00000  Uiso   1.00
N92    N     0.09066   0.40752   0.72450   0.00000  Uiso   1.00
C93    C     0.15901   0.17936   0.35485   0.00000  Uiso   1.00
C94    C     0.24119   0.17023   0.39896   0.00000  Uiso   1.00
C95    C     0.29068   0.29813   0.41103   0.00000  Uiso   1.00
C96    C     0.36354   0.26505   0.45286   0.00000  Uiso   1.00
C97    C     0.48771   0.27457   0.51701   0.00000  Uiso   1.00
C98    C     0.12512   0.14650   0.38427   0.00000  Uiso   1.00
C99    C     0.07700   0.25443   0.38398   0.00000  Uiso   1.00
C100   C     0.05214   0.20135   0.41345   0.00000  Uiso   1.00
C101   C     0.99607   0.17395   0.45476   0.00000  Uiso   1.00
C102   C     0.13909   0.02522   0.31753   0.00000  Uiso   1.00
C103   C     0.10271   0.03118   0.26111   0.00000  Uiso   1.00
C104   C     0.08960   0.87598   0.23438   0.00000  Uiso   1.00
C105   C     0.05523   0.66029   0.17205   0.00000  Uiso   1.00
C106   C     0.20040   0.89317   0.40769   0.00000  Uiso   1.00
C107   C     0.26367   0.01479   0.42766   0.00000  Uiso   1.00
C108   C     0.33647   0.98150   0.46948   0.00000  Uiso   1.00
C109   C     0.38606   0.10932   0.48161   0.00000  Uiso   1.00
C110   C     0.14759   0.99106   0.41297   0.00000  Uiso   1.00
C111   C     0.12279   0.93779   0.44244   0.00000  Uiso   1.00
C112   C     0.07466   0.04562   0.44220   0.00000  Uiso   1.00
C113   C     0.16157   0.86977   0.34622   0.00000  Uiso   1.00
C114   C     0.14851   0.71454   0.31957   0.00000  Uiso   1.00
C115   C     0.11212   0.72026   0.26313   0.00000  Uiso   1.00
H116   H     0.14151   0.30038   0.33251   0.00000  Uiso   1.00
H117   H     0.27326   0.41842   0.38881   0.00000  Uiso   1.00
H118   H     0.05961   0.37471   0.36177   0.00000  Uiso   1.00
H119   H     0.08532   0.15149   0.23892   0.00000  Uiso   1.00
H120   H     0.42924   0.48076   0.46390   0.00000  Uiso   1.00
H121   H     0.97874   0.38857   0.40687   0.00000  Uiso   1.00
H122   H     0.03295   0.91787   0.14781   0.00000  Uiso   1.00
H123   H     0.21790   0.77214   0.43003   0.00000  Uiso   1.00
H124   H     0.35385   0.86119   0.49169   0.00000  Uiso   1.00
H125   H     0.14020   0.81749   0.46464   0.00000  Uiso   1.00
H126   H     0.16591   0.59427   0.34179   0.00000  Uiso   1.00
H127   H     0.49465   0.02850   0.54740   0.00000  Uiso   1.00
H128   H     0.04414   0.93631   0.49036   0.00000  Uiso   1.00
H129   H     0.09836   0.46561   0.23131   0.00000  Uiso   1.00
O130   O     0.55000   0.32277   0.54447   0.00000  Uiso   1.00
O131   O     0.95894   0.20180   0.46962   0.00000  Uiso   1.00
O132   O     0.03007   0.58426   0.12975   0.00000  Uiso   1.00
N133   N     0.42598   0.36209   0.47509   0.00000  Uiso   1.00
N134   N     0.00479   0.27591   0.42177   0.00000  Uiso   1.00
N135   N     0.05546   0.83584   0.17957   0.00000  Uiso   1.00
N136   N     0.46118   0.11873   0.52002   0.00000  Uiso   1.00
N137   N     0.03999   0.03255   0.46670   0.00000  Uiso   1.00
N138   N     0.09066   0.59248   0.22450   0.00000  Uiso   1.00
C139   C     0.84099   0.17936   0.14515   0.00000  Uiso   1.00
C140   C     0.75881   0.17023   0.10104   0.00000  Uiso   1.00
C141   C     0.70932   0.29813   0.08897   0.00000  Uiso   1.00
C142   C     0.63646   0.26505   0.04714   0.00000  Uiso   1.00
C143   C     0.51229   0.27457   0.98299   0.00000  Uiso   1.00
C144   C     0.87488   0.14650   0.11573   0.00000  Uiso   1.00
C145   C     0.92300   0.25443   0.11602   0.00000  Uiso   1.00
C146   C     0.94786   0.20135   0.08655   0.00000  Uiso   1.00
C147   C     0.00393   0.17395   0.04524   0.00000  Uiso   1.00
C148   C     0.86091   0.02522   0.18247   0.00000  Uiso   1.00
C149   C     0.89729   0.03118   0.23889   0.00000  Uiso   1.00
C150   C     0.91040   0.87598   0.26562   0.00000  Uiso   1.00
C151   C     0.94477   0.66029   0.32795   0.00000  Uiso   1.00
C152   C     0.79960   0.89317   0.09231   0.00000  Uiso   1.00
C153   C     0.73633   0.01479   0.07234   0.00000  Uiso   1.00
C154   C     0.66353   0.98150   0.03052   0.00000  Uiso   1.00
C155   C     0.61394   0.10932   0.01839   0.00000  Uiso   1.00
C156   C     0.85241   0.99106   0.08703   0.00000  Uiso   1.00
C157   C     0.87721   0.93779   0.05756   0.00000  Uiso   1.00
C158   C     0.92534   0.04562   0.05780   0.00000  Uiso   1.00
C159   C     0.83843   0.86977   0.15378   0.00000  Uiso   1.00
C160   C     0.85149   0.71454   0.18043   0.00000  Uiso   1.00
C161   C     0.88788   0.72026   0.23687   0.00000  Uiso   1.00
H162   H     0.85849   0.30038   0.16749   0.00000  Uiso   1.00
H163   H     0.72674   0.41842   0.11119   0.00000  Uiso   1.00
H164   H     0.94039   0.37471   0.13823   0.00000  Uiso   1.00
H165   H     0.91468   0.15149   0.26108   0.00000  Uiso   1.00
H166   H     0.57076   0.48076   0.03610   0.00000  Uiso   1.00
H167   H     0.02126   0.38857   0.09313   0.00000  Uiso   1.00
H168   H     0.96705   0.91787   0.35219   0.00000  Uiso   1.00
H169   H     0.78210   0.77214   0.06997   0.00000  Uiso   1.00
H170   H     0.64615   0.86119   0.00831   0.00000  Uiso   1.00
H171   H     0.85980   0.81749   0.03536   0.00000  Uiso   1.00
H172   H     0.83409   0.59427   0.15821   0.00000  Uiso   1.00
H173   H     0.50535   0.02850   0.95260   0.00000  Uiso   1.00
H174   H     0.95586   0.93631   0.00964   0.00000  Uiso   1.00
H175   H     0.90164   0.46561   0.26869   0.00000  Uiso   1.00
O176   O     0.45000   0.32277   0.95553   0.00000  Uiso   1.00
O177   O     0.04106   0.20180   0.03038   0.00000  Uiso   1.00
O178   O     0.96993   0.58426   0.37025   0.00000  Uiso   1.00
N179   N     0.57402   0.36209   0.02491   0.00000  Uiso   1.00
N180   N     0.99521   0.27591   0.07823   0.00000  Uiso   1.00
N181   N     0.94454   0.83584   0.32043   0.00000  Uiso   1.00
N182   N     0.53882   0.11873   0.97998   0.00000  Uiso   1.00
N183   N     0.96001   0.03255   0.03330   0.00000  Uiso   1.00
N184   N     0.90934   0.59248   0.27550   0.00000  Uiso   1.00
