data_job_02809
_audit_creation_date              2018-12-19
_audit_creation_method            'Materials Studio'
_symmetry_space_group_name_H-M    'P1'
_symmetry_Int_Tables_number       1
_symmetry_cell_setting            triclinic
loop_
_symmetry_equiv_pos_as_xyz
  x,y,z
_cell_length_a                    9.3888
_cell_length_b                    9.6511
_cell_length_c                    21.1926
_cell_angle_alpha                 88.4497
_cell_angle_beta                  85.1196
_cell_angle_gamma                 81.6488
loop_
_atom_site_label
_atom_site_type_symbol
_atom_site_fract_x
_atom_site_fract_y
_atom_site_fract_z
_atom_site_U_iso_or_equiv
_atom_site_adp_type
_atom_site_occupancy
C1     C     0.61847   0.23516   0.78547   0.00000  Uiso   1.00
C2     C     0.65768   0.12915   0.83811   0.00000  Uiso   1.00
C3     C     0.79618   0.08287   0.85529   0.00000  Uiso   1.00
C4     C     0.80941   0.98556   0.90467   0.00000  Uiso   1.00
C5     C     0.88871   0.82837   0.98166   0.00000  Uiso   1.00
C6     C     0.53461   0.16234   0.74099   0.00000  Uiso   1.00
C7     C     0.56962   0.14401   0.67651   0.00000  Uiso   1.00
C8     C     0.47923   0.07466   0.64414   0.00000  Uiso   1.00
C9     C     0.36739   0.96910   0.57034   0.00000  Uiso   1.00
C10    C     0.51046   0.35195   0.81648   0.00000  Uiso   1.00
C11    C     0.52513   0.49304   0.81546   0.00000  Uiso   1.00
C12    C     0.41438   0.58333   0.84662   0.00000  Uiso   1.00
C13    C     0.26505   0.77217   0.89003   0.00000  Uiso   1.00
C14    C     0.39569   0.14463   0.84262   0.00000  Uiso   1.00
C15    C     0.53667   0.07997   0.86914   0.00000  Uiso   1.00
C16    C     0.54970   0.98271   0.91851   0.00000  Uiso   1.00
C17    C     0.68819   0.93631   0.93577   0.00000  Uiso   1.00
C18    C     0.41360   0.11317   0.77202   0.00000  Uiso   1.00
C19    C     0.32313   0.04385   0.73974   0.00000  Uiso   1.00
C20    C     0.35800   0.02540   0.67523   0.00000  Uiso   1.00
C21    C     0.38945   0.30278   0.84752   0.00000  Uiso   1.00
C22    C     0.27865   0.39287   0.87868   0.00000  Uiso   1.00
C23    C     0.29316   0.53407   0.87772   0.00000  Uiso   1.00
H24    H     0.71268   0.27344   0.76130   0.00000  Uiso   1.00
H25    H     0.88980   0.12094   0.83125   0.00000  Uiso   1.00
H26    H     0.66326   0.18208   0.65251   0.00000  Uiso   1.00
H27    H     0.61879   0.53105   0.79143   0.00000  Uiso   1.00
H28    H     0.03281   0.93014   0.92248   0.00000  Uiso   1.00
H29    H     0.55511   0.05910   0.54558   0.00000  Uiso   1.00
H30    H     0.46133   0.79498   0.83852   0.00000  Uiso   1.00
H31    H     0.30147   0.10635   0.86678   0.00000  Uiso   1.00
H32    H     0.45603   0.94468   0.94252   0.00000  Uiso   1.00
H33    H     0.22950   0.00581   0.76377   0.00000  Uiso   1.00
H34    H     0.18502   0.35479   0.90270   0.00000  Uiso   1.00
H35    H     0.68075   0.78707   0.01279   0.00000  Uiso   1.00
H36    H     0.20305   0.91604   0.63588   0.00000  Uiso   1.00
H37    H     0.10927   0.65191   0.92883   0.00000  Uiso   1.00
O38    O     0.96588   0.75524   0.01554   0.00000  Uiso   1.00
O39    O     0.33914   0.92445   0.52106   0.00000  Uiso   1.00
O40    O     0.21611   0.88990   0.90540   0.00000  Uiso   1.00
N41    N     0.92874   0.91868   0.93335   0.00000  Uiso   1.00
N42    N     0.48213   0.03923   0.58097   0.00000  Uiso   1.00
N43    N     0.39444   0.72722   0.85483   0.00000  Uiso   1.00
N44    N     0.73930   0.84170   0.98194   0.00000  Uiso   1.00
N45    N     0.29269   0.96225   0.62956   0.00000  Uiso   1.00
N46    N     0.20500   0.65024   0.90343   0.00000  Uiso   1.00
C47    C     0.38153   0.76484   0.21453   0.00000  Uiso   1.00
C48    C     0.34232   0.87085   0.16189   0.00000  Uiso   1.00
C49    C     0.20382   0.91713   0.14471   0.00000  Uiso   1.00
C50    C     0.19059   0.01444   0.09533   0.00000  Uiso   1.00
C51    C     0.11129   0.17163   0.01834   0.00000  Uiso   1.00
C52    C     0.46539   0.83766   0.25901   0.00000  Uiso   1.00
C53    C     0.43038   0.85599   0.32349   0.00000  Uiso   1.00
C54    C     0.52077   0.92534   0.35586   0.00000  Uiso   1.00
C55    C     0.63261   0.03090   0.42966   0.00000  Uiso   1.00
C56    C     0.48954   0.64805   0.18352   0.00000  Uiso   1.00
C57    C     0.47487   0.50696   0.18454   0.00000  Uiso   1.00
C58    C     0.58562   0.41667   0.15338   0.00000  Uiso   1.00
C59    C     0.73495   0.22783   0.10997   0.00000  Uiso   1.00
C60    C     0.60431   0.85537   0.15738   0.00000  Uiso   1.00
C61    C     0.46333   0.92003   0.13086   0.00000  Uiso   1.00
C62    C     0.45030   0.01729   0.08149   0.00000  Uiso   1.00
C63    C     0.31181   0.06369   0.06423   0.00000  Uiso   1.00
C64    C     0.58640   0.88683   0.22798   0.00000  Uiso   1.00
C65    C     0.67687   0.95615   0.26026   0.00000  Uiso   1.00
C66    C     0.64200   0.97460   0.32477   0.00000  Uiso   1.00
C67    C     0.61055   0.69722   0.15248   0.00000  Uiso   1.00
C68    C     0.72135   0.60713   0.12132   0.00000  Uiso   1.00
C69    C     0.70684   0.46593   0.12228   0.00000  Uiso   1.00
H70    H     0.28732   0.72656   0.23870   0.00000  Uiso   1.00
H71    H     0.11020   0.87906   0.16875   0.00000  Uiso   1.00
H72    H     0.33674   0.81792   0.34749   0.00000  Uiso   1.00
H73    H     0.38121   0.46895   0.20857   0.00000  Uiso   1.00
H74    H     0.96719   0.06986   0.07752   0.00000  Uiso   1.00
H75    H     0.44489   0.94090   0.45442   0.00000  Uiso   1.00
H76    H     0.53867   0.20502   0.16148   0.00000  Uiso   1.00
H77    H     0.69853   0.89365   0.13322   0.00000  Uiso   1.00
H78    H     0.54397   0.05532   0.05748   0.00000  Uiso   1.00
H79    H     0.77050   0.99419   0.23623   0.00000  Uiso   1.00
H80    H     0.81498   0.64521   0.09730   0.00000  Uiso   1.00
H81    H     0.31925   0.21293   0.98721   0.00000  Uiso   1.00
H82    H     0.79695   0.08396   0.36412   0.00000  Uiso   1.00
H83    H     0.89073   0.34809   0.07117   0.00000  Uiso   1.00
O84    O     0.03412   0.24476   0.98446   0.00000  Uiso   1.00
O85    O     0.66086   0.07555   0.47894   0.00000  Uiso   1.00
O86    O     0.78389   0.11010   0.09460   0.00000  Uiso   1.00
N87    N     0.07126   0.08132   0.06665   0.00000  Uiso   1.00
N88    N     0.51787   0.96077   0.41903   0.00000  Uiso   1.00
N89    N     0.60556   0.27278   0.14517   0.00000  Uiso   1.00
N90    N     0.26070   0.15830   0.01806   0.00000  Uiso   1.00
N91    N     0.70731   0.03775   0.37044   0.00000  Uiso   1.00
N92    N     0.79500   0.34976   0.09657   0.00000  Uiso   1.00
