data_job_06122
_audit_creation_date              2018-12-19
_audit_creation_method            'Materials Studio'
_symmetry_space_group_name_H-M    'P1'
_symmetry_Int_Tables_number       1
_symmetry_cell_setting            triclinic
loop_
_symmetry_equiv_pos_as_xyz
  x,y,z
_cell_length_a                    7.6503
_cell_length_b                    23.6900
_cell_length_c                    24.0069
_cell_angle_alpha                 118.9290
_cell_angle_beta                  82.2849
_cell_angle_gamma                 87.2085
loop_
_atom_site_label
_atom_site_type_symbol
_atom_site_fract_x
_atom_site_fract_y
_atom_site_fract_z
_atom_site_U_iso_or_equiv
_atom_site_adp_type
_atom_site_occupancy
C1     C     0.47057   0.33028   0.30067   0.00000  Uiso   1.00
C2     C     0.30861   0.34842   0.27907   0.00000  Uiso   1.00
C3     C     0.30507   0.38476   0.24794   0.00000  Uiso   1.00
C4     C     0.14385   0.39609   0.23219   0.00000  Uiso   1.00
C5     C     0.91548   0.42795   0.19641   0.00000  Uiso   1.00
C6     C     0.41610   0.35564   0.37306   0.00000  Uiso   1.00
C7     C     0.50296   0.39806   0.42096   0.00000  Uiso   1.00
C8     C     0.43223   0.41546   0.48433   0.00000  Uiso   1.00
C9     C     0.37082   0.45850   0.59446   0.00000  Uiso   1.00
C10    C     0.49509   0.25628   0.26866   0.00000  Uiso   1.00
C11    C     0.64838   0.21514   0.22879   0.00000  Uiso   1.00
C12    C     0.64417   0.14888   0.20427   0.00000  Uiso   1.00
C13    C     0.70540   0.03764   0.15231   0.00000  Uiso   1.00
C14    C     0.19053   0.28575   0.32804   0.00000  Uiso   1.00
C15    C     0.15651   0.32423   0.29393   0.00000  Uiso   1.00
C16    C     0.99524   0.33550   0.27822   0.00000  Uiso   1.00
C17    C     0.99147   0.37186   0.24708   0.00000  Uiso   1.00
C18    C     0.26400   0.33146   0.38792   0.00000  Uiso   1.00
C19    C     0.19313   0.34879   0.45123   0.00000  Uiso   1.00
C20    C     0.27985   0.39123   0.49922   0.00000  Uiso   1.00
C21    C     0.34298   0.23209   0.28352   0.00000  Uiso   1.00
C22    C     0.33854   0.16587   0.25906   0.00000  Uiso   1.00
C23    C     0.49179   0.12465   0.21916   0.00000  Uiso   1.00
H24    H     0.58899   0.34911   0.28911   0.00000  Uiso   1.00
H25    H     0.42281   0.40348   0.23646   0.00000  Uiso   1.00
H26    H     0.62067   0.41676   0.40944   0.00000  Uiso   1.00
H27    H     0.76606   0.23387   0.21730   0.00000  Uiso   1.00
H28    H     0.17148   0.45311   0.18466   0.00000  Uiso   1.00
H29    H     0.58871   0.48110   0.54941   0.00000  Uiso   1.00
H30    H     0.89530   0.09545   0.14424   0.00000  Uiso   1.00
H31    H     0.07211   0.26692   0.33961   0.00000  Uiso   1.00
H32    H     0.87756   0.31678   0.28973   0.00000  Uiso   1.00
H33    H     0.07543   0.33006   0.46272   0.00000  Uiso   1.00
H34    H     0.22081   0.14718   0.27057   0.00000  Uiso   1.00
H35    H     0.72893   0.38274   0.22790   0.00000  Uiso   1.00
H36    H     0.14617   0.41073   0.59265   0.00000  Uiso   1.00
H37    H     0.45275   0.02508   0.18748   0.00000  Uiso   1.00
O38    O     0.83153   0.45222   0.17258   0.00000  Uiso   1.00
O39    O     0.37896   0.48894   0.65111   0.00000  Uiso   1.00
O40    O     0.78119   0.98297   0.11954   0.00000  Uiso   1.00
N41    N     0.09403   0.42969   0.20167   0.00000  Uiso   1.00
N42    N     0.48411   0.45587   0.54269   0.00000  Uiso   1.00
N43    N     0.77076   0.09532   0.16391   0.00000  Uiso   1.00
N44    N     0.85590   0.39183   0.22494   0.00000  Uiso   1.00
N45    N     0.24598   0.41801   0.56596   0.00000  Uiso   1.00
N46    N     0.53263   0.05745   0.18717   0.00000  Uiso   1.00
C47    C     0.74627   0.70021   0.02571   0.00000  Uiso   1.00
C48    C     0.56071   0.71982   0.06697   0.00000  Uiso   1.00
C49    C     0.52232   0.75072   0.13403   0.00000  Uiso   1.00
C50    C     0.34406   0.76452   0.16269   0.00000  Uiso   1.00
C51    C     0.07645   0.79745   0.23240   0.00000  Uiso   1.00
C52    C     0.76116   0.62729   0.97915   0.00000  Uiso   1.00
C53    C     0.89132   0.58039   0.97236   0.00000  Uiso   1.00
C54    C     0.88180   0.51629   0.92709   0.00000  Uiso   1.00
C55    C     0.92547   0.40557   0.86042   0.00000  Uiso   1.00
C56    C     0.74677   0.73265   0.98418   0.00000  Uiso   1.00
C57    C     0.86487   0.77434   0.98162   0.00000  Uiso   1.00
C58    C     0.84325   0.79894   0.94057   0.00000  Uiso   1.00
C59    C     0.86458   0.85182   0.88172   0.00000  Uiso   1.00
C60    C     0.49794   0.66976   0.95737   0.00000  Uiso   1.00
C61    C     0.42583   0.70328   0.02984   0.00000  Uiso   1.00
C62    C     0.24757   0.71704   0.05841   0.00000  Uiso   1.00
C63    C     0.20893   0.74795   0.12550   0.00000  Uiso   1.00
C64    C     0.62628   0.61075   0.94202   0.00000  Uiso   1.00
C65    C     0.61657   0.54670   0.89675   0.00000  Uiso   1.00
C66    C     0.74667   0.49972   0.88990   0.00000  Uiso   1.00
C67    C     0.61189   0.71612   0.94706   0.00000  Uiso   1.00
C68    C     0.59010   0.74065   0.90601   0.00000  Uiso   1.00
C69    C     0.70813   0.78237   0.90338   0.00000  Uiso   1.00
H70    H     0.85129   0.71308   0.05461   0.00000  Uiso   1.00
H71    H     0.62675   0.76350   0.16274   0.00000  Uiso   1.00
H72    H     0.99569   0.59320   0.00109   0.00000  Uiso   1.00
H73    H     0.96923   0.78712   0.01035   0.00000  Uiso   1.00
H74    H     0.31832   0.81210   0.26625   0.00000  Uiso   1.00
H75    H     0.09630   0.45300   0.92539   0.00000  Uiso   1.00
H76    H     0.04050   0.86192   0.94491   0.00000  Uiso   1.00
H77    H     0.39293   0.65689   0.92846   0.00000  Uiso   1.00
H78    H     0.14322   0.70423   0.02967   0.00000  Uiso   1.00
H79    H     0.51218   0.53393   0.86803   0.00000  Uiso   1.00
H80    H     0.48571   0.72785   0.87729   0.00000  Uiso   1.00
H81    H     0.92587   0.76399   0.15825   0.00000  Uiso   1.00
H82    H     0.70386   0.40489   0.81739   0.00000  Uiso   1.00
H83    H     0.64805   0.81381   0.83691   0.00000  Uiso   1.00
O84    O     0.96611   0.82018   0.28110   0.00000  Uiso   1.00
O85    O     0.98681   0.34907   0.83391   0.00000  Uiso   1.00
O86    O     0.91359   0.88556   0.85952   0.00000  Uiso   1.00
N87    N     0.26022   0.79429   0.22694   0.00000  Uiso   1.00
N88    N     0.98757   0.45856   0.90827   0.00000  Uiso   1.00
N89    N     0.93543   0.84085   0.92651   0.00000  Uiso   1.00
N90    N     0.04905   0.76840   0.16883   0.00000  Uiso   1.00
N91    N     0.77640   0.43267   0.85016   0.00000  Uiso   1.00
N92    N     0.72426   0.81496   0.86839   0.00000  Uiso   1.00
C93    C     0.78383   0.97779   0.67380   0.00000  Uiso   1.00
C94    C     0.63711   0.93440   0.65402   0.00000  Uiso   1.00
C95    C     0.66220   0.86696   0.61808   0.00000  Uiso   1.00
C96    C     0.51085   0.83624   0.60505   0.00000  Uiso   1.00
C97    C     0.30893   0.76347   0.57095   0.00000  Uiso   1.00
C98    C     0.76008   0.02463   0.64796   0.00000  Uiso   1.00
C99    C     0.88858   0.03306   0.60693   0.00000  Uiso   1.00
C100   C     0.84075   0.07830   0.58880   0.00000  Uiso   1.00
C101   C     0.82979   0.14564   0.54533   0.00000  Uiso   1.00
C102   C     0.73953   0.01913   0.74734   0.00000  Uiso   1.00
C103   C     0.85076   0.02295   0.78986   0.00000  Uiso   1.00
C104   C     0.78563   0.06358   0.85540   0.00000  Uiso   1.00
C105   C     0.74276   0.12239   0.96623   0.00000  Uiso   1.00
C106   C     0.47041   0.04316   0.71457   0.00000  Uiso   1.00
C107   C     0.46687   0.96991   0.67617   0.00000  Uiso   1.00
C108   C     0.31544   0.93928   0.66319   0.00000  Uiso   1.00
C109   C     0.34031   0.87181   0.62723   0.00000  Uiso   1.00
C110   C     0.58985   0.06014   0.67010   0.00000  Uiso   1.00
C111   C     0.54182   0.10538   0.65204   0.00000  Uiso   1.00
C112   C     0.67021   0.11387   0.61098   0.00000  Uiso   1.00
C113   C     0.56929   0.05464   0.76949   0.00000  Uiso   1.00
C114   C     0.50399   0.09527   0.83497   0.00000  Uiso   1.00
C115   C     0.61509   0.09915   0.87759   0.00000  Uiso   1.00
H116   H     0.91637   0.95015   0.65655   0.00000  Uiso   1.00
H117   H     0.79397   0.83950   0.60095   0.00000  Uiso   1.00
H118   H     0.02031   0.00558   0.58980   0.00000  Uiso   1.00
H119   H     0.98248   0.99547   0.77271   0.00000  Uiso   1.00
H120   H     0.58319   0.73249   0.54904   0.00000  Uiso   1.00
H121   H     0.06048   0.08268   0.52556   0.00000  Uiso   1.00
H122   H     0.98072   0.06137   0.91125   0.00000  Uiso   1.00
H123   H     0.33788   0.07080   0.73181   0.00000  Uiso   1.00
H124   H     0.18372   0.96677   0.68033   0.00000  Uiso   1.00
H125   H     0.41008   0.13285   0.66919   0.00000  Uiso   1.00
H126   H     0.37225   0.12274   0.85209   0.00000  Uiso   1.00
H127   H     0.08790   0.83578   0.61347   0.00000  Uiso   1.00
H128   H     0.56519   0.18598   0.58999   0.00000  Uiso   1.00
H129   H     0.48542   0.16467   0.97568   0.00000  Uiso   1.00
O130   O     0.24458   0.71353   0.54601   0.00000  Uiso   1.00
O131   O     0.87077   0.17297   0.51522   0.00000  Uiso   1.00
O132   O     0.76612   0.14501   0.02124   0.00000  Uiso   1.00
N133   N     0.48778   0.77108   0.57128   0.00000  Uiso   1.00
N134   N     0.93400   0.09848   0.54932   0.00000  Uiso   1.00
N135   N     0.85945   0.07857   0.90991   0.00000  Uiso   1.00
N136   N     0.22126   0.82666   0.60595   0.00000  Uiso   1.00
N137   N     0.66749   0.15406   0.58399   0.00000  Uiso   1.00
N138   N     0.59294   0.13415   0.94458   0.00000  Uiso   1.00
C139   C     0.52943   0.66972   0.69933   0.00000  Uiso   1.00
C140   C     0.69139   0.65158   0.72093   0.00000  Uiso   1.00
C141   C     0.69493   0.61523   0.75205   0.00000  Uiso   1.00
C142   C     0.85615   0.60391   0.76781   0.00000  Uiso   1.00
C143   C     0.08452   0.57204   0.80359   0.00000  Uiso   1.00
C144   C     0.58390   0.64436   0.62694   0.00000  Uiso   1.00
C145   C     0.49704   0.60194   0.57904   0.00000  Uiso   1.00
C146   C     0.56777   0.58454   0.51567   0.00000  Uiso   1.00
C147   C     0.62918   0.54150   0.40554   0.00000  Uiso   1.00
C148   C     0.50491   0.74372   0.73134   0.00000  Uiso   1.00
C149   C     0.35162   0.78486   0.77121   0.00000  Uiso   1.00
C150   C     0.35583   0.85112   0.79573   0.00000  Uiso   1.00
C151   C     0.29460   0.96236   0.84769   0.00000  Uiso   1.00
C152   C     0.80947   0.71425   0.67196   0.00000  Uiso   1.00
C153   C     0.84349   0.67577   0.70607   0.00000  Uiso   1.00
C154   C     0.00476   0.66450   0.72178   0.00000  Uiso   1.00
C155   C     0.00853   0.62814   0.75292   0.00000  Uiso   1.00
C156   C     0.73600   0.66854   0.61208   0.00000  Uiso   1.00
C157   C     0.80687   0.65121   0.54876   0.00000  Uiso   1.00
C158   C     0.72015   0.60877   0.50078   0.00000  Uiso   1.00
C159   C     0.65702   0.76791   0.71648   0.00000  Uiso   1.00
C160   C     0.66146   0.83412   0.74094   0.00000  Uiso   1.00
C161   C     0.50821   0.87535   0.78083   0.00000  Uiso   1.00
H162   H     0.41101   0.65089   0.71089   0.00000  Uiso   1.00
H163   H     0.57719   0.59652   0.76354   0.00000  Uiso   1.00
H164   H     0.37933   0.58324   0.59056   0.00000  Uiso   1.00
H165   H     0.23394   0.76612   0.78270   0.00000  Uiso   1.00
H166   H     0.82852   0.54689   0.81534   0.00000  Uiso   1.00
H167   H     0.41129   0.51890   0.45059   0.00000  Uiso   1.00
H168   H     0.10470   0.90455   0.85576   0.00000  Uiso   1.00
H169   H     0.92789   0.73308   0.66039   0.00000  Uiso   1.00
H170   H     0.12244   0.68322   0.71027   0.00000  Uiso   1.00
H171   H     0.92457   0.66994   0.53728   0.00000  Uiso   1.00
H172   H     0.77919   0.85282   0.72942   0.00000  Uiso   1.00
H173   H     0.27107   0.61726   0.77210   0.00000  Uiso   1.00
H174   H     0.85383   0.58927   0.40735   0.00000  Uiso   1.00
H175   H     0.54725   0.97492   0.81252   0.00000  Uiso   1.00
O176   O     0.16847   0.54778   0.82742   0.00000  Uiso   1.00
O177   O     0.62104   0.51106   0.34889   0.00000  Uiso   1.00
O178   O     0.21881   0.01703   0.88046   0.00000  Uiso   1.00
N179   N     0.90597   0.57031   0.79833   0.00000  Uiso   1.00
N180   N     0.51589   0.54413   0.45731   0.00000  Uiso   1.00
N181   N     0.22924   0.90468   0.83609   0.00000  Uiso   1.00
N182   N     0.14410   0.60817   0.77506   0.00000  Uiso   1.00
N183   N     0.75402   0.58199   0.43404   0.00000  Uiso   1.00
N184   N     0.46737   0.94255   0.81283   0.00000  Uiso   1.00
C185   C     0.25373   0.29979   0.97429   0.00000  Uiso   1.00
C186   C     0.43929   0.28018   0.93303   0.00000  Uiso   1.00
C187   C     0.47768   0.24928   0.86597   0.00000  Uiso   1.00
C188   C     0.65594   0.23548   0.83731   0.00000  Uiso   1.00
C189   C     0.92355   0.20255   0.76760   0.00000  Uiso   1.00
C190   C     0.23884   0.37271   0.02085   0.00000  Uiso   1.00
C191   C     0.10868   0.41961   0.02764   0.00000  Uiso   1.00
C192   C     0.11820   0.48371   0.07291   0.00000  Uiso   1.00
C193   C     0.07453   0.59443   0.13958   0.00000  Uiso   1.00
C194   C     0.25323   0.26735   0.01582   0.00000  Uiso   1.00
C195   C     0.13513   0.22566   0.01838   0.00000  Uiso   1.00
C196   C     0.15675   0.20106   0.05943   0.00000  Uiso   1.00
C197   C     0.13542   0.14818   0.11828   0.00000  Uiso   1.00
C198   C     0.50205   0.33024   0.04263   0.00000  Uiso   1.00
C199   C     0.57417   0.29672   0.97016   0.00000  Uiso   1.00
C200   C     0.75243   0.28296   0.94159   0.00000  Uiso   1.00
C201   C     0.79107   0.25205   0.87449   0.00000  Uiso   1.00
C202   C     0.37371   0.38925   0.05798   0.00000  Uiso   1.00
C203   C     0.38343   0.45330   0.10325   0.00000  Uiso   1.00
C204   C     0.25333   0.50028   0.11010   0.00000  Uiso   1.00
C205   C     0.38811   0.28388   0.05294   0.00000  Uiso   1.00
C206   C     0.40990   0.25935   0.09399   0.00000  Uiso   1.00
C207   C     0.29187   0.21763   0.09662   0.00000  Uiso   1.00
H208   H     0.14871   0.28692   0.94539   0.00000  Uiso   1.00
H209   H     0.37325   0.23650   0.83726   0.00000  Uiso   1.00
H210   H     0.00431   0.40680   0.99891   0.00000  Uiso   1.00
H211   H     0.03077   0.21288   0.98965   0.00000  Uiso   1.00
H212   H     0.68168   0.18790   0.73375   0.00000  Uiso   1.00
H213   H     0.90370   0.54700   0.07461   0.00000  Uiso   1.00
H214   H     0.95950   0.13808   0.05509   0.00000  Uiso   1.00
H215   H     0.60707   0.34311   0.07154   0.00000  Uiso   1.00
H216   H     0.85678   0.29577   0.97032   0.00000  Uiso   1.00
H217   H     0.48782   0.46607   0.13197   0.00000  Uiso   1.00
H218   H     0.51429   0.27215   0.12271   0.00000  Uiso   1.00
H219   H     0.07413   0.23601   0.84175   0.00000  Uiso   1.00
H220   H     0.29613   0.59511   0.18261   0.00000  Uiso   1.00
H221   H     0.35195   0.18619   0.16309   0.00000  Uiso   1.00
O222   O     0.03389   0.17982   0.71890   0.00000  Uiso   1.00
O223   O     0.01319   0.65093   0.16609   0.00000  Uiso   1.00
O224   O     0.08641   0.11444   0.14048   0.00000  Uiso   1.00
N225   N     0.73978   0.20571   0.77306   0.00000  Uiso   1.00
N226   N     0.01243   0.54144   0.09173   0.00000  Uiso   1.00
N227   N     0.06457   0.15915   0.07349   0.00000  Uiso   1.00
N228   N     0.95095   0.23160   0.83117   0.00000  Uiso   1.00
N229   N     0.22360   0.56733   0.14984   0.00000  Uiso   1.00
N230   N     0.27574   0.18504   0.13161   0.00000  Uiso   1.00
C231   C     0.21617   0.02221   0.32620   0.00000  Uiso   1.00
C232   C     0.36289   0.06560   0.34598   0.00000  Uiso   1.00
C233   C     0.33780   0.13304   0.38192   0.00000  Uiso   1.00
C234   C     0.48915   0.16376   0.39495   0.00000  Uiso   1.00
C235   C     0.69107   0.23653   0.42905   0.00000  Uiso   1.00
C236   C     0.23992   0.97537   0.35204   0.00000  Uiso   1.00
C237   C     0.11142   0.96694   0.39307   0.00000  Uiso   1.00
C238   C     0.15925   0.92170   0.41120   0.00000  Uiso   1.00
C239   C     0.17021   0.85436   0.45467   0.00000  Uiso   1.00
C240   C     0.26047   0.98087   0.25266   0.00000  Uiso   1.00
C241   C     0.14924   0.97705   0.21014   0.00000  Uiso   1.00
C242   C     0.21437   0.93642   0.14460   0.00000  Uiso   1.00
C243   C     0.25724   0.87761   0.03377   0.00000  Uiso   1.00
C244   C     0.52959   0.95684   0.28543   0.00000  Uiso   1.00
C245   C     0.53313   0.03009   0.32383   0.00000  Uiso   1.00
C246   C     0.68456   0.06072   0.33681   0.00000  Uiso   1.00
C247   C     0.65969   0.12819   0.37277   0.00000  Uiso   1.00
C248   C     0.41015   0.93986   0.32989   0.00000  Uiso   1.00
C249   C     0.45818   0.89462   0.34796   0.00000  Uiso   1.00
C250   C     0.32979   0.88613   0.38902   0.00000  Uiso   1.00
C251   C     0.43071   0.94536   0.23051   0.00000  Uiso   1.00
C252   C     0.49601   0.90473   0.16503   0.00000  Uiso   1.00
C253   C     0.38491   0.90085   0.12241   0.00000  Uiso   1.00
H254   H     0.08363   0.04985   0.34344   0.00000  Uiso   1.00
H255   H     0.20603   0.16050   0.39905   0.00000  Uiso   1.00
H256   H     0.97969   0.99442   0.41020   0.00000  Uiso   1.00
H257   H     0.01752   0.00453   0.22729   0.00000  Uiso   1.00
H258   H     0.41681   0.26751   0.45096   0.00000  Uiso   1.00
H259   H     0.93952   0.91732   0.47444   0.00000  Uiso   1.00
H260   H     0.01928   0.93863   0.08875   0.00000  Uiso   1.00
H261   H     0.66212   0.92920   0.26819   0.00000  Uiso   1.00
H262   H     0.81628   0.03323   0.31967   0.00000  Uiso   1.00
H263   H     0.58992   0.86715   0.33081   0.00000  Uiso   1.00
H264   H     0.62775   0.87726   0.14791   0.00000  Uiso   1.00
H265   H     0.91211   0.16422   0.38653   0.00000  Uiso   1.00
H266   H     0.43481   0.81402   0.41001   0.00000  Uiso   1.00
H267   H     0.51458   0.83533   0.02432   0.00000  Uiso   1.00
O268   O     0.75542   0.28647   0.45399   0.00000  Uiso   1.00
O269   O     0.12923   0.82703   0.48478   0.00000  Uiso   1.00
O270   O     0.23388   0.85499   0.97876   0.00000  Uiso   1.00
N271   N     0.51222   0.22892   0.42872   0.00000  Uiso   1.00
N272   N     0.06600   0.90152   0.45068   0.00000  Uiso   1.00
N273   N     0.14055   0.92143   0.09009   0.00000  Uiso   1.00
N274   N     0.77874   0.17334   0.39405   0.00000  Uiso   1.00
N275   N     0.33251   0.84594   0.41601   0.00000  Uiso   1.00
N276   N     0.40706   0.86585   0.05542   0.00000  Uiso   1.00
