data_job_04011
_audit_creation_date              2018-12-19
_audit_creation_method            'Materials Studio'
_symmetry_space_group_name_H-M    'P1'
_symmetry_Int_Tables_number       1
_symmetry_cell_setting            triclinic
loop_
_symmetry_equiv_pos_as_xyz
  x,y,z
_cell_length_a                    22.8939
_cell_length_b                    11.6744
_cell_length_c                    12.8277
_cell_angle_alpha                 90.0000
_cell_angle_beta                  121.4808
_cell_angle_gamma                 90.0000
loop_
_atom_site_label
_atom_site_type_symbol
_atom_site_fract_x
_atom_site_fract_y
_atom_site_fract_z
_atom_site_U_iso_or_equiv
_atom_site_adp_type
_atom_site_occupancy
C1     C     0.06759   0.34269   0.17729   0.00000  Uiso   1.00
C2     C     0.13078   0.34850   0.16650   0.00000  Uiso   1.00
C3     C     0.13224   0.38800   0.06585   0.00000  Uiso   1.00
C4     C     0.19511   0.38639   0.07393   0.00000  Uiso   1.00
C5     C     0.28421   0.40140   0.04118   0.00000  Uiso   1.00
C6     C     0.06163   0.21822   0.20662   0.00000  Uiso   1.00
C7     C     0.00494   0.14818   0.13971   0.00000  Uiso   1.00
C8     C     0.00961   0.03690   0.18157   0.00000  Uiso   1.00
C9     C     0.99133   0.84967   0.21117   0.00000  Uiso   1.00
C10    C     0.08512   0.41123   0.29123   0.00000  Uiso   1.00
C11    C     0.04817   0.50347   0.29547   0.00000  Uiso   1.00
C12    C     0.07261   0.55468   0.40858   0.00000  Uiso   1.00
C13    C     0.09080   0.66714   0.56954   0.00000  Uiso   1.00
C14    C     0.17668   0.26958   0.37064   0.00000  Uiso   1.00
C15    C     0.19003   0.30879   0.27153   0.00000  Uiso   1.00
C16    C     0.25293   0.30712   0.27976   0.00000  Uiso   1.00
C17    C     0.25447   0.34662   0.17914   0.00000  Uiso   1.00
C18    C     0.12088   0.17851   0.31164   0.00000  Uiso   1.00
C19    C     0.12563   0.06730   0.35362   0.00000  Uiso   1.00
C20    C     0.06897   0.99712   0.28678   0.00000  Uiso   1.00
C21    C     0.14437   0.37153   0.39626   0.00000  Uiso   1.00
C22    C     0.16887   0.42259   0.50939   0.00000  Uiso   1.00
C23    C     0.13197   0.51490   0.51379   0.00000  Uiso   1.00
H24    H     0.02146   0.37359   0.09553   0.00000  Uiso   1.00
H25    H     0.08637   0.41872   0.98459   0.00000  Uiso   1.00
H26    H     0.95909   0.17894   0.05845   0.00000  Uiso   1.00
H27    H     0.00233   0.53418   0.21418   0.00000  Uiso   1.00
H28    H     0.18445   0.45119   0.90788   0.00000  Uiso   1.00
H29    H     0.91608   0.94562   0.06364   0.00000  Uiso   1.00
H30    H     0.00724   0.69471   0.39204   0.00000  Uiso   1.00
H31    H     0.22281   0.23866   0.45240   0.00000  Uiso   1.00
H32    H     0.29877   0.27639   0.36105   0.00000  Uiso   1.00
H33    H     0.17149   0.03661   0.43490   0.00000  Uiso   1.00
H34    H     0.21472   0.39184   0.59064   0.00000  Uiso   1.00
H35    H     0.35685   0.33567   0.21343   0.00000  Uiso   1.00
H36    H     0.08847   0.83010   0.36919   0.00000  Uiso   1.00
H37    H     0.17963   0.57918   0.69759   0.00000  Uiso   1.00
O38    O     0.31698   0.42064   0.99410   0.00000  Uiso   1.00
O39    O     0.96488   0.75736   0.19846   0.00000  Uiso   1.00
O40    O     0.08448   0.74015   0.62931   0.00000  Uiso   1.00
N41    N     0.21461   0.41885   0.99234   0.00000  Uiso   1.00
N42    N     0.96369   0.94616   0.13795   0.00000  Uiso   1.00
N43    N     0.04891   0.64648   0.44499   0.00000  Uiso   1.00
N44    N     0.30737   0.35669   0.15675   0.00000  Uiso   1.00
N45    N     0.05646   0.88400   0.30237   0.00000  Uiso   1.00
N46    N     0.14167   0.58431   0.60940   0.00000  Uiso   1.00
C47    C     0.56759   0.84269   0.17729   0.00000  Uiso   1.00
C48    C     0.63078   0.84850   0.16650   0.00000  Uiso   1.00
C49    C     0.63224   0.88800   0.06585   0.00000  Uiso   1.00
C50    C     0.69511   0.88639   0.07393   0.00000  Uiso   1.00
C51    C     0.78421   0.90140   0.04118   0.00000  Uiso   1.00
C52    C     0.56163   0.71822   0.20662   0.00000  Uiso   1.00
C53    C     0.50494   0.64818   0.13971   0.00000  Uiso   1.00
C54    C     0.50961   0.53690   0.18157   0.00000  Uiso   1.00
C55    C     0.49133   0.34967   0.21117   0.00000  Uiso   1.00
C56    C     0.58512   0.91123   0.29123   0.00000  Uiso   1.00
C57    C     0.54817   0.00347   0.29547   0.00000  Uiso   1.00
C58    C     0.57261   0.05468   0.40858   0.00000  Uiso   1.00
C59    C     0.59080   0.16714   0.56954   0.00000  Uiso   1.00
C60    C     0.67668   0.76958   0.37064   0.00000  Uiso   1.00
C61    C     0.69003   0.80879   0.27153   0.00000  Uiso   1.00
C62    C     0.75293   0.80712   0.27976   0.00000  Uiso   1.00
C63    C     0.75447   0.84662   0.17914   0.00000  Uiso   1.00
C64    C     0.62088   0.67851   0.31164   0.00000  Uiso   1.00
C65    C     0.62563   0.56730   0.35362   0.00000  Uiso   1.00
C66    C     0.56897   0.49712   0.28678   0.00000  Uiso   1.00
C67    C     0.64437   0.87153   0.39626   0.00000  Uiso   1.00
C68    C     0.66887   0.92259   0.50939   0.00000  Uiso   1.00
C69    C     0.63197   0.01490   0.51379   0.00000  Uiso   1.00
H70    H     0.52146   0.87359   0.09553   0.00000  Uiso   1.00
H71    H     0.58637   0.91872   0.98459   0.00000  Uiso   1.00
H72    H     0.45909   0.67894   0.05845   0.00000  Uiso   1.00
H73    H     0.50233   0.03418   0.21418   0.00000  Uiso   1.00
H74    H     0.68445   0.95119   0.90788   0.00000  Uiso   1.00
H75    H     0.41608   0.44562   0.06364   0.00000  Uiso   1.00
H76    H     0.50724   0.19471   0.39204   0.00000  Uiso   1.00
H77    H     0.72281   0.73866   0.45240   0.00000  Uiso   1.00
H78    H     0.79877   0.77639   0.36105   0.00000  Uiso   1.00
H79    H     0.67149   0.53661   0.43490   0.00000  Uiso   1.00
H80    H     0.71472   0.89184   0.59064   0.00000  Uiso   1.00
H81    H     0.85685   0.83567   0.21343   0.00000  Uiso   1.00
H82    H     0.58847   0.33010   0.36919   0.00000  Uiso   1.00
H83    H     0.67963   0.07918   0.69759   0.00000  Uiso   1.00
O84    O     0.81698   0.92064   0.99410   0.00000  Uiso   1.00
O85    O     0.46488   0.25736   0.19846   0.00000  Uiso   1.00
O86    O     0.58448   0.24015   0.62931   0.00000  Uiso   1.00
N87    N     0.71461   0.91885   0.99234   0.00000  Uiso   1.00
N88    N     0.46369   0.44616   0.13795   0.00000  Uiso   1.00
N89    N     0.54891   0.14648   0.44499   0.00000  Uiso   1.00
N90    N     0.80737   0.85669   0.15675   0.00000  Uiso   1.00
N91    N     0.55646   0.38400   0.30237   0.00000  Uiso   1.00
N92    N     0.64167   0.08431   0.60940   0.00000  Uiso   1.00
C93    C     0.93241   0.34269   0.82271   0.00000  Uiso   1.00
C94    C     0.86922   0.34850   0.83350   0.00000  Uiso   1.00
C95    C     0.86776   0.38800   0.93415   0.00000  Uiso   1.00
C96    C     0.80489   0.38639   0.92607   0.00000  Uiso   1.00
C97    C     0.71579   0.40140   0.95882   0.00000  Uiso   1.00
C98    C     0.93837   0.21822   0.79338   0.00000  Uiso   1.00
C99    C     0.99506   0.14818   0.86029   0.00000  Uiso   1.00
C100   C     0.99039   0.03690   0.81843   0.00000  Uiso   1.00
C101   C     0.00867   0.84967   0.78883   0.00000  Uiso   1.00
C102   C     0.91488   0.41123   0.70877   0.00000  Uiso   1.00
C103   C     0.95183   0.50347   0.70453   0.00000  Uiso   1.00
C104   C     0.92739   0.55468   0.59142   0.00000  Uiso   1.00
C105   C     0.90920   0.66714   0.43046   0.00000  Uiso   1.00
C106   C     0.82332   0.26958   0.62936   0.00000  Uiso   1.00
C107   C     0.80997   0.30879   0.72847   0.00000  Uiso   1.00
C108   C     0.74707   0.30712   0.72024   0.00000  Uiso   1.00
C109   C     0.74553   0.34662   0.82086   0.00000  Uiso   1.00
C110   C     0.87912   0.17851   0.68836   0.00000  Uiso   1.00
C111   C     0.87437   0.06730   0.64638   0.00000  Uiso   1.00
C112   C     0.93103   0.99712   0.71322   0.00000  Uiso   1.00
C113   C     0.85563   0.37153   0.60374   0.00000  Uiso   1.00
C114   C     0.83113   0.42259   0.49061   0.00000  Uiso   1.00
C115   C     0.86803   0.51490   0.48621   0.00000  Uiso   1.00
H116   H     0.97854   0.37359   0.90447   0.00000  Uiso   1.00
H117   H     0.91363   0.41872   0.01541   0.00000  Uiso   1.00
H118   H     0.04091   0.17894   0.94155   0.00000  Uiso   1.00
H119   H     0.99767   0.53418   0.78582   0.00000  Uiso   1.00
H120   H     0.81555   0.45119   0.09212   0.00000  Uiso   1.00
H121   H     0.08392   0.94562   0.93636   0.00000  Uiso   1.00
H122   H     0.99276   0.69471   0.60796   0.00000  Uiso   1.00
H123   H     0.77719   0.23866   0.54760   0.00000  Uiso   1.00
H124   H     0.70123   0.27639   0.63895   0.00000  Uiso   1.00
H125   H     0.82851   0.03661   0.56510   0.00000  Uiso   1.00
H126   H     0.78528   0.39184   0.40936   0.00000  Uiso   1.00
H127   H     0.64315   0.33567   0.78657   0.00000  Uiso   1.00
H128   H     0.91153   0.83010   0.63081   0.00000  Uiso   1.00
H129   H     0.82037   0.57918   0.30241   0.00000  Uiso   1.00
O130   O     0.68302   0.42064   0.00590   0.00000  Uiso   1.00
O131   O     0.03512   0.75736   0.80154   0.00000  Uiso   1.00
O132   O     0.91552   0.74015   0.37069   0.00000  Uiso   1.00
N133   N     0.78539   0.41885   0.00766   0.00000  Uiso   1.00
N134   N     0.03631   0.94616   0.86205   0.00000  Uiso   1.00
N135   N     0.95109   0.64648   0.55501   0.00000  Uiso   1.00
N136   N     0.69263   0.35669   0.84325   0.00000  Uiso   1.00
N137   N     0.94354   0.88400   0.69763   0.00000  Uiso   1.00
N138   N     0.85833   0.58431   0.39060   0.00000  Uiso   1.00
C139   C     0.43241   0.84269   0.82271   0.00000  Uiso   1.00
C140   C     0.36922   0.84850   0.83350   0.00000  Uiso   1.00
C141   C     0.36776   0.88800   0.93415   0.00000  Uiso   1.00
C142   C     0.30489   0.88639   0.92607   0.00000  Uiso   1.00
C143   C     0.21579   0.90140   0.95882   0.00000  Uiso   1.00
C144   C     0.43837   0.71822   0.79338   0.00000  Uiso   1.00
C145   C     0.49506   0.64818   0.86029   0.00000  Uiso   1.00
C146   C     0.49039   0.53690   0.81843   0.00000  Uiso   1.00
C147   C     0.50867   0.34967   0.78883   0.00000  Uiso   1.00
C148   C     0.41488   0.91123   0.70877   0.00000  Uiso   1.00
C149   C     0.45183   0.00347   0.70453   0.00000  Uiso   1.00
C150   C     0.42739   0.05468   0.59142   0.00000  Uiso   1.00
C151   C     0.40920   0.16714   0.43046   0.00000  Uiso   1.00
C152   C     0.32332   0.76958   0.62936   0.00000  Uiso   1.00
C153   C     0.30997   0.80879   0.72847   0.00000  Uiso   1.00
C154   C     0.24707   0.80712   0.72024   0.00000  Uiso   1.00
C155   C     0.24553   0.84662   0.82086   0.00000  Uiso   1.00
C156   C     0.37912   0.67851   0.68836   0.00000  Uiso   1.00
C157   C     0.37437   0.56730   0.64638   0.00000  Uiso   1.00
C158   C     0.43103   0.49712   0.71322   0.00000  Uiso   1.00
C159   C     0.35563   0.87153   0.60374   0.00000  Uiso   1.00
C160   C     0.33113   0.92259   0.49061   0.00000  Uiso   1.00
C161   C     0.36803   0.01490   0.48621   0.00000  Uiso   1.00
H162   H     0.47854   0.87359   0.90447   0.00000  Uiso   1.00
H163   H     0.41363   0.91872   0.01541   0.00000  Uiso   1.00
H164   H     0.54091   0.67894   0.94155   0.00000  Uiso   1.00
H165   H     0.49767   0.03418   0.78582   0.00000  Uiso   1.00
H166   H     0.31555   0.95119   0.09212   0.00000  Uiso   1.00
H167   H     0.58392   0.44562   0.93636   0.00000  Uiso   1.00
H168   H     0.49276   0.19471   0.60796   0.00000  Uiso   1.00
H169   H     0.27719   0.73866   0.54760   0.00000  Uiso   1.00
H170   H     0.20123   0.77639   0.63895   0.00000  Uiso   1.00
H171   H     0.32851   0.53661   0.56510   0.00000  Uiso   1.00
H172   H     0.28528   0.89184   0.40936   0.00000  Uiso   1.00
H173   H     0.14315   0.83567   0.78657   0.00000  Uiso   1.00
H174   H     0.41153   0.33010   0.63081   0.00000  Uiso   1.00
H175   H     0.32037   0.07918   0.30241   0.00000  Uiso   1.00
O176   O     0.18302   0.92064   0.00590   0.00000  Uiso   1.00
O177   O     0.53512   0.25736   0.80154   0.00000  Uiso   1.00
O178   O     0.41552   0.24015   0.37069   0.00000  Uiso   1.00
N179   N     0.28539   0.91885   0.00766   0.00000  Uiso   1.00
N180   N     0.53631   0.44616   0.86205   0.00000  Uiso   1.00
N181   N     0.45109   0.14648   0.55501   0.00000  Uiso   1.00
N182   N     0.19263   0.85669   0.84325   0.00000  Uiso   1.00
N183   N     0.44354   0.38400   0.69763   0.00000  Uiso   1.00
N184   N     0.35833   0.08431   0.39060   0.00000  Uiso   1.00
