data_job_03634
_audit_creation_date              2018-12-19
_audit_creation_method            'Materials Studio'
_symmetry_space_group_name_H-M    'P1'
_symmetry_Int_Tables_number       1
_symmetry_cell_setting            triclinic
loop_
_symmetry_equiv_pos_as_xyz
  x,y,z
_cell_length_a                    9.7429
_cell_length_b                    23.3537
_cell_length_c                    23.5992
_cell_angle_alpha                 90.0000
_cell_angle_beta                  80.8205
_cell_angle_gamma                 90.0000
loop_
_atom_site_label
_atom_site_type_symbol
_atom_site_fract_x
_atom_site_fract_y
_atom_site_fract_z
_atom_site_U_iso_or_equiv
_atom_site_adp_type
_atom_site_occupancy
C1     C     0.24979   0.10975   0.07065   0.00000  Uiso   1.00
C2     C     0.19638   0.05772   0.10658   0.00000  Uiso   1.00
C3     C     0.11605   0.01388   0.08943   0.00000  Uiso   1.00
C4     C     0.07770   0.97010   0.12856   0.00000  Uiso   1.00
C5     C     0.98853   0.88931   0.17610   0.00000  Uiso   1.00
C6     C     0.19689   0.16204   0.10628   0.00000  Uiso   1.00
C7     C     0.11702   0.20591   0.08886   0.00000  Uiso   1.00
C8     C     0.07912   0.24995   0.12773   0.00000  Uiso   1.00
C9     C     0.99084   0.33114   0.17478   0.00000  Uiso   1.00
C10    C     0.40730   0.10965   0.06763   0.00000  Uiso   1.00
C11    C     0.50434   0.10947   0.01771   0.00000  Uiso   1.00
C12    C     0.64360   0.10942   0.02405   0.00000  Uiso   1.00
C13    C     0.88201   0.10925   0.01108   0.00000  Uiso   1.00
C14    C     0.32453   0.10997   0.17065   0.00000  Uiso   1.00
C15    C     0.23697   0.05785   0.16090   0.00000  Uiso   1.00
C16    C     0.19874   0.01412   0.20007   0.00000  Uiso   1.00
C17    C     0.11838   0.97022   0.18297   0.00000  Uiso   1.00
C18    C     0.23748   0.16217   0.16059   0.00000  Uiso   1.00
C19    C     0.19971   0.20616   0.19950   0.00000  Uiso   1.00
C20    C     0.11979   0.25008   0.18215   0.00000  Uiso   1.00
C21    C     0.44790   0.10977   0.12194   0.00000  Uiso   1.00
C22    C     0.58703   0.10971   0.12835   0.00000  Uiso   1.00
C23    C     0.68427   0.10954   0.07846   0.00000  Uiso   1.00
H24    H     0.21818   0.10966   0.02837   0.00000  Uiso   1.00
H25    H     0.08464   0.01380   0.04739   0.00000  Uiso   1.00
H26    H     0.08563   0.20581   0.04682   0.00000  Uiso   1.00
H27    H     0.47289   0.10938   0.97569   0.00000  Uiso   1.00
H28    H     0.95445   0.90759   0.09245   0.00000  Uiso   1.00
H29    H     0.95657   0.31245   0.09124   0.00000  Uiso   1.00
H30    H     0.77319   0.10912   0.94124   0.00000  Uiso   1.00
H31    H     0.35614   0.11007   0.21294   0.00000  Uiso   1.00
H32    H     0.23017   0.01423   0.24209   0.00000  Uiso   1.00
H33    H     0.23115   0.20623   0.24152   0.00000  Uiso   1.00
H34    H     0.61841   0.10981   0.17039   0.00000  Uiso   1.00
H35    H     0.07257   0.90793   0.25048   0.00000  Uiso   1.00
H36    H     0.07468   0.31280   0.24926   0.00000  Uiso   1.00
H37    H     0.89130   0.10946   0.09927   0.00000  Uiso   1.00
O38    O     0.92812   0.84472   0.18732   0.00000  Uiso   1.00
O39    O     0.93092   0.37589   0.18573   0.00000  Uiso   1.00
O40    O     0.00229   0.10911   0.98893   0.00000  Uiso   1.00
N41    N     0.99956   0.92082   0.12564   0.00000  Uiso   1.00
N42    N     0.00152   0.29934   0.12451   0.00000  Uiso   1.00
N43    N     0.76499   0.10925   0.98427   0.00000  Uiso   1.00
N44    N     0.06312   0.92100   0.21067   0.00000  Uiso   1.00
N45    N     0.06508   0.29952   0.20954   0.00000  Uiso   1.00
N46    N     0.82855   0.10944   0.06930   0.00000  Uiso   1.00
C47    C     0.75021   0.60975   0.42935   0.00000  Uiso   1.00
C48    C     0.80362   0.55772   0.39342   0.00000  Uiso   1.00
C49    C     0.88395   0.51388   0.41057   0.00000  Uiso   1.00
C50    C     0.92230   0.47010   0.37144   0.00000  Uiso   1.00
C51    C     0.01147   0.38931   0.32390   0.00000  Uiso   1.00
C52    C     0.80311   0.66204   0.39372   0.00000  Uiso   1.00
C53    C     0.88298   0.70591   0.41114   0.00000  Uiso   1.00
C54    C     0.92088   0.74995   0.37227   0.00000  Uiso   1.00
C55    C     0.00916   0.83114   0.32522   0.00000  Uiso   1.00
C56    C     0.59270   0.60965   0.43237   0.00000  Uiso   1.00
C57    C     0.49566   0.60947   0.48229   0.00000  Uiso   1.00
C58    C     0.35640   0.60942   0.47595   0.00000  Uiso   1.00
C59    C     0.11799   0.60925   0.48892   0.00000  Uiso   1.00
C60    C     0.67547   0.60997   0.32935   0.00000  Uiso   1.00
C61    C     0.76303   0.55785   0.33910   0.00000  Uiso   1.00
C62    C     0.80126   0.51412   0.29993   0.00000  Uiso   1.00
C63    C     0.88162   0.47022   0.31703   0.00000  Uiso   1.00
C64    C     0.76252   0.66217   0.33941   0.00000  Uiso   1.00
C65    C     0.80029   0.70616   0.30050   0.00000  Uiso   1.00
C66    C     0.88021   0.75008   0.31785   0.00000  Uiso   1.00
C67    C     0.55210   0.60977   0.37806   0.00000  Uiso   1.00
C68    C     0.41297   0.60971   0.37165   0.00000  Uiso   1.00
C69    C     0.31573   0.60954   0.42154   0.00000  Uiso   1.00
H70    H     0.78182   0.60966   0.47163   0.00000  Uiso   1.00
H71    H     0.91536   0.51380   0.45261   0.00000  Uiso   1.00
H72    H     0.91437   0.70581   0.45318   0.00000  Uiso   1.00
H73    H     0.52711   0.60938   0.52431   0.00000  Uiso   1.00
H74    H     0.04555   0.40759   0.40755   0.00000  Uiso   1.00
H75    H     0.04343   0.81245   0.40876   0.00000  Uiso   1.00
H76    H     0.22681   0.60912   0.55876   0.00000  Uiso   1.00
H77    H     0.64386   0.61007   0.28706   0.00000  Uiso   1.00
H78    H     0.76983   0.51423   0.25791   0.00000  Uiso   1.00
H79    H     0.76885   0.70623   0.25848   0.00000  Uiso   1.00
H80    H     0.38159   0.60981   0.32961   0.00000  Uiso   1.00
H81    H     0.92743   0.40793   0.24952   0.00000  Uiso   1.00
H82    H     0.92532   0.81280   0.25074   0.00000  Uiso   1.00
H83    H     0.10870   0.60946   0.40073   0.00000  Uiso   1.00
O84    O     0.07188   0.34472   0.31268   0.00000  Uiso   1.00
O85    O     0.06908   0.87589   0.31427   0.00000  Uiso   1.00
O86    O     0.99771   0.60911   0.51107   0.00000  Uiso   1.00
N87    N     0.00044   0.42082   0.37436   0.00000  Uiso   1.00
N88    N     0.99848   0.79934   0.37549   0.00000  Uiso   1.00
N89    N     0.23501   0.60925   0.51573   0.00000  Uiso   1.00
N90    N     0.93688   0.42100   0.28933   0.00000  Uiso   1.00
N91    N     0.93492   0.79952   0.29046   0.00000  Uiso   1.00
N92    N     0.17145   0.60944   0.43070   0.00000  Uiso   1.00
C93    C     0.75021   0.89025   0.92935   0.00000  Uiso   1.00
C94    C     0.80362   0.94228   0.89342   0.00000  Uiso   1.00
C95    C     0.88395   0.98612   0.91057   0.00000  Uiso   1.00
C96    C     0.92230   0.02990   0.87144   0.00000  Uiso   1.00
C97    C     0.01147   0.11069   0.82390   0.00000  Uiso   1.00
C98    C     0.80311   0.83796   0.89372   0.00000  Uiso   1.00
C99    C     0.88298   0.79409   0.91114   0.00000  Uiso   1.00
C100   C     0.92088   0.75005   0.87227   0.00000  Uiso   1.00
C101   C     0.00916   0.66886   0.82522   0.00000  Uiso   1.00
C102   C     0.59270   0.89035   0.93237   0.00000  Uiso   1.00
C103   C     0.49566   0.89053   0.98229   0.00000  Uiso   1.00
C104   C     0.35640   0.89058   0.97595   0.00000  Uiso   1.00
C105   C     0.11799   0.89075   0.98892   0.00000  Uiso   1.00
C106   C     0.67547   0.89003   0.82935   0.00000  Uiso   1.00
C107   C     0.76303   0.94215   0.83910   0.00000  Uiso   1.00
C108   C     0.80126   0.98588   0.79993   0.00000  Uiso   1.00
C109   C     0.88162   0.02978   0.81703   0.00000  Uiso   1.00
C110   C     0.76252   0.83783   0.83941   0.00000  Uiso   1.00
C111   C     0.80029   0.79384   0.80050   0.00000  Uiso   1.00
C112   C     0.88021   0.74992   0.81785   0.00000  Uiso   1.00
C113   C     0.55210   0.89023   0.87806   0.00000  Uiso   1.00
C114   C     0.41297   0.89029   0.87165   0.00000  Uiso   1.00
C115   C     0.31573   0.89046   0.92154   0.00000  Uiso   1.00
H116   H     0.78182   0.89034   0.97163   0.00000  Uiso   1.00
H117   H     0.91536   0.98620   0.95261   0.00000  Uiso   1.00
H118   H     0.91437   0.79419   0.95318   0.00000  Uiso   1.00
H119   H     0.52711   0.89062   0.02431   0.00000  Uiso   1.00
H120   H     0.04555   0.09241   0.90755   0.00000  Uiso   1.00
H121   H     0.04343   0.68755   0.90876   0.00000  Uiso   1.00
H122   H     0.22681   0.89088   0.05876   0.00000  Uiso   1.00
H123   H     0.64386   0.88993   0.78706   0.00000  Uiso   1.00
H124   H     0.76983   0.98577   0.75791   0.00000  Uiso   1.00
H125   H     0.76885   0.79377   0.75848   0.00000  Uiso   1.00
H126   H     0.38159   0.89019   0.82961   0.00000  Uiso   1.00
H127   H     0.92743   0.09207   0.74952   0.00000  Uiso   1.00
H128   H     0.92532   0.68720   0.75074   0.00000  Uiso   1.00
H129   H     0.10870   0.89054   0.90073   0.00000  Uiso   1.00
O130   O     0.07188   0.15528   0.81268   0.00000  Uiso   1.00
O131   O     0.06908   0.62411   0.81427   0.00000  Uiso   1.00
O132   O     0.99771   0.89089   0.01107   0.00000  Uiso   1.00
N133   N     0.00044   0.07918   0.87436   0.00000  Uiso   1.00
N134   N     0.99848   0.70066   0.87549   0.00000  Uiso   1.00
N135   N     0.23501   0.89075   0.01573   0.00000  Uiso   1.00
N136   N     0.93688   0.07900   0.78933   0.00000  Uiso   1.00
N137   N     0.93492   0.70048   0.79046   0.00000  Uiso   1.00
N138   N     0.17145   0.89056   0.93070   0.00000  Uiso   1.00
C139   C     0.24979   0.39025   0.57065   0.00000  Uiso   1.00
C140   C     0.19638   0.44228   0.60658   0.00000  Uiso   1.00
C141   C     0.11605   0.48612   0.58943   0.00000  Uiso   1.00
C142   C     0.07770   0.52990   0.62856   0.00000  Uiso   1.00
C143   C     0.98853   0.61069   0.67610   0.00000  Uiso   1.00
C144   C     0.19689   0.33796   0.60628   0.00000  Uiso   1.00
C145   C     0.11702   0.29409   0.58886   0.00000  Uiso   1.00
C146   C     0.07912   0.25005   0.62773   0.00000  Uiso   1.00
C147   C     0.99084   0.16886   0.67478   0.00000  Uiso   1.00
C148   C     0.40730   0.39035   0.56763   0.00000  Uiso   1.00
C149   C     0.50434   0.39053   0.51771   0.00000  Uiso   1.00
C150   C     0.64360   0.39058   0.52405   0.00000  Uiso   1.00
C151   C     0.88201   0.39075   0.51108   0.00000  Uiso   1.00
C152   C     0.32453   0.39003   0.67065   0.00000  Uiso   1.00
C153   C     0.23697   0.44215   0.66090   0.00000  Uiso   1.00
C154   C     0.19874   0.48588   0.70007   0.00000  Uiso   1.00
C155   C     0.11838   0.52978   0.68297   0.00000  Uiso   1.00
C156   C     0.23748   0.33783   0.66059   0.00000  Uiso   1.00
C157   C     0.19971   0.29384   0.69950   0.00000  Uiso   1.00
C158   C     0.11979   0.24992   0.68215   0.00000  Uiso   1.00
C159   C     0.44790   0.39023   0.62194   0.00000  Uiso   1.00
C160   C     0.58703   0.39029   0.62835   0.00000  Uiso   1.00
C161   C     0.68427   0.39046   0.57846   0.00000  Uiso   1.00
H162   H     0.21818   0.39034   0.52837   0.00000  Uiso   1.00
H163   H     0.08464   0.48620   0.54739   0.00000  Uiso   1.00
H164   H     0.08563   0.29419   0.54682   0.00000  Uiso   1.00
H165   H     0.47289   0.39062   0.47569   0.00000  Uiso   1.00
H166   H     0.95445   0.59241   0.59245   0.00000  Uiso   1.00
H167   H     0.95657   0.18755   0.59124   0.00000  Uiso   1.00
H168   H     0.77319   0.39088   0.44124   0.00000  Uiso   1.00
H169   H     0.35614   0.38993   0.71294   0.00000  Uiso   1.00
H170   H     0.23017   0.48577   0.74209   0.00000  Uiso   1.00
H171   H     0.23115   0.29377   0.74152   0.00000  Uiso   1.00
H172   H     0.61841   0.39019   0.67039   0.00000  Uiso   1.00
H173   H     0.07257   0.59207   0.75048   0.00000  Uiso   1.00
H174   H     0.07468   0.18720   0.74926   0.00000  Uiso   1.00
H175   H     0.89130   0.39054   0.59927   0.00000  Uiso   1.00
O176   O     0.92812   0.65528   0.68732   0.00000  Uiso   1.00
O177   O     0.93092   0.12411   0.68573   0.00000  Uiso   1.00
O178   O     0.00229   0.39089   0.48893   0.00000  Uiso   1.00
N179   N     0.99956   0.57918   0.62564   0.00000  Uiso   1.00
N180   N     0.00152   0.20066   0.62451   0.00000  Uiso   1.00
N181   N     0.76499   0.39075   0.48427   0.00000  Uiso   1.00
N182   N     0.06312   0.57900   0.71067   0.00000  Uiso   1.00
N183   N     0.06508   0.20048   0.70954   0.00000  Uiso   1.00
N184   N     0.82855   0.39056   0.56930   0.00000  Uiso   1.00
