data_job_01165
_audit_creation_date              2018-12-19
_audit_creation_method            'Materials Studio'
_symmetry_space_group_name_H-M    'P1'
_symmetry_Int_Tables_number       1
_symmetry_cell_setting            triclinic
loop_
_symmetry_equiv_pos_as_xyz
  x,y,z
_cell_length_a                    23.0987
_cell_length_b                    23.0987
_cell_length_c                    7.9218
_cell_angle_alpha                 90.0000
_cell_angle_beta                  90.0000
_cell_angle_gamma                 120.0000
loop_
_atom_site_label
_atom_site_type_symbol
_atom_site_fract_x
_atom_site_fract_y
_atom_site_fract_z
_atom_site_U_iso_or_equiv
_atom_site_adp_type
_atom_site_occupancy
C1     C     0.34492   0.33661   0.09669   0.00000  Uiso   1.00
C2     C     0.41702   0.35124   0.09978   0.00000  Uiso   1.00
C3     C     0.46066   0.37275   0.96359   0.00000  Uiso   1.00
C4     C     0.52453   0.38333   0.99220   0.00000  Uiso   1.00
C5     C     0.63351   0.40762   0.97277   0.00000  Uiso   1.00
C6     C     0.30223   0.26473   0.15774   0.00000  Uiso   1.00
C7     C     0.24935   0.21353   0.07029   0.00000  Uiso   1.00
C8     C     0.21660   0.15129   0.14771   0.00000  Uiso   1.00
C9     C     0.14733   0.04130   0.21831   0.00000  Uiso   1.00
C10    C     0.34008   0.38049   0.23332   0.00000  Uiso   1.00
C11    C     0.31900   0.42661   0.20944   0.00000  Uiso   1.00
C12    C     0.31809   0.46182   0.35051   0.00000  Uiso   1.00
C13    C     0.30759   0.53157   0.53848   0.00000  Uiso   1.00
C14    C     0.38077   0.31712   0.38968   0.00000  Uiso   1.00
C15    C     0.43649   0.34065   0.25892   0.00000  Uiso   1.00
C16    C     0.50031   0.35120   0.28775   0.00000  Uiso   1.00
C17    C     0.54404   0.37273   0.15163   0.00000  Uiso   1.00
C18    C     0.32170   0.25415   0.31687   0.00000  Uiso   1.00
C19    C     0.28901   0.19197   0.39444   0.00000  Uiso   1.00
C20    C     0.23610   0.14068   0.30713   0.00000  Uiso   1.00
C21    C     0.35955   0.36991   0.39247   0.00000  Uiso   1.00
C22    C     0.35866   0.40506   0.53360   0.00000  Uiso   1.00
C23    C     0.33759   0.45122   0.50994   0.00000  Uiso   1.00
H24    H     0.32976   0.34484   0.97279   0.00000  Uiso   1.00
H25    H     0.44557   0.38093   0.84045   0.00000  Uiso   1.00
H26    H     0.23429   0.22174   0.94715   0.00000  Uiso   1.00
H27    H     0.30394   0.43479   0.08628   0.00000  Uiso   1.00
H28    H     0.58254   0.41625   0.76389   0.00000  Uiso   1.00
H29    H     0.13704   0.08058   0.98889   0.00000  Uiso   1.00
H30    H     0.28390   0.52984   0.28227   0.00000  Uiso   1.00
H31    H     0.39592   0.30888   0.51358   0.00000  Uiso   1.00
H32    H     0.51536   0.34300   0.41091   0.00000  Uiso   1.00
H33    H     0.30409   0.18380   0.51760   0.00000  Uiso   1.00
H34    H     0.37373   0.39685   0.65673   0.00000  Uiso   1.00
H35    H     0.63919   0.38546   0.22690   0.00000  Uiso   1.00
H36    H     0.19369   0.04979   0.45189   0.00000  Uiso   1.00
H37    H     0.34054   0.49905   0.74528   0.00000  Uiso   1.00
O38    O     0.68823   0.42393   0.91809   0.00000  Uiso   1.00
O39    O     0.10375   0.98355   0.21328   0.00000  Uiso   1.00
O40    O     0.29642   0.57296   0.59819   0.00000  Uiso   1.00
N41    N     0.57948   0.40434   0.88696   0.00000  Uiso   1.00
N42    N     0.16298   0.09050   0.09730   0.00000  Uiso   1.00
N43    N     0.30026   0.51051   0.37160   0.00000  Uiso   1.00
N44    N     0.60997   0.38777   0.13610   0.00000  Uiso   1.00
N45    N     0.19346   0.07394   0.34644   0.00000  Uiso   1.00
N46    N     0.33074   0.49394   0.62074   0.00000  Uiso   1.00
C47    C     0.66339   0.00831   0.09669   0.00000  Uiso   1.00
C48    C     0.64876   0.06578   0.09978   0.00000  Uiso   1.00
C49    C     0.62725   0.08790   0.96359   0.00000  Uiso   1.00
C50    C     0.61667   0.14120   0.99220   0.00000  Uiso   1.00
C51    C     0.59238   0.22589   0.97277   0.00000  Uiso   1.00
C52    C     0.73527   0.03750   0.15774   0.00000  Uiso   1.00
C53    C     0.78647   0.03582   0.07029   0.00000  Uiso   1.00
C54    C     0.84871   0.06531   0.14771   0.00000  Uiso   1.00
C55    C     0.95870   0.10603   0.21831   0.00000  Uiso   1.00
C56    C     0.61951   0.95958   0.23332   0.00000  Uiso   1.00
C57    C     0.57339   0.89239   0.20944   0.00000  Uiso   1.00
C58    C     0.53818   0.85627   0.35051   0.00000  Uiso   1.00
C59    C     0.46843   0.77602   0.53848   0.00000  Uiso   1.00
C60    C     0.68288   0.06364   0.38968   0.00000  Uiso   1.00
C61    C     0.65935   0.09584   0.25892   0.00000  Uiso   1.00
C62    C     0.64880   0.14912   0.28775   0.00000  Uiso   1.00
C63    C     0.62727   0.17131   0.15163   0.00000  Uiso   1.00
C64    C     0.74585   0.06755   0.31687   0.00000  Uiso   1.00
C65    C     0.80803   0.09704   0.39444   0.00000  Uiso   1.00
C66    C     0.85932   0.09541   0.30713   0.00000  Uiso   1.00
C67    C     0.63009   0.98963   0.39247   0.00000  Uiso   1.00
C68    C     0.59494   0.95361   0.53360   0.00000  Uiso   1.00
C69    C     0.54878   0.88638   0.50994   0.00000  Uiso   1.00
H70    H     0.65516   0.98492   0.97279   0.00000  Uiso   1.00
H71    H     0.61907   0.06464   0.84045   0.00000  Uiso   1.00
H72    H     0.77826   0.01256   0.94715   0.00000  Uiso   1.00
H73    H     0.56521   0.86915   0.08628   0.00000  Uiso   1.00
H74    H     0.58375   0.16629   0.76389   0.00000  Uiso   1.00
H75    H     0.91942   0.05646   0.98889   0.00000  Uiso   1.00
H76    H     0.47016   0.75406   0.28227   0.00000  Uiso   1.00
H77    H     0.69112   0.08704   0.51358   0.00000  Uiso   1.00
H78    H     0.65700   0.17236   0.41091   0.00000  Uiso   1.00
H79    H     0.81620   0.12029   0.51760   0.00000  Uiso   1.00
H80    H     0.60315   0.97688   0.65673   0.00000  Uiso   1.00
H81    H     0.61454   0.25372   0.22690   0.00000  Uiso   1.00
H82    H     0.95021   0.14389   0.45189   0.00000  Uiso   1.00
H83    H     0.50095   0.84149   0.74528   0.00000  Uiso   1.00
O84    O     0.57607   0.26430   0.91809   0.00000  Uiso   1.00
O85    O     0.01645   0.12020   0.21328   0.00000  Uiso   1.00
O86    O     0.42704   0.72346   0.59819   0.00000  Uiso   1.00
N87    N     0.59566   0.17515   0.88696   0.00000  Uiso   1.00
N88    N     0.90950   0.07248   0.09730   0.00000  Uiso   1.00
N89    N     0.48949   0.78975   0.37160   0.00000  Uiso   1.00
N90    N     0.61223   0.22219   0.13610   0.00000  Uiso   1.00
N91    N     0.92606   0.11952   0.34644   0.00000  Uiso   1.00
N92    N     0.50606   0.83680   0.62074   0.00000  Uiso   1.00
C93    C     0.99169   0.65508   0.09669   0.00000  Uiso   1.00
C94    C     0.93422   0.58298   0.09978   0.00000  Uiso   1.00
C95    C     0.91210   0.53934   0.96359   0.00000  Uiso   1.00
C96    C     0.85880   0.47547   0.99220   0.00000  Uiso   1.00
C97    C     0.77411   0.36649   0.97277   0.00000  Uiso   1.00
C98    C     0.96250   0.69777   0.15774   0.00000  Uiso   1.00
C99    C     0.96418   0.75065   0.07029   0.00000  Uiso   1.00
C100   C     0.93469   0.78340   0.14771   0.00000  Uiso   1.00
C101   C     0.89397   0.85267   0.21831   0.00000  Uiso   1.00
C102   C     0.04042   0.65992   0.23332   0.00000  Uiso   1.00
C103   C     0.10761   0.68100   0.20944   0.00000  Uiso   1.00
C104   C     0.14373   0.68191   0.35051   0.00000  Uiso   1.00
C105   C     0.22398   0.69241   0.53848   0.00000  Uiso   1.00
C106   C     0.93636   0.61923   0.38968   0.00000  Uiso   1.00
C107   C     0.90416   0.56351   0.25892   0.00000  Uiso   1.00
C108   C     0.85088   0.49969   0.28775   0.00000  Uiso   1.00
C109   C     0.82869   0.45596   0.15163   0.00000  Uiso   1.00
C110   C     0.93245   0.67830   0.31687   0.00000  Uiso   1.00
C111   C     0.90296   0.71099   0.39444   0.00000  Uiso   1.00
C112   C     0.90459   0.76390   0.30713   0.00000  Uiso   1.00
C113   C     0.01037   0.64045   0.39247   0.00000  Uiso   1.00
C114   C     0.04639   0.64134   0.53360   0.00000  Uiso   1.00
C115   C     0.11362   0.66241   0.50994   0.00000  Uiso   1.00
H116   H     0.01508   0.67024   0.97279   0.00000  Uiso   1.00
H117   H     0.93536   0.55443   0.84045   0.00000  Uiso   1.00
H118   H     0.98744   0.76571   0.94715   0.00000  Uiso   1.00
H119   H     0.13085   0.69606   0.08628   0.00000  Uiso   1.00
H120   H     0.83371   0.41746   0.76389   0.00000  Uiso   1.00
H121   H     0.94354   0.86296   0.98889   0.00000  Uiso   1.00
H122   H     0.24594   0.71610   0.28227   0.00000  Uiso   1.00
H123   H     0.91296   0.60408   0.51358   0.00000  Uiso   1.00
H124   H     0.82764   0.48464   0.41091   0.00000  Uiso   1.00
H125   H     0.87971   0.69591   0.51760   0.00000  Uiso   1.00
H126   H     0.02312   0.62627   0.65673   0.00000  Uiso   1.00
H127   H     0.74628   0.36081   0.22690   0.00000  Uiso   1.00
H128   H     0.85611   0.80631   0.45189   0.00000  Uiso   1.00
H129   H     0.15851   0.65946   0.74528   0.00000  Uiso   1.00
O130   O     0.73570   0.31177   0.91809   0.00000  Uiso   1.00
O131   O     0.87980   0.89625   0.21328   0.00000  Uiso   1.00
O132   O     0.27654   0.70358   0.59819   0.00000  Uiso   1.00
N133   N     0.82485   0.42052   0.88696   0.00000  Uiso   1.00
N134   N     0.92752   0.83702   0.09730   0.00000  Uiso   1.00
N135   N     0.21025   0.69974   0.37160   0.00000  Uiso   1.00
N136   N     0.77781   0.39003   0.13610   0.00000  Uiso   1.00
N137   N     0.88048   0.80654   0.34644   0.00000  Uiso   1.00
N138   N     0.16320   0.66926   0.62074   0.00000  Uiso   1.00
C139   C     0.65508   0.66339   0.90331   0.00000  Uiso   1.00
C140   C     0.58298   0.64876   0.90022   0.00000  Uiso   1.00
C141   C     0.53934   0.62725   0.03641   0.00000  Uiso   1.00
C142   C     0.47547   0.61667   0.00780   0.00000  Uiso   1.00
C143   C     0.36649   0.59238   0.02723   0.00000  Uiso   1.00
C144   C     0.69777   0.73527   0.84226   0.00000  Uiso   1.00
C145   C     0.75065   0.78647   0.92971   0.00000  Uiso   1.00
C146   C     0.78340   0.84871   0.85229   0.00000  Uiso   1.00
C147   C     0.85267   0.95870   0.78169   0.00000  Uiso   1.00
C148   C     0.65992   0.61951   0.76668   0.00000  Uiso   1.00
C149   C     0.68100   0.57339   0.79056   0.00000  Uiso   1.00
C150   C     0.68191   0.53818   0.64949   0.00000  Uiso   1.00
C151   C     0.69241   0.46843   0.46152   0.00000  Uiso   1.00
C152   C     0.61923   0.68288   0.61032   0.00000  Uiso   1.00
C153   C     0.56351   0.65935   0.74108   0.00000  Uiso   1.00
C154   C     0.49969   0.64880   0.71225   0.00000  Uiso   1.00
C155   C     0.45596   0.62727   0.84837   0.00000  Uiso   1.00
C156   C     0.67830   0.74585   0.68313   0.00000  Uiso   1.00
C157   C     0.71099   0.80803   0.60556   0.00000  Uiso   1.00
C158   C     0.76390   0.85932   0.69287   0.00000  Uiso   1.00
C159   C     0.64045   0.63009   0.60753   0.00000  Uiso   1.00
C160   C     0.64134   0.59494   0.46640   0.00000  Uiso   1.00
C161   C     0.66241   0.54878   0.49006   0.00000  Uiso   1.00
H162   H     0.67024   0.65516   0.02721   0.00000  Uiso   1.00
H163   H     0.55443   0.61907   0.15955   0.00000  Uiso   1.00
H164   H     0.76571   0.77826   0.05285   0.00000  Uiso   1.00
H165   H     0.69606   0.56521   0.91372   0.00000  Uiso   1.00
H166   H     0.41746   0.58375   0.23611   0.00000  Uiso   1.00
H167   H     0.86296   0.91942   0.01111   0.00000  Uiso   1.00
H168   H     0.71610   0.47016   0.71773   0.00000  Uiso   1.00
H169   H     0.60408   0.69112   0.48642   0.00000  Uiso   1.00
H170   H     0.48464   0.65700   0.58909   0.00000  Uiso   1.00
H171   H     0.69591   0.81620   0.48240   0.00000  Uiso   1.00
H172   H     0.62627   0.60315   0.34327   0.00000  Uiso   1.00
H173   H     0.36081   0.61454   0.77310   0.00000  Uiso   1.00
H174   H     0.80631   0.95021   0.54811   0.00000  Uiso   1.00
H175   H     0.65946   0.50095   0.25472   0.00000  Uiso   1.00
O176   O     0.31177   0.57607   0.08191   0.00000  Uiso   1.00
O177   O     0.89625   0.01645   0.78672   0.00000  Uiso   1.00
O178   O     0.70358   0.42704   0.40181   0.00000  Uiso   1.00
N179   N     0.42052   0.59566   0.11304   0.00000  Uiso   1.00
N180   N     0.83702   0.90950   0.90270   0.00000  Uiso   1.00
N181   N     0.69974   0.48949   0.62840   0.00000  Uiso   1.00
N182   N     0.39003   0.61223   0.86390   0.00000  Uiso   1.00
N183   N     0.80654   0.92606   0.65356   0.00000  Uiso   1.00
N184   N     0.66926   0.50606   0.37926   0.00000  Uiso   1.00
C185   C     0.33661   0.99169   0.90331   0.00000  Uiso   1.00
C186   C     0.35124   0.93422   0.90022   0.00000  Uiso   1.00
C187   C     0.37275   0.91210   0.03641   0.00000  Uiso   1.00
C188   C     0.38333   0.85880   0.00780   0.00000  Uiso   1.00
C189   C     0.40762   0.77411   0.02723   0.00000  Uiso   1.00
C190   C     0.26473   0.96250   0.84226   0.00000  Uiso   1.00
C191   C     0.21353   0.96418   0.92971   0.00000  Uiso   1.00
C192   C     0.15129   0.93469   0.85229   0.00000  Uiso   1.00
C193   C     0.04130   0.89397   0.78169   0.00000  Uiso   1.00
C194   C     0.38049   0.04042   0.76668   0.00000  Uiso   1.00
C195   C     0.42661   0.10761   0.79056   0.00000  Uiso   1.00
C196   C     0.46182   0.14373   0.64949   0.00000  Uiso   1.00
C197   C     0.53157   0.22398   0.46152   0.00000  Uiso   1.00
C198   C     0.31712   0.93636   0.61032   0.00000  Uiso   1.00
C199   C     0.34065   0.90416   0.74108   0.00000  Uiso   1.00
C200   C     0.35120   0.85088   0.71225   0.00000  Uiso   1.00
C201   C     0.37273   0.82869   0.84837   0.00000  Uiso   1.00
C202   C     0.25415   0.93245   0.68313   0.00000  Uiso   1.00
C203   C     0.19197   0.90296   0.60556   0.00000  Uiso   1.00
C204   C     0.14068   0.90459   0.69287   0.00000  Uiso   1.00
C205   C     0.36991   0.01037   0.60753   0.00000  Uiso   1.00
C206   C     0.40506   0.04639   0.46640   0.00000  Uiso   1.00
C207   C     0.45122   0.11362   0.49006   0.00000  Uiso   1.00
H208   H     0.34484   0.01508   0.02721   0.00000  Uiso   1.00
H209   H     0.38093   0.93536   0.15955   0.00000  Uiso   1.00
H210   H     0.22174   0.98744   0.05285   0.00000  Uiso   1.00
H211   H     0.43479   0.13085   0.91372   0.00000  Uiso   1.00
H212   H     0.41625   0.83371   0.23611   0.00000  Uiso   1.00
H213   H     0.08058   0.94354   0.01111   0.00000  Uiso   1.00
H214   H     0.52984   0.24594   0.71773   0.00000  Uiso   1.00
H215   H     0.30888   0.91296   0.48642   0.00000  Uiso   1.00
H216   H     0.34300   0.82764   0.58909   0.00000  Uiso   1.00
H217   H     0.18380   0.87971   0.48240   0.00000  Uiso   1.00
H218   H     0.39685   0.02312   0.34327   0.00000  Uiso   1.00
H219   H     0.38546   0.74628   0.77310   0.00000  Uiso   1.00
H220   H     0.04979   0.85611   0.54811   0.00000  Uiso   1.00
H221   H     0.49905   0.15851   0.25472   0.00000  Uiso   1.00
O222   O     0.42393   0.73570   0.08191   0.00000  Uiso   1.00
O223   O     0.98355   0.87980   0.78672   0.00000  Uiso   1.00
O224   O     0.57296   0.27654   0.40181   0.00000  Uiso   1.00
N225   N     0.40434   0.82485   0.11304   0.00000  Uiso   1.00
N226   N     0.09050   0.92752   0.90270   0.00000  Uiso   1.00
N227   N     0.51051   0.21025   0.62840   0.00000  Uiso   1.00
N228   N     0.38777   0.77781   0.86390   0.00000  Uiso   1.00
N229   N     0.07394   0.88048   0.65356   0.00000  Uiso   1.00
N230   N     0.49394   0.16320   0.37926   0.00000  Uiso   1.00
C231   C     0.00831   0.34492   0.90331   0.00000  Uiso   1.00
C232   C     0.06578   0.41702   0.90022   0.00000  Uiso   1.00
C233   C     0.08790   0.46066   0.03641   0.00000  Uiso   1.00
C234   C     0.14120   0.52453   0.00780   0.00000  Uiso   1.00
C235   C     0.22589   0.63351   0.02723   0.00000  Uiso   1.00
C236   C     0.03750   0.30223   0.84226   0.00000  Uiso   1.00
C237   C     0.03582   0.24935   0.92971   0.00000  Uiso   1.00
C238   C     0.06531   0.21660   0.85229   0.00000  Uiso   1.00
C239   C     0.10603   0.14733   0.78169   0.00000  Uiso   1.00
C240   C     0.95958   0.34008   0.76668   0.00000  Uiso   1.00
C241   C     0.89239   0.31900   0.79056   0.00000  Uiso   1.00
C242   C     0.85627   0.31809   0.64949   0.00000  Uiso   1.00
C243   C     0.77602   0.30759   0.46152   0.00000  Uiso   1.00
C244   C     0.06364   0.38077   0.61032   0.00000  Uiso   1.00
C245   C     0.09584   0.43649   0.74108   0.00000  Uiso   1.00
C246   C     0.14912   0.50031   0.71225   0.00000  Uiso   1.00
C247   C     0.17131   0.54404   0.84837   0.00000  Uiso   1.00
C248   C     0.06755   0.32170   0.68313   0.00000  Uiso   1.00
C249   C     0.09704   0.28901   0.60556   0.00000  Uiso   1.00
C250   C     0.09541   0.23610   0.69287   0.00000  Uiso   1.00
C251   C     0.98963   0.35955   0.60753   0.00000  Uiso   1.00
C252   C     0.95361   0.35866   0.46640   0.00000  Uiso   1.00
C253   C     0.88638   0.33759   0.49006   0.00000  Uiso   1.00
H254   H     0.98492   0.32976   0.02721   0.00000  Uiso   1.00
H255   H     0.06464   0.44557   0.15955   0.00000  Uiso   1.00
H256   H     0.01256   0.23429   0.05285   0.00000  Uiso   1.00
H257   H     0.86915   0.30394   0.91372   0.00000  Uiso   1.00
H258   H     0.16629   0.58254   0.23611   0.00000  Uiso   1.00
H259   H     0.05646   0.13704   0.01111   0.00000  Uiso   1.00
H260   H     0.75406   0.28390   0.71773   0.00000  Uiso   1.00
H261   H     0.08704   0.39592   0.48642   0.00000  Uiso   1.00
H262   H     0.17236   0.51536   0.58909   0.00000  Uiso   1.00
H263   H     0.12029   0.30409   0.48240   0.00000  Uiso   1.00
H264   H     0.97688   0.37373   0.34327   0.00000  Uiso   1.00
H265   H     0.25372   0.63919   0.77310   0.00000  Uiso   1.00
H266   H     0.14389   0.19369   0.54811   0.00000  Uiso   1.00
H267   H     0.84149   0.34054   0.25472   0.00000  Uiso   1.00
O268   O     0.26430   0.68823   0.08191   0.00000  Uiso   1.00
O269   O     0.12020   0.10375   0.78672   0.00000  Uiso   1.00
O270   O     0.72346   0.29642   0.40181   0.00000  Uiso   1.00
N271   N     0.17515   0.57948   0.11304   0.00000  Uiso   1.00
N272   N     0.07248   0.16298   0.90270   0.00000  Uiso   1.00
N273   N     0.78975   0.30026   0.62840   0.00000  Uiso   1.00
N274   N     0.22219   0.60997   0.86390   0.00000  Uiso   1.00
N275   N     0.11952   0.19346   0.65356   0.00000  Uiso   1.00
N276   N     0.83680   0.33074   0.37926   0.00000  Uiso   1.00
