data_job_04075
_audit_creation_date              2018-12-19
_audit_creation_method            'Materials Studio'
_symmetry_space_group_name_H-M    'P1'
_symmetry_Int_Tables_number       1
_symmetry_cell_setting            triclinic
loop_
_symmetry_equiv_pos_as_xyz
  x,y,z
_cell_length_a                    19.7471
_cell_length_b                    16.0603
_cell_length_c                    14.9373
_cell_angle_alpha                 90.0000
_cell_angle_beta                  90.0000
_cell_angle_gamma                 90.0000
loop_
_atom_site_label
_atom_site_type_symbol
_atom_site_fract_x
_atom_site_fract_y
_atom_site_fract_z
_atom_site_U_iso_or_equiv
_atom_site_adp_type
_atom_site_occupancy
C1     C     0.74696   0.24996   0.77530   0.00000  Uiso   1.00
C2     C     0.79316   0.17411   0.76890   0.00000  Uiso   1.00
C3     C     0.79746   0.11034   0.83133   0.00000  Uiso   1.00
C4     C     0.84284   0.04649   0.81324   0.00000  Uiso   1.00
C5     C     0.90857   0.92874   0.81516   0.00000  Uiso   1.00
C6     C     0.79317   0.32581   0.76891   0.00000  Uiso   1.00
C7     C     0.79746   0.38958   0.83135   0.00000  Uiso   1.00
C8     C     0.84284   0.45344   0.81326   0.00000  Uiso   1.00
C9     C     0.90855   0.57122   0.81515   0.00000  Uiso   1.00
C10    C     0.70455   0.24998   0.68999   0.00000  Uiso   1.00
C11    C     0.63433   0.25002   0.68606   0.00000  Uiso   1.00
C12    C     0.60510   0.25005   0.60152   0.00000  Uiso   1.00
C13    C     0.53322   0.25010   0.48088   0.00000  Uiso   1.00
C14    C     0.81991   0.24997   0.63214   0.00000  Uiso   1.00
C15    C     0.83278   0.17412   0.69114   0.00000  Uiso   1.00
C16    C     0.87817   0.11035   0.67295   0.00000  Uiso   1.00
C17    C     0.88253   0.04649   0.73535   0.00000  Uiso   1.00
C18    C     0.83279   0.32581   0.69116   0.00000  Uiso   1.00
C19    C     0.87817   0.38959   0.67297   0.00000  Uiso   1.00
C20    C     0.88253   0.45344   0.73536   0.00000  Uiso   1.00
C21    C     0.74417   0.24998   0.61223   0.00000  Uiso   1.00
C22    C     0.71504   0.25002   0.52768   0.00000  Uiso   1.00
C23    C     0.64480   0.25006   0.52363   0.00000  Uiso   1.00
H24    H     0.71611   0.24996   0.83583   0.00000  Uiso   1.00
H25    H     0.76679   0.11036   0.89150   0.00000  Uiso   1.00
H26    H     0.76679   0.38957   0.89151   0.00000  Uiso   1.00
H27    H     0.60369   0.25002   0.74625   0.00000  Uiso   1.00
H28    H     0.84046   0.95561   0.91895   0.00000  Uiso   1.00
H29    H     0.84044   0.54433   0.91895   0.00000  Uiso   1.00
H30    H     0.49651   0.25007   0.61264   0.00000  Uiso   1.00
H31    H     0.85076   0.24998   0.57161   0.00000  Uiso   1.00
H32    H     0.90882   0.11037   0.61277   0.00000  Uiso   1.00
H33    H     0.90882   0.38957   0.61278   0.00000  Uiso   1.00
H34    H     0.74572   0.25003   0.46752   0.00000  Uiso   1.00
H35    H     0.95575   0.95561   0.69272   0.00000  Uiso   1.00
H36    H     0.95572   0.54435   0.69272   0.00000  Uiso   1.00
H37    H     0.61179   0.25008   0.38641   0.00000  Uiso   1.00
O38    O     0.93389   0.86379   0.83770   0.00000  Uiso   1.00
O39    O     0.93385   0.63618   0.83769   0.00000  Uiso   1.00
O40    O     0.48262   0.25011   0.43582   0.00000  Uiso   1.00
N41    N     0.85962   0.97476   0.86005   0.00000  Uiso   1.00
N42    N     0.85960   0.52518   0.86005   0.00000  Uiso   1.00
N43    N     0.53806   0.25009   0.57368   0.00000  Uiso   1.00
N44    N     0.92165   0.97476   0.73832   0.00000  Uiso   1.00
N45    N     0.92164   0.52518   0.73832   0.00000  Uiso   1.00
N46    N     0.60009   0.25009   0.45195   0.00000  Uiso   1.00
C47    C     0.75304   0.75004   0.77530   0.00000  Uiso   1.00
C48    C     0.70684   0.82589   0.76890   0.00000  Uiso   1.00
C49    C     0.70254   0.88966   0.83133   0.00000  Uiso   1.00
C50    C     0.65716   0.95351   0.81324   0.00000  Uiso   1.00
C51    C     0.59143   0.07126   0.81516   0.00000  Uiso   1.00
C52    C     0.70683   0.67419   0.76891   0.00000  Uiso   1.00
C53    C     0.70254   0.61042   0.83135   0.00000  Uiso   1.00
C54    C     0.65716   0.54656   0.81326   0.00000  Uiso   1.00
C55    C     0.59145   0.42878   0.81515   0.00000  Uiso   1.00
C56    C     0.79545   0.75002   0.68999   0.00000  Uiso   1.00
C57    C     0.86567   0.74998   0.68606   0.00000  Uiso   1.00
C58    C     0.89490   0.74995   0.60152   0.00000  Uiso   1.00
C59    C     0.96678   0.74990   0.48088   0.00000  Uiso   1.00
C60    C     0.68009   0.75003   0.63214   0.00000  Uiso   1.00
C61    C     0.66722   0.82588   0.69114   0.00000  Uiso   1.00
C62    C     0.62183   0.88965   0.67295   0.00000  Uiso   1.00
C63    C     0.61747   0.95351   0.73535   0.00000  Uiso   1.00
C64    C     0.66721   0.67419   0.69116   0.00000  Uiso   1.00
C65    C     0.62183   0.61041   0.67297   0.00000  Uiso   1.00
C66    C     0.61747   0.54656   0.73536   0.00000  Uiso   1.00
C67    C     0.75583   0.75002   0.61223   0.00000  Uiso   1.00
C68    C     0.78496   0.74998   0.52768   0.00000  Uiso   1.00
C69    C     0.85520   0.74994   0.52363   0.00000  Uiso   1.00
H70    H     0.78389   0.75004   0.83583   0.00000  Uiso   1.00
H71    H     0.73321   0.88964   0.89150   0.00000  Uiso   1.00
H72    H     0.73321   0.61043   0.89151   0.00000  Uiso   1.00
H73    H     0.89631   0.74998   0.74625   0.00000  Uiso   1.00
H74    H     0.65954   0.04439   0.91895   0.00000  Uiso   1.00
H75    H     0.65956   0.45567   0.91895   0.00000  Uiso   1.00
H76    H     0.00349   0.74993   0.61264   0.00000  Uiso   1.00
H77    H     0.64924   0.75002   0.57161   0.00000  Uiso   1.00
H78    H     0.59118   0.88963   0.61277   0.00000  Uiso   1.00
H79    H     0.59118   0.61043   0.61278   0.00000  Uiso   1.00
H80    H     0.75428   0.74997   0.46752   0.00000  Uiso   1.00
H81    H     0.54425   0.04439   0.69272   0.00000  Uiso   1.00
H82    H     0.54428   0.45565   0.69272   0.00000  Uiso   1.00
H83    H     0.88821   0.74992   0.38641   0.00000  Uiso   1.00
O84    O     0.56611   0.13621   0.83770   0.00000  Uiso   1.00
O85    O     0.56615   0.36382   0.83769   0.00000  Uiso   1.00
O86    O     0.01738   0.74989   0.43582   0.00000  Uiso   1.00
N87    N     0.64038   0.02524   0.86005   0.00000  Uiso   1.00
N88    N     0.64040   0.47482   0.86005   0.00000  Uiso   1.00
N89    N     0.96194   0.74991   0.57368   0.00000  Uiso   1.00
N90    N     0.57835   0.02524   0.73832   0.00000  Uiso   1.00
N91    N     0.57836   0.47482   0.73832   0.00000  Uiso   1.00
N92    N     0.89991   0.74991   0.45195   0.00000  Uiso   1.00
C93    C     0.25304   0.24996   0.72470   0.00000  Uiso   1.00
C94    C     0.20684   0.17411   0.73110   0.00000  Uiso   1.00
C95    C     0.20254   0.11034   0.66867   0.00000  Uiso   1.00
C96    C     0.15716   0.04649   0.68676   0.00000  Uiso   1.00
C97    C     0.09143   0.92874   0.68484   0.00000  Uiso   1.00
C98    C     0.20683   0.32581   0.73109   0.00000  Uiso   1.00
C99    C     0.20254   0.38958   0.66865   0.00000  Uiso   1.00
C100   C     0.15716   0.45344   0.68674   0.00000  Uiso   1.00
C101   C     0.09145   0.57122   0.68485   0.00000  Uiso   1.00
C102   C     0.29545   0.24998   0.81001   0.00000  Uiso   1.00
C103   C     0.36567   0.25002   0.81394   0.00000  Uiso   1.00
C104   C     0.39490   0.25005   0.89848   0.00000  Uiso   1.00
C105   C     0.46678   0.25010   0.01912   0.00000  Uiso   1.00
C106   C     0.18009   0.24997   0.86786   0.00000  Uiso   1.00
C107   C     0.16722   0.17412   0.80886   0.00000  Uiso   1.00
C108   C     0.12183   0.11035   0.82705   0.00000  Uiso   1.00
C109   C     0.11747   0.04649   0.76465   0.00000  Uiso   1.00
C110   C     0.16721   0.32581   0.80884   0.00000  Uiso   1.00
C111   C     0.12183   0.38959   0.82703   0.00000  Uiso   1.00
C112   C     0.11747   0.45344   0.76464   0.00000  Uiso   1.00
C113   C     0.25583   0.24998   0.88777   0.00000  Uiso   1.00
C114   C     0.28496   0.25002   0.97232   0.00000  Uiso   1.00
C115   C     0.35520   0.25006   0.97637   0.00000  Uiso   1.00
H116   H     0.28389   0.24996   0.66417   0.00000  Uiso   1.00
H117   H     0.23321   0.11036   0.60850   0.00000  Uiso   1.00
H118   H     0.23321   0.38957   0.60849   0.00000  Uiso   1.00
H119   H     0.39631   0.25002   0.75375   0.00000  Uiso   1.00
H120   H     0.15954   0.95561   0.58105   0.00000  Uiso   1.00
H121   H     0.15956   0.54433   0.58105   0.00000  Uiso   1.00
H122   H     0.50349   0.25007   0.88736   0.00000  Uiso   1.00
H123   H     0.14924   0.24998   0.92839   0.00000  Uiso   1.00
H124   H     0.09118   0.11037   0.88723   0.00000  Uiso   1.00
H125   H     0.09118   0.38957   0.88722   0.00000  Uiso   1.00
H126   H     0.25428   0.25003   0.03248   0.00000  Uiso   1.00
H127   H     0.04425   0.95561   0.80728   0.00000  Uiso   1.00
H128   H     0.04428   0.54435   0.80728   0.00000  Uiso   1.00
H129   H     0.38821   0.25008   0.11359   0.00000  Uiso   1.00
O130   O     0.06611   0.86379   0.66230   0.00000  Uiso   1.00
O131   O     0.06615   0.63618   0.66231   0.00000  Uiso   1.00
O132   O     0.51738   0.25011   0.06418   0.00000  Uiso   1.00
N133   N     0.14038   0.97476   0.63995   0.00000  Uiso   1.00
N134   N     0.14040   0.52518   0.63995   0.00000  Uiso   1.00
N135   N     0.46194   0.25009   0.92632   0.00000  Uiso   1.00
N136   N     0.07835   0.97476   0.76168   0.00000  Uiso   1.00
N137   N     0.07836   0.52518   0.76168   0.00000  Uiso   1.00
N138   N     0.39991   0.25009   0.04805   0.00000  Uiso   1.00
C139   C     0.24696   0.75004   0.72470   0.00000  Uiso   1.00
C140   C     0.29316   0.82589   0.73110   0.00000  Uiso   1.00
C141   C     0.29746   0.88966   0.66867   0.00000  Uiso   1.00
C142   C     0.34284   0.95351   0.68676   0.00000  Uiso   1.00
C143   C     0.40857   0.07126   0.68484   0.00000  Uiso   1.00
C144   C     0.29317   0.67419   0.73109   0.00000  Uiso   1.00
C145   C     0.29746   0.61042   0.66865   0.00000  Uiso   1.00
C146   C     0.34284   0.54656   0.68674   0.00000  Uiso   1.00
C147   C     0.40855   0.42878   0.68485   0.00000  Uiso   1.00
C148   C     0.20455   0.75002   0.81001   0.00000  Uiso   1.00
C149   C     0.13433   0.74998   0.81394   0.00000  Uiso   1.00
C150   C     0.10510   0.74995   0.89848   0.00000  Uiso   1.00
C151   C     0.03322   0.74990   0.01912   0.00000  Uiso   1.00
C152   C     0.31991   0.75003   0.86786   0.00000  Uiso   1.00
C153   C     0.33278   0.82588   0.80886   0.00000  Uiso   1.00
C154   C     0.37817   0.88965   0.82705   0.00000  Uiso   1.00
C155   C     0.38253   0.95351   0.76465   0.00000  Uiso   1.00
C156   C     0.33279   0.67419   0.80884   0.00000  Uiso   1.00
C157   C     0.37817   0.61041   0.82703   0.00000  Uiso   1.00
C158   C     0.38253   0.54656   0.76464   0.00000  Uiso   1.00
C159   C     0.24417   0.75002   0.88777   0.00000  Uiso   1.00
C160   C     0.21504   0.74998   0.97232   0.00000  Uiso   1.00
C161   C     0.14480   0.74994   0.97637   0.00000  Uiso   1.00
H162   H     0.21611   0.75004   0.66417   0.00000  Uiso   1.00
H163   H     0.26679   0.88964   0.60850   0.00000  Uiso   1.00
H164   H     0.26679   0.61043   0.60849   0.00000  Uiso   1.00
H165   H     0.10369   0.74998   0.75375   0.00000  Uiso   1.00
H166   H     0.34046   0.04439   0.58105   0.00000  Uiso   1.00
H167   H     0.34044   0.45567   0.58105   0.00000  Uiso   1.00
H168   H     0.99651   0.74993   0.88736   0.00000  Uiso   1.00
H169   H     0.35076   0.75002   0.92839   0.00000  Uiso   1.00
H170   H     0.40882   0.88963   0.88723   0.00000  Uiso   1.00
H171   H     0.40882   0.61043   0.88722   0.00000  Uiso   1.00
H172   H     0.24572   0.74997   0.03248   0.00000  Uiso   1.00
H173   H     0.45575   0.04439   0.80728   0.00000  Uiso   1.00
H174   H     0.45572   0.45565   0.80728   0.00000  Uiso   1.00
H175   H     0.11179   0.74992   0.11359   0.00000  Uiso   1.00
O176   O     0.43389   0.13621   0.66230   0.00000  Uiso   1.00
O177   O     0.43385   0.36382   0.66231   0.00000  Uiso   1.00
O178   O     0.98262   0.74989   0.06418   0.00000  Uiso   1.00
N179   N     0.35962   0.02524   0.63995   0.00000  Uiso   1.00
N180   N     0.35960   0.47482   0.63995   0.00000  Uiso   1.00
N181   N     0.03806   0.74991   0.92632   0.00000  Uiso   1.00
N182   N     0.42165   0.02524   0.76168   0.00000  Uiso   1.00
N183   N     0.42164   0.47482   0.76168   0.00000  Uiso   1.00
N184   N     0.10009   0.74991   0.04805   0.00000  Uiso   1.00
C185   C     0.25304   0.75004   0.22470   0.00000  Uiso   1.00
C186   C     0.20684   0.82589   0.23110   0.00000  Uiso   1.00
C187   C     0.20254   0.88966   0.16867   0.00000  Uiso   1.00
C188   C     0.15716   0.95351   0.18676   0.00000  Uiso   1.00
C189   C     0.09143   0.07126   0.18484   0.00000  Uiso   1.00
C190   C     0.20683   0.67419   0.23109   0.00000  Uiso   1.00
C191   C     0.20254   0.61042   0.16865   0.00000  Uiso   1.00
C192   C     0.15716   0.54656   0.18674   0.00000  Uiso   1.00
C193   C     0.09145   0.42878   0.18485   0.00000  Uiso   1.00
C194   C     0.29545   0.75002   0.31001   0.00000  Uiso   1.00
C195   C     0.36567   0.74998   0.31394   0.00000  Uiso   1.00
C196   C     0.39490   0.74995   0.39848   0.00000  Uiso   1.00
C197   C     0.46678   0.74990   0.51912   0.00000  Uiso   1.00
C198   C     0.18009   0.75003   0.36786   0.00000  Uiso   1.00
C199   C     0.16722   0.82588   0.30886   0.00000  Uiso   1.00
C200   C     0.12183   0.88965   0.32705   0.00000  Uiso   1.00
C201   C     0.11747   0.95351   0.26465   0.00000  Uiso   1.00
C202   C     0.16721   0.67419   0.30884   0.00000  Uiso   1.00
C203   C     0.12183   0.61041   0.32703   0.00000  Uiso   1.00
C204   C     0.11747   0.54656   0.26464   0.00000  Uiso   1.00
C205   C     0.25583   0.75002   0.38777   0.00000  Uiso   1.00
C206   C     0.28496   0.74998   0.47232   0.00000  Uiso   1.00
C207   C     0.35520   0.74994   0.47637   0.00000  Uiso   1.00
H208   H     0.28389   0.75004   0.16417   0.00000  Uiso   1.00
H209   H     0.23321   0.88964   0.10850   0.00000  Uiso   1.00
H210   H     0.23321   0.61043   0.10849   0.00000  Uiso   1.00
H211   H     0.39631   0.74998   0.25375   0.00000  Uiso   1.00
H212   H     0.15954   0.04439   0.08105   0.00000  Uiso   1.00
H213   H     0.15956   0.45567   0.08105   0.00000  Uiso   1.00
H214   H     0.50349   0.74993   0.38736   0.00000  Uiso   1.00
H215   H     0.14924   0.75002   0.42839   0.00000  Uiso   1.00
H216   H     0.09118   0.88963   0.38723   0.00000  Uiso   1.00
H217   H     0.09118   0.61043   0.38722   0.00000  Uiso   1.00
H218   H     0.25428   0.74997   0.53248   0.00000  Uiso   1.00
H219   H     0.04425   0.04439   0.30728   0.00000  Uiso   1.00
H220   H     0.04428   0.45565   0.30728   0.00000  Uiso   1.00
H221   H     0.38821   0.74992   0.61359   0.00000  Uiso   1.00
O222   O     0.06611   0.13621   0.16230   0.00000  Uiso   1.00
O223   O     0.06615   0.36382   0.16231   0.00000  Uiso   1.00
O224   O     0.51738   0.74989   0.56418   0.00000  Uiso   1.00
N225   N     0.14038   0.02524   0.13995   0.00000  Uiso   1.00
N226   N     0.14040   0.47482   0.13995   0.00000  Uiso   1.00
N227   N     0.46194   0.74991   0.42632   0.00000  Uiso   1.00
N228   N     0.07835   0.02524   0.26168   0.00000  Uiso   1.00
N229   N     0.07836   0.47482   0.26168   0.00000  Uiso   1.00
N230   N     0.39991   0.74991   0.54805   0.00000  Uiso   1.00
C231   C     0.24696   0.24996   0.22470   0.00000  Uiso   1.00
C232   C     0.29316   0.17411   0.23110   0.00000  Uiso   1.00
C233   C     0.29746   0.11034   0.16867   0.00000  Uiso   1.00
C234   C     0.34284   0.04649   0.18676   0.00000  Uiso   1.00
C235   C     0.40857   0.92874   0.18484   0.00000  Uiso   1.00
C236   C     0.29317   0.32581   0.23109   0.00000  Uiso   1.00
C237   C     0.29746   0.38958   0.16865   0.00000  Uiso   1.00
C238   C     0.34284   0.45344   0.18674   0.00000  Uiso   1.00
C239   C     0.40855   0.57122   0.18485   0.00000  Uiso   1.00
C240   C     0.20455   0.24998   0.31001   0.00000  Uiso   1.00
C241   C     0.13433   0.25002   0.31394   0.00000  Uiso   1.00
C242   C     0.10510   0.25005   0.39848   0.00000  Uiso   1.00
C243   C     0.03322   0.25010   0.51912   0.00000  Uiso   1.00
C244   C     0.31991   0.24997   0.36786   0.00000  Uiso   1.00
C245   C     0.33278   0.17412   0.30886   0.00000  Uiso   1.00
C246   C     0.37817   0.11035   0.32705   0.00000  Uiso   1.00
C247   C     0.38253   0.04649   0.26465   0.00000  Uiso   1.00
C248   C     0.33279   0.32581   0.30884   0.00000  Uiso   1.00
C249   C     0.37817   0.38959   0.32703   0.00000  Uiso   1.00
C250   C     0.38253   0.45344   0.26464   0.00000  Uiso   1.00
C251   C     0.24417   0.24998   0.38777   0.00000  Uiso   1.00
C252   C     0.21504   0.25002   0.47232   0.00000  Uiso   1.00
C253   C     0.14480   0.25006   0.47637   0.00000  Uiso   1.00
H254   H     0.21611   0.24996   0.16417   0.00000  Uiso   1.00
H255   H     0.26679   0.11036   0.10850   0.00000  Uiso   1.00
H256   H     0.26679   0.38957   0.10849   0.00000  Uiso   1.00
H257   H     0.10369   0.25002   0.25375   0.00000  Uiso   1.00
H258   H     0.34046   0.95561   0.08105   0.00000  Uiso   1.00
H259   H     0.34044   0.54433   0.08105   0.00000  Uiso   1.00
H260   H     0.99651   0.25007   0.38736   0.00000  Uiso   1.00
H261   H     0.35076   0.24998   0.42839   0.00000  Uiso   1.00
H262   H     0.40882   0.11037   0.38723   0.00000  Uiso   1.00
H263   H     0.40882   0.38957   0.38722   0.00000  Uiso   1.00
H264   H     0.24572   0.25003   0.53248   0.00000  Uiso   1.00
H265   H     0.45575   0.95561   0.30728   0.00000  Uiso   1.00
H266   H     0.45572   0.54435   0.30728   0.00000  Uiso   1.00
H267   H     0.11179   0.25008   0.61359   0.00000  Uiso   1.00
O268   O     0.43389   0.86379   0.16230   0.00000  Uiso   1.00
O269   O     0.43385   0.63618   0.16231   0.00000  Uiso   1.00
O270   O     0.98262   0.25011   0.56418   0.00000  Uiso   1.00
N271   N     0.35962   0.97476   0.13995   0.00000  Uiso   1.00
N272   N     0.35960   0.52518   0.13995   0.00000  Uiso   1.00
N273   N     0.03806   0.25009   0.42632   0.00000  Uiso   1.00
N274   N     0.42165   0.97476   0.26168   0.00000  Uiso   1.00
N275   N     0.42164   0.52518   0.26168   0.00000  Uiso   1.00
N276   N     0.10009   0.25009   0.54805   0.00000  Uiso   1.00
C277   C     0.74696   0.75004   0.27530   0.00000  Uiso   1.00
C278   C     0.79316   0.82589   0.26890   0.00000  Uiso   1.00
C279   C     0.79746   0.88966   0.33133   0.00000  Uiso   1.00
C280   C     0.84284   0.95351   0.31324   0.00000  Uiso   1.00
C281   C     0.90857   0.07126   0.31516   0.00000  Uiso   1.00
C282   C     0.79317   0.67419   0.26891   0.00000  Uiso   1.00
C283   C     0.79746   0.61042   0.33135   0.00000  Uiso   1.00
C284   C     0.84284   0.54656   0.31326   0.00000  Uiso   1.00
C285   C     0.90855   0.42878   0.31515   0.00000  Uiso   1.00
C286   C     0.70455   0.75002   0.18999   0.00000  Uiso   1.00
C287   C     0.63433   0.74998   0.18606   0.00000  Uiso   1.00
C288   C     0.60510   0.74995   0.10152   0.00000  Uiso   1.00
C289   C     0.53322   0.74990   0.98088   0.00000  Uiso   1.00
C290   C     0.81991   0.75003   0.13214   0.00000  Uiso   1.00
C291   C     0.83278   0.82588   0.19114   0.00000  Uiso   1.00
C292   C     0.87817   0.88965   0.17295   0.00000  Uiso   1.00
C293   C     0.88253   0.95351   0.23535   0.00000  Uiso   1.00
C294   C     0.83279   0.67419   0.19116   0.00000  Uiso   1.00
C295   C     0.87817   0.61041   0.17297   0.00000  Uiso   1.00
C296   C     0.88253   0.54656   0.23536   0.00000  Uiso   1.00
C297   C     0.74417   0.75002   0.11223   0.00000  Uiso   1.00
C298   C     0.71504   0.74998   0.02768   0.00000  Uiso   1.00
C299   C     0.64480   0.74994   0.02363   0.00000  Uiso   1.00
H300   H     0.71611   0.75004   0.33583   0.00000  Uiso   1.00
H301   H     0.76679   0.88964   0.39150   0.00000  Uiso   1.00
H302   H     0.76679   0.61043   0.39151   0.00000  Uiso   1.00
H303   H     0.60369   0.74998   0.24625   0.00000  Uiso   1.00
H304   H     0.84046   0.04439   0.41895   0.00000  Uiso   1.00
H305   H     0.84044   0.45567   0.41895   0.00000  Uiso   1.00
H306   H     0.49651   0.74993   0.11264   0.00000  Uiso   1.00
H307   H     0.85076   0.75002   0.07161   0.00000  Uiso   1.00
H308   H     0.90882   0.88963   0.11277   0.00000  Uiso   1.00
H309   H     0.90882   0.61043   0.11278   0.00000  Uiso   1.00
H310   H     0.74572   0.74997   0.96752   0.00000  Uiso   1.00
H311   H     0.95575   0.04439   0.19272   0.00000  Uiso   1.00
H312   H     0.95572   0.45565   0.19272   0.00000  Uiso   1.00
H313   H     0.61179   0.74992   0.88641   0.00000  Uiso   1.00
O314   O     0.93389   0.13621   0.33770   0.00000  Uiso   1.00
O315   O     0.93385   0.36382   0.33769   0.00000  Uiso   1.00
O316   O     0.48262   0.74989   0.93582   0.00000  Uiso   1.00
N317   N     0.85962   0.02524   0.36005   0.00000  Uiso   1.00
N318   N     0.85960   0.47482   0.36005   0.00000  Uiso   1.00
N319   N     0.53806   0.74991   0.07368   0.00000  Uiso   1.00
N320   N     0.92165   0.02524   0.23832   0.00000  Uiso   1.00
N321   N     0.92164   0.47482   0.23832   0.00000  Uiso   1.00
N322   N     0.60009   0.74991   0.95195   0.00000  Uiso   1.00
C323   C     0.75304   0.24996   0.27530   0.00000  Uiso   1.00
C324   C     0.70684   0.17411   0.26890   0.00000  Uiso   1.00
C325   C     0.70254   0.11034   0.33133   0.00000  Uiso   1.00
C326   C     0.65716   0.04649   0.31324   0.00000  Uiso   1.00
C327   C     0.59143   0.92874   0.31516   0.00000  Uiso   1.00
C328   C     0.70683   0.32581   0.26891   0.00000  Uiso   1.00
C329   C     0.70254   0.38958   0.33135   0.00000  Uiso   1.00
C330   C     0.65716   0.45344   0.31326   0.00000  Uiso   1.00
C331   C     0.59145   0.57122   0.31515   0.00000  Uiso   1.00
C332   C     0.79545   0.24998   0.18999   0.00000  Uiso   1.00
C333   C     0.86567   0.25002   0.18606   0.00000  Uiso   1.00
C334   C     0.89490   0.25005   0.10152   0.00000  Uiso   1.00
C335   C     0.96678   0.25010   0.98088   0.00000  Uiso   1.00
C336   C     0.68009   0.24997   0.13214   0.00000  Uiso   1.00
C337   C     0.66722   0.17412   0.19114   0.00000  Uiso   1.00
C338   C     0.62183   0.11035   0.17295   0.00000  Uiso   1.00
C339   C     0.61747   0.04649   0.23535   0.00000  Uiso   1.00
C340   C     0.66721   0.32581   0.19116   0.00000  Uiso   1.00
C341   C     0.62183   0.38959   0.17297   0.00000  Uiso   1.00
C342   C     0.61747   0.45344   0.23536   0.00000  Uiso   1.00
C343   C     0.75583   0.24998   0.11223   0.00000  Uiso   1.00
C344   C     0.78496   0.25002   0.02768   0.00000  Uiso   1.00
C345   C     0.85520   0.25006   0.02363   0.00000  Uiso   1.00
H346   H     0.78389   0.24996   0.33583   0.00000  Uiso   1.00
H347   H     0.73321   0.11036   0.39150   0.00000  Uiso   1.00
H348   H     0.73321   0.38957   0.39151   0.00000  Uiso   1.00
H349   H     0.89631   0.25002   0.24625   0.00000  Uiso   1.00
H350   H     0.65954   0.95561   0.41895   0.00000  Uiso   1.00
H351   H     0.65956   0.54433   0.41895   0.00000  Uiso   1.00
H352   H     0.00349   0.25007   0.11264   0.00000  Uiso   1.00
H353   H     0.64924   0.24998   0.07161   0.00000  Uiso   1.00
H354   H     0.59118   0.11037   0.11277   0.00000  Uiso   1.00
H355   H     0.59118   0.38957   0.11278   0.00000  Uiso   1.00
H356   H     0.75428   0.25003   0.96752   0.00000  Uiso   1.00
H357   H     0.54425   0.95561   0.19272   0.00000  Uiso   1.00
H358   H     0.54428   0.54435   0.19272   0.00000  Uiso   1.00
H359   H     0.88821   0.25008   0.88641   0.00000  Uiso   1.00
O360   O     0.56611   0.86379   0.33770   0.00000  Uiso   1.00
O361   O     0.56615   0.63618   0.33769   0.00000  Uiso   1.00
O362   O     0.01738   0.25011   0.93582   0.00000  Uiso   1.00
N363   N     0.64038   0.97476   0.36005   0.00000  Uiso   1.00
N364   N     0.64040   0.52518   0.36005   0.00000  Uiso   1.00
N365   N     0.96194   0.25009   0.07368   0.00000  Uiso   1.00
N366   N     0.57835   0.97476   0.23832   0.00000  Uiso   1.00
N367   N     0.57836   0.52518   0.23832   0.00000  Uiso   1.00
N368   N     0.89991   0.25009   0.95195   0.00000  Uiso   1.00
