data_job_00220
_audit_creation_date              2018-12-19
_audit_creation_method            'Materials Studio'
_symmetry_space_group_name_H-M    'P1'
_symmetry_Int_Tables_number       1
_symmetry_cell_setting            triclinic
loop_
_symmetry_equiv_pos_as_xyz
  x,y,z
_cell_length_a                    12.4949
_cell_length_b                    9.0183
_cell_length_c                    27.4847
_cell_angle_alpha                 90.0000
_cell_angle_beta                  129.7310
_cell_angle_gamma                 90.0000
loop_
_atom_site_label
_atom_site_type_symbol
_atom_site_fract_x
_atom_site_fract_y
_atom_site_fract_z
_atom_site_U_iso_or_equiv
_atom_site_adp_type
_atom_site_occupancy
C1     C     0.14608   0.60893   0.92619   0.00000  Uiso   1.00
C2     C     0.99290   0.60007   0.89588   0.00000  Uiso   1.00
C3     C     0.92658   0.47695   0.89610   0.00000  Uiso   1.00
C4     C     0.78590   0.49116   0.86576   0.00000  Uiso   1.00
C5     C     0.55894   0.45721   0.82316   0.00000  Uiso   1.00
C6     C     0.14864   0.65458   0.87351   0.00000  Uiso   1.00
C7     C     0.21327   0.57731   0.85493   0.00000  Uiso   1.00
C8     C     0.20371   0.63743   0.80577   0.00000  Uiso   1.00
C9     C     0.21861   0.68816   0.72847   0.00000  Uiso   1.00
C10    C     0.20632   0.73947   0.97197   0.00000  Uiso   1.00
C11    C     0.31948   0.73358   0.03617   0.00000  Uiso   1.00
C12    C     0.35850   0.86518   0.06990   0.00000  Uiso   1.00
C13    C     0.46296   0.04771   0.14548   0.00000  Uiso   1.00
C14    C     0.01419   0.85312   0.87193   0.00000  Uiso   1.00
C15    C     0.92127   0.73270   0.86641   0.00000  Uiso   1.00
C16    C     0.78066   0.74711   0.83606   0.00000  Uiso   1.00
C17    C     0.71414   0.62404   0.83623   0.00000  Uiso   1.00
C18    C     0.07700   0.78721   0.84404   0.00000  Uiso   1.00
C19    C     0.06735   0.84747   0.79490   0.00000  Uiso   1.00
C20    C     0.13195   0.77030   0.77624   0.00000  Uiso   1.00
C21    C     0.13468   0.87211   0.94250   0.00000  Uiso   1.00
C22    C     0.17355   0.00374   0.97614   0.00000  Uiso   1.00
C23    C     0.28674   0.99805   0.04037   0.00000  Uiso   1.00
H24    H     0.20186   0.50567   0.94913   0.00000  Uiso   1.00
H25    H     0.98205   0.37432   0.91890   0.00000  Uiso   1.00
H26    H     0.26871   0.47468   0.87775   0.00000  Uiso   1.00
H27    H     0.37489   0.63092   0.05896   0.00000  Uiso   1.00
H28    H     0.70675   0.28717   0.87238   0.00000  Uiso   1.00
H29    H     0.31123   0.49880   0.78562   0.00000  Uiso   1.00
H30    H     0.53514   0.82828   0.16774   0.00000  Uiso   1.00
H31    H     0.95842   0.95638   0.84898   0.00000  Uiso   1.00
H32    H     0.72525   0.84977   0.81326   0.00000  Uiso   1.00
H33    H     0.01191   0.95012   0.77210   0.00000  Uiso   1.00
H34    H     0.11809   0.10636   0.95331   0.00000  Uiso   1.00
H35    H     0.49832   0.67305   0.78663   0.00000  Uiso   1.00
H36    H     0.10281   0.88469   0.69987   0.00000  Uiso   1.00
H37    H     0.32671   0.21416   0.08199   0.00000  Uiso   1.00
O38    O     0.45353   0.40183   0.80779   0.00000  Uiso   1.00
O39    O     0.24661   0.67949   0.69398   0.00000  Uiso   1.00
O40    O     0.54036   0.11175   0.19531   0.00000  Uiso   1.00
N41    N     0.68970   0.39263   0.85711   0.00000  Uiso   1.00
N42    N     0.25484   0.59048   0.77599   0.00000  Uiso   1.00
N43    N     0.46419   0.89852   0.13323   0.00000  Uiso   1.00
N44    N     0.57755   0.60027   0.81097   0.00000  Uiso   1.00
N45    N     0.14268   0.79812   0.72985   0.00000  Uiso   1.00
N46    N     0.35204   0.10616   0.08709   0.00000  Uiso   1.00
C47    C     0.85392   0.10893   0.57381   0.00000  Uiso   1.00
C48    C     0.00710   0.10007   0.60412   0.00000  Uiso   1.00
C49    C     0.07342   0.97695   0.60390   0.00000  Uiso   1.00
C50    C     0.21410   0.99116   0.63424   0.00000  Uiso   1.00
C51    C     0.44106   0.95721   0.67684   0.00000  Uiso   1.00
C52    C     0.85136   0.15458   0.62649   0.00000  Uiso   1.00
C53    C     0.78673   0.07731   0.64507   0.00000  Uiso   1.00
C54    C     0.79629   0.13743   0.69423   0.00000  Uiso   1.00
C55    C     0.78139   0.18816   0.77153   0.00000  Uiso   1.00
C56    C     0.79368   0.23947   0.52803   0.00000  Uiso   1.00
C57    C     0.68052   0.23358   0.46383   0.00000  Uiso   1.00
C58    C     0.64150   0.36518   0.43010   0.00000  Uiso   1.00
C59    C     0.53704   0.54771   0.35452   0.00000  Uiso   1.00
C60    C     0.98581   0.35312   0.62807   0.00000  Uiso   1.00
C61    C     0.07873   0.23270   0.63359   0.00000  Uiso   1.00
C62    C     0.21934   0.24711   0.66394   0.00000  Uiso   1.00
C63    C     0.28586   0.12404   0.66377   0.00000  Uiso   1.00
C64    C     0.92300   0.28721   0.65596   0.00000  Uiso   1.00
C65    C     0.93265   0.34747   0.70510   0.00000  Uiso   1.00
C66    C     0.86805   0.27030   0.72376   0.00000  Uiso   1.00
C67    C     0.86532   0.37211   0.55750   0.00000  Uiso   1.00
C68    C     0.82645   0.50374   0.52386   0.00000  Uiso   1.00
C69    C     0.71326   0.49805   0.45963   0.00000  Uiso   1.00
H70    H     0.79814   0.00567   0.55087   0.00000  Uiso   1.00
H71    H     0.01795   0.87432   0.58110   0.00000  Uiso   1.00
H72    H     0.73129   0.97468   0.62225   0.00000  Uiso   1.00
H73    H     0.62511   0.13092   0.44104   0.00000  Uiso   1.00
H74    H     0.29325   0.78717   0.62762   0.00000  Uiso   1.00
H75    H     0.68877   0.99880   0.71438   0.00000  Uiso   1.00
H76    H     0.46486   0.32828   0.33226   0.00000  Uiso   1.00
H77    H     0.04158   0.45638   0.65102   0.00000  Uiso   1.00
H78    H     0.27475   0.34977   0.68674   0.00000  Uiso   1.00
H79    H     0.98809   0.45012   0.72790   0.00000  Uiso   1.00
H80    H     0.88191   0.60636   0.54669   0.00000  Uiso   1.00
H81    H     0.50168   0.17305   0.71337   0.00000  Uiso   1.00
H82    H     0.89719   0.38469   0.80013   0.00000  Uiso   1.00
H83    H     0.67329   0.71416   0.41801   0.00000  Uiso   1.00
O84    O     0.54647   0.90183   0.69221   0.00000  Uiso   1.00
O85    O     0.75339   0.17949   0.80602   0.00000  Uiso   1.00
O86    O     0.45964   0.61175   0.30469   0.00000  Uiso   1.00
N87    N     0.31030   0.89263   0.64289   0.00000  Uiso   1.00
N88    N     0.74516   0.09048   0.72401   0.00000  Uiso   1.00
N89    N     0.53581   0.39852   0.36677   0.00000  Uiso   1.00
N90    N     0.42245   0.10027   0.68903   0.00000  Uiso   1.00
N91    N     0.85732   0.29812   0.77015   0.00000  Uiso   1.00
N92    N     0.64796   0.60616   0.41291   0.00000  Uiso   1.00
C93    C     0.85392   0.39107   0.07381   0.00000  Uiso   1.00
C94    C     0.00710   0.39993   0.10412   0.00000  Uiso   1.00
C95    C     0.07342   0.52305   0.10390   0.00000  Uiso   1.00
C96    C     0.21410   0.50884   0.13424   0.00000  Uiso   1.00
C97    C     0.44106   0.54279   0.17684   0.00000  Uiso   1.00
C98    C     0.85136   0.34542   0.12649   0.00000  Uiso   1.00
C99    C     0.78673   0.42269   0.14507   0.00000  Uiso   1.00
C100   C     0.79629   0.36257   0.19423   0.00000  Uiso   1.00
C101   C     0.78139   0.31184   0.27153   0.00000  Uiso   1.00
C102   C     0.79368   0.26053   0.02803   0.00000  Uiso   1.00
C103   C     0.68052   0.26642   0.96383   0.00000  Uiso   1.00
C104   C     0.64150   0.13482   0.93010   0.00000  Uiso   1.00
C105   C     0.53704   0.95229   0.85452   0.00000  Uiso   1.00
C106   C     0.98581   0.14688   0.12807   0.00000  Uiso   1.00
C107   C     0.07873   0.26730   0.13359   0.00000  Uiso   1.00
C108   C     0.21934   0.25289   0.16394   0.00000  Uiso   1.00
C109   C     0.28586   0.37596   0.16377   0.00000  Uiso   1.00
C110   C     0.92300   0.21279   0.15596   0.00000  Uiso   1.00
C111   C     0.93265   0.15253   0.20510   0.00000  Uiso   1.00
C112   C     0.86805   0.22970   0.22376   0.00000  Uiso   1.00
C113   C     0.86532   0.12789   0.05750   0.00000  Uiso   1.00
C114   C     0.82645   0.99626   0.02386   0.00000  Uiso   1.00
C115   C     0.71326   0.00195   0.95963   0.00000  Uiso   1.00
H116   H     0.79814   0.49433   0.05087   0.00000  Uiso   1.00
H117   H     0.01795   0.62568   0.08110   0.00000  Uiso   1.00
H118   H     0.73129   0.52532   0.12225   0.00000  Uiso   1.00
H119   H     0.62511   0.36908   0.94104   0.00000  Uiso   1.00
H120   H     0.29325   0.71283   0.12762   0.00000  Uiso   1.00
H121   H     0.68877   0.50120   0.21438   0.00000  Uiso   1.00
H122   H     0.46486   0.17172   0.83226   0.00000  Uiso   1.00
H123   H     0.04158   0.04362   0.15102   0.00000  Uiso   1.00
H124   H     0.27475   0.15023   0.18674   0.00000  Uiso   1.00
H125   H     0.98809   0.04988   0.22790   0.00000  Uiso   1.00
H126   H     0.88191   0.89364   0.04669   0.00000  Uiso   1.00
H127   H     0.50168   0.32695   0.21337   0.00000  Uiso   1.00
H128   H     0.89719   0.11531   0.30013   0.00000  Uiso   1.00
H129   H     0.67329   0.78584   0.91801   0.00000  Uiso   1.00
O130   O     0.54647   0.59817   0.19221   0.00000  Uiso   1.00
O131   O     0.75339   0.32051   0.30602   0.00000  Uiso   1.00
O132   O     0.45964   0.88825   0.80469   0.00000  Uiso   1.00
N133   N     0.31030   0.60737   0.14289   0.00000  Uiso   1.00
N134   N     0.74516   0.40952   0.22401   0.00000  Uiso   1.00
N135   N     0.53581   0.10148   0.86677   0.00000  Uiso   1.00
N136   N     0.42245   0.39973   0.18903   0.00000  Uiso   1.00
N137   N     0.85732   0.20188   0.27015   0.00000  Uiso   1.00
N138   N     0.64796   0.89384   0.91291   0.00000  Uiso   1.00
C139   C     0.14608   0.89107   0.42619   0.00000  Uiso   1.00
C140   C     0.99290   0.89993   0.39588   0.00000  Uiso   1.00
C141   C     0.92658   0.02305   0.39610   0.00000  Uiso   1.00
C142   C     0.78590   0.00884   0.36576   0.00000  Uiso   1.00
C143   C     0.55894   0.04279   0.32316   0.00000  Uiso   1.00
C144   C     0.14864   0.84542   0.37351   0.00000  Uiso   1.00
C145   C     0.21327   0.92269   0.35493   0.00000  Uiso   1.00
C146   C     0.20371   0.86257   0.30577   0.00000  Uiso   1.00
C147   C     0.21861   0.81184   0.22847   0.00000  Uiso   1.00
C148   C     0.20632   0.76053   0.47197   0.00000  Uiso   1.00
C149   C     0.31948   0.76642   0.53617   0.00000  Uiso   1.00
C150   C     0.35850   0.63482   0.56990   0.00000  Uiso   1.00
C151   C     0.46296   0.45229   0.64548   0.00000  Uiso   1.00
C152   C     0.01419   0.64688   0.37193   0.00000  Uiso   1.00
C153   C     0.92127   0.76730   0.36641   0.00000  Uiso   1.00
C154   C     0.78066   0.75289   0.33606   0.00000  Uiso   1.00
C155   C     0.71414   0.87596   0.33623   0.00000  Uiso   1.00
C156   C     0.07700   0.71279   0.34404   0.00000  Uiso   1.00
C157   C     0.06735   0.65253   0.29490   0.00000  Uiso   1.00
C158   C     0.13195   0.72970   0.27624   0.00000  Uiso   1.00
C159   C     0.13468   0.62789   0.44250   0.00000  Uiso   1.00
C160   C     0.17355   0.49626   0.47614   0.00000  Uiso   1.00
C161   C     0.28674   0.50195   0.54037   0.00000  Uiso   1.00
H162   H     0.20186   0.99433   0.44913   0.00000  Uiso   1.00
H163   H     0.98205   0.12568   0.41890   0.00000  Uiso   1.00
H164   H     0.26871   0.02532   0.37775   0.00000  Uiso   1.00
H165   H     0.37489   0.86908   0.55896   0.00000  Uiso   1.00
H166   H     0.70675   0.21283   0.37238   0.00000  Uiso   1.00
H167   H     0.31123   0.00120   0.28562   0.00000  Uiso   1.00
H168   H     0.53514   0.67172   0.66774   0.00000  Uiso   1.00
H169   H     0.95842   0.54362   0.34898   0.00000  Uiso   1.00
H170   H     0.72525   0.65023   0.31326   0.00000  Uiso   1.00
H171   H     0.01191   0.54988   0.27210   0.00000  Uiso   1.00
H172   H     0.11809   0.39364   0.45331   0.00000  Uiso   1.00
H173   H     0.49832   0.82695   0.28663   0.00000  Uiso   1.00
H174   H     0.10281   0.61531   0.19987   0.00000  Uiso   1.00
H175   H     0.32671   0.28584   0.58199   0.00000  Uiso   1.00
O176   O     0.45353   0.09817   0.30779   0.00000  Uiso   1.00
O177   O     0.24661   0.82051   0.19398   0.00000  Uiso   1.00
O178   O     0.54036   0.38825   0.69531   0.00000  Uiso   1.00
N179   N     0.68970   0.10737   0.35711   0.00000  Uiso   1.00
N180   N     0.25484   0.90952   0.27599   0.00000  Uiso   1.00
N181   N     0.46419   0.60148   0.63323   0.00000  Uiso   1.00
N182   N     0.57755   0.89973   0.31097   0.00000  Uiso   1.00
N183   N     0.14268   0.70188   0.22985   0.00000  Uiso   1.00
N184   N     0.35204   0.39384   0.58709   0.00000  Uiso   1.00
