data_job_02052
_audit_creation_date              2018-12-19
_audit_creation_method            'Materials Studio'
_symmetry_space_group_name_H-M    'P1'
_symmetry_Int_Tables_number       1
_symmetry_cell_setting            triclinic
loop_
_symmetry_equiv_pos_as_xyz
  x,y,z
_cell_length_a                    16.4015
_cell_length_b                    16.4015
_cell_length_c                    15.8073
_cell_angle_alpha                 90.0000
_cell_angle_beta                  90.0000
_cell_angle_gamma                 90.0000
loop_
_atom_site_label
_atom_site_type_symbol
_atom_site_fract_x
_atom_site_fract_y
_atom_site_fract_z
_atom_site_U_iso_or_equiv
_atom_site_adp_type
_atom_site_occupancy
C1     C     0.59068   0.62272   0.27020   0.00000  Uiso   1.00
C2     C     0.61802   0.58461   0.18690   0.00000  Uiso   1.00
C3     C     0.58553   0.51485   0.15040   0.00000  Uiso   1.00
C4     C     0.61897   0.48982   0.07401   0.00000  Uiso   1.00
C5     C     0.65178   0.42403   0.95054   0.00000  Uiso   1.00
C6     C     0.66667   0.62752   0.32555   0.00000  Uiso   1.00
C7     C     0.67507   0.59386   0.40563   0.00000  Uiso   1.00
C8     C     0.74946   0.60496   0.44595   0.00000  Uiso   1.00
C9     C     0.85777   0.60586   0.53777   0.00000  Uiso   1.00
C10    C     0.56763   0.71058   0.24963   0.00000  Uiso   1.00
C11    C     0.49276   0.74677   0.26590   0.00000  Uiso   1.00
C12    C     0.48376   0.82782   0.24232   0.00000  Uiso   1.00
C13    C     0.43829   0.95768   0.21626   0.00000  Uiso   1.00
C14    C     0.70782   0.70232   0.19943   0.00000  Uiso   1.00
C15    C     0.68166   0.62784   0.14847   0.00000  Uiso   1.00
C16    C     0.71514   0.60291   0.07210   0.00000  Uiso   1.00
C17    C     0.68271   0.53313   0.03549   0.00000  Uiso   1.00
C18    C     0.73030   0.67075   0.28712   0.00000  Uiso   1.00
C19    C     0.80468   0.68192   0.32733   0.00000  Uiso   1.00
C20    C     0.81320   0.64828   0.40744   0.00000  Uiso   1.00
C21    C     0.63125   0.75382   0.21119   0.00000  Uiso   1.00
C22    C     0.62237   0.83483   0.18759   0.00000  Uiso   1.00
C23    C     0.54751   0.87113   0.20381   0.00000  Uiso   1.00
H24    H     0.54114   0.58906   0.30013   0.00000  Uiso   1.00
H25    H     0.53630   0.48140   0.18018   0.00000  Uiso   1.00
H26    H     0.62582   0.56041   0.43536   0.00000  Uiso   1.00
H27    H     0.44353   0.71329   0.29564   0.00000  Uiso   1.00
H28    H     0.55900   0.38109   0.03025   0.00000  Uiso   1.00
H29    H     0.74776   0.54770   0.56834   0.00000  Uiso   1.00
H30    H     0.36337   0.87009   0.27372   0.00000  Uiso   1.00
H31    H     0.75737   0.73598   0.16950   0.00000  Uiso   1.00
H32    H     0.76439   0.63638   0.04237   0.00000  Uiso   1.00
H33    H     0.85391   0.71539   0.29757   0.00000  Uiso   1.00
H34    H     0.67162   0.86827   0.15785   0.00000  Uiso   1.00
H35    H     0.74413   0.50687   0.91841   0.00000  Uiso   1.00
H36    H     0.93289   0.67349   0.45650   0.00000  Uiso   1.00
H37    H     0.54850   0.99588   0.16188   0.00000  Uiso   1.00
O38    O     0.65230   0.37580   0.89307   0.00000  Uiso   1.00
O39    O     0.89994   0.59439   0.59904   0.00000  Uiso   1.00
O40    O     0.39563   0.01736   0.21249   0.00000  Uiso   1.00
N41    N     0.60160   0.42437   0.02136   0.00000  Uiso   1.00
N42    N     0.77808   0.58013   0.52445   0.00000  Uiso   1.00
N43    N     0.41872   0.88155   0.24902   0.00000  Uiso   1.00
N44    N     0.70122   0.49206   0.96118   0.00000  Uiso   1.00
N45    N     0.87770   0.64781   0.46426   0.00000  Uiso   1.00
N46    N     0.51833   0.94923   0.18884   0.00000  Uiso   1.00
C47    C     0.40932   0.37728   0.77020   0.00000  Uiso   1.00
C48    C     0.38198   0.41539   0.68690   0.00000  Uiso   1.00
C49    C     0.41447   0.48515   0.65040   0.00000  Uiso   1.00
C50    C     0.38103   0.51018   0.57401   0.00000  Uiso   1.00
C51    C     0.34822   0.57597   0.45054   0.00000  Uiso   1.00
C52    C     0.33333   0.37248   0.82555   0.00000  Uiso   1.00
C53    C     0.32493   0.40614   0.90563   0.00000  Uiso   1.00
C54    C     0.25054   0.39504   0.94595   0.00000  Uiso   1.00
C55    C     0.14223   0.39414   0.03777   0.00000  Uiso   1.00
C56    C     0.43237   0.28942   0.74963   0.00000  Uiso   1.00
C57    C     0.50724   0.25323   0.76590   0.00000  Uiso   1.00
C58    C     0.51624   0.17218   0.74232   0.00000  Uiso   1.00
C59    C     0.56171   0.04232   0.71626   0.00000  Uiso   1.00
C60    C     0.29218   0.29768   0.69943   0.00000  Uiso   1.00
C61    C     0.31834   0.37216   0.64847   0.00000  Uiso   1.00
C62    C     0.28486   0.39709   0.57210   0.00000  Uiso   1.00
C63    C     0.31729   0.46687   0.53549   0.00000  Uiso   1.00
C64    C     0.26970   0.32925   0.78712   0.00000  Uiso   1.00
C65    C     0.19532   0.31808   0.82733   0.00000  Uiso   1.00
C66    C     0.18680   0.35172   0.90744   0.00000  Uiso   1.00
C67    C     0.36875   0.24618   0.71119   0.00000  Uiso   1.00
C68    C     0.37763   0.16517   0.68759   0.00000  Uiso   1.00
C69    C     0.45249   0.12887   0.70381   0.00000  Uiso   1.00
H70    H     0.45886   0.41094   0.80013   0.00000  Uiso   1.00
H71    H     0.46370   0.51860   0.68018   0.00000  Uiso   1.00
H72    H     0.37418   0.43959   0.93536   0.00000  Uiso   1.00
H73    H     0.55647   0.28671   0.79564   0.00000  Uiso   1.00
H74    H     0.44100   0.61891   0.53025   0.00000  Uiso   1.00
H75    H     0.25224   0.45230   0.06834   0.00000  Uiso   1.00
H76    H     0.63663   0.12991   0.77372   0.00000  Uiso   1.00
H77    H     0.24263   0.26402   0.66950   0.00000  Uiso   1.00
H78    H     0.23561   0.36362   0.54237   0.00000  Uiso   1.00
H79    H     0.14609   0.28461   0.79757   0.00000  Uiso   1.00
H80    H     0.32838   0.13173   0.65785   0.00000  Uiso   1.00
H81    H     0.25587   0.49313   0.41841   0.00000  Uiso   1.00
H82    H     0.06711   0.32651   0.95650   0.00000  Uiso   1.00
H83    H     0.45150   0.00412   0.66188   0.00000  Uiso   1.00
O84    O     0.34770   0.62420   0.39307   0.00000  Uiso   1.00
O85    O     0.10006   0.40561   0.09904   0.00000  Uiso   1.00
O86    O     0.60437   0.98264   0.71249   0.00000  Uiso   1.00
N87    N     0.39840   0.57563   0.52136   0.00000  Uiso   1.00
N88    N     0.22192   0.41987   0.02445   0.00000  Uiso   1.00
N89    N     0.58128   0.11845   0.74902   0.00000  Uiso   1.00
N90    N     0.29878   0.50794   0.46118   0.00000  Uiso   1.00
N91    N     0.12230   0.35219   0.96426   0.00000  Uiso   1.00
N92    N     0.48167   0.05077   0.68884   0.00000  Uiso   1.00
C93    C     0.87728   0.09068   0.02020   0.00000  Uiso   1.00
C94    C     0.91539   0.11802   0.93690   0.00000  Uiso   1.00
C95    C     0.98515   0.08553   0.90040   0.00000  Uiso   1.00
C96    C     0.01018   0.11897   0.82401   0.00000  Uiso   1.00
C97    C     0.07597   0.15178   0.70054   0.00000  Uiso   1.00
C98    C     0.87248   0.16667   0.07555   0.00000  Uiso   1.00
C99    C     0.90614   0.17507   0.15563   0.00000  Uiso   1.00
C100   C     0.89504   0.24946   0.19595   0.00000  Uiso   1.00
C101   C     0.89414   0.35777   0.28777   0.00000  Uiso   1.00
C102   C     0.78942   0.06763   0.99963   0.00000  Uiso   1.00
C103   C     0.75323   0.99276   0.01590   0.00000  Uiso   1.00
C104   C     0.67218   0.98376   0.99232   0.00000  Uiso   1.00
C105   C     0.54232   0.93829   0.96626   0.00000  Uiso   1.00
C106   C     0.79768   0.20782   0.94943   0.00000  Uiso   1.00
C107   C     0.87216   0.18166   0.89847   0.00000  Uiso   1.00
C108   C     0.89709   0.21514   0.82210   0.00000  Uiso   1.00
C109   C     0.96687   0.18271   0.78549   0.00000  Uiso   1.00
C110   C     0.82925   0.23030   0.03712   0.00000  Uiso   1.00
C111   C     0.81808   0.30468   0.07733   0.00000  Uiso   1.00
C112   C     0.85172   0.31320   0.15744   0.00000  Uiso   1.00
C113   C     0.74618   0.13125   0.96119   0.00000  Uiso   1.00
C114   C     0.66517   0.12237   0.93759   0.00000  Uiso   1.00
C115   C     0.62887   0.04751   0.95381   0.00000  Uiso   1.00
H116   H     0.91094   0.04114   0.05013   0.00000  Uiso   1.00
H117   H     0.01860   0.03630   0.93018   0.00000  Uiso   1.00
H118   H     0.93959   0.12582   0.18536   0.00000  Uiso   1.00
H119   H     0.78671   0.94353   0.04564   0.00000  Uiso   1.00
H120   H     0.11891   0.05900   0.78025   0.00000  Uiso   1.00
H121   H     0.95230   0.24776   0.31834   0.00000  Uiso   1.00
H122   H     0.62991   0.86337   0.02372   0.00000  Uiso   1.00
H123   H     0.76402   0.25737   0.91950   0.00000  Uiso   1.00
H124   H     0.86362   0.26439   0.79237   0.00000  Uiso   1.00
H125   H     0.78461   0.35391   0.04757   0.00000  Uiso   1.00
H126   H     0.63173   0.17162   0.90785   0.00000  Uiso   1.00
H127   H     0.99313   0.24413   0.66841   0.00000  Uiso   1.00
H128   H     0.82651   0.43289   0.20650   0.00000  Uiso   1.00
H129   H     0.50412   0.04850   0.91188   0.00000  Uiso   1.00
O130   O     0.12420   0.15230   0.64307   0.00000  Uiso   1.00
O131   O     0.90561   0.39994   0.34904   0.00000  Uiso   1.00
O132   O     0.48264   0.89563   0.96249   0.00000  Uiso   1.00
N133   N     0.07563   0.10160   0.77136   0.00000  Uiso   1.00
N134   N     0.91987   0.27808   0.27445   0.00000  Uiso   1.00
N135   N     0.61845   0.91872   0.99902   0.00000  Uiso   1.00
N136   N     0.00794   0.20122   0.71118   0.00000  Uiso   1.00
N137   N     0.85219   0.37770   0.21426   0.00000  Uiso   1.00
N138   N     0.55077   0.01833   0.93884   0.00000  Uiso   1.00
C139   C     0.12272   0.90932   0.52020   0.00000  Uiso   1.00
C140   C     0.08461   0.88198   0.43690   0.00000  Uiso   1.00
C141   C     0.01485   0.91447   0.40040   0.00000  Uiso   1.00
C142   C     0.98982   0.88103   0.32401   0.00000  Uiso   1.00
C143   C     0.92403   0.84822   0.20054   0.00000  Uiso   1.00
C144   C     0.12752   0.83333   0.57555   0.00000  Uiso   1.00
C145   C     0.09386   0.82493   0.65563   0.00000  Uiso   1.00
C146   C     0.10496   0.75054   0.69595   0.00000  Uiso   1.00
C147   C     0.10586   0.64223   0.78777   0.00000  Uiso   1.00
C148   C     0.21058   0.93237   0.49963   0.00000  Uiso   1.00
C149   C     0.24677   0.00724   0.51590   0.00000  Uiso   1.00
C150   C     0.32782   0.01624   0.49232   0.00000  Uiso   1.00
C151   C     0.45768   0.06171   0.46626   0.00000  Uiso   1.00
C152   C     0.20232   0.79218   0.44943   0.00000  Uiso   1.00
C153   C     0.12784   0.81834   0.39847   0.00000  Uiso   1.00
C154   C     0.10291   0.78486   0.32210   0.00000  Uiso   1.00
C155   C     0.03313   0.81729   0.28549   0.00000  Uiso   1.00
C156   C     0.17075   0.76970   0.53712   0.00000  Uiso   1.00
C157   C     0.18192   0.69532   0.57733   0.00000  Uiso   1.00
C158   C     0.14828   0.68680   0.65744   0.00000  Uiso   1.00
C159   C     0.25382   0.86875   0.46119   0.00000  Uiso   1.00
C160   C     0.33483   0.87763   0.43759   0.00000  Uiso   1.00
C161   C     0.37113   0.95249   0.45381   0.00000  Uiso   1.00
H162   H     0.08906   0.95886   0.55013   0.00000  Uiso   1.00
H163   H     0.98140   0.96370   0.43018   0.00000  Uiso   1.00
H164   H     0.06041   0.87418   0.68536   0.00000  Uiso   1.00
H165   H     0.21329   0.05647   0.54564   0.00000  Uiso   1.00
H166   H     0.88109   0.94100   0.28025   0.00000  Uiso   1.00
H167   H     0.04770   0.75224   0.81834   0.00000  Uiso   1.00
H168   H     0.37009   0.13663   0.52372   0.00000  Uiso   1.00
H169   H     0.23598   0.74263   0.41950   0.00000  Uiso   1.00
H170   H     0.13638   0.73561   0.29237   0.00000  Uiso   1.00
H171   H     0.21539   0.64609   0.54757   0.00000  Uiso   1.00
H172   H     0.36827   0.82838   0.40785   0.00000  Uiso   1.00
H173   H     0.00687   0.75587   0.16841   0.00000  Uiso   1.00
H174   H     0.17349   0.56711   0.70650   0.00000  Uiso   1.00
H175   H     0.49588   0.95150   0.41188   0.00000  Uiso   1.00
O176   O     0.87580   0.84770   0.14307   0.00000  Uiso   1.00
O177   O     0.09439   0.60006   0.84904   0.00000  Uiso   1.00
O178   O     0.51736   0.10437   0.46249   0.00000  Uiso   1.00
N179   N     0.92437   0.89840   0.27136   0.00000  Uiso   1.00
N180   N     0.08013   0.72192   0.77445   0.00000  Uiso   1.00
N181   N     0.38155   0.08128   0.49902   0.00000  Uiso   1.00
N182   N     0.99206   0.79878   0.21118   0.00000  Uiso   1.00
N183   N     0.14781   0.62230   0.71426   0.00000  Uiso   1.00
N184   N     0.44923   0.98167   0.43884   0.00000  Uiso   1.00
C185   C     0.90932   0.12272   0.47980   0.00000  Uiso   1.00
C186   C     0.88198   0.08461   0.56310   0.00000  Uiso   1.00
C187   C     0.91447   0.01485   0.59960   0.00000  Uiso   1.00
C188   C     0.88103   0.98982   0.67599   0.00000  Uiso   1.00
C189   C     0.84822   0.92403   0.79946   0.00000  Uiso   1.00
C190   C     0.83333   0.12752   0.42445   0.00000  Uiso   1.00
C191   C     0.82493   0.09386   0.34437   0.00000  Uiso   1.00
C192   C     0.75054   0.10496   0.30405   0.00000  Uiso   1.00
C193   C     0.64223   0.10586   0.21223   0.00000  Uiso   1.00
C194   C     0.93237   0.21058   0.50037   0.00000  Uiso   1.00
C195   C     0.00724   0.24677   0.48410   0.00000  Uiso   1.00
C196   C     0.01624   0.32782   0.50768   0.00000  Uiso   1.00
C197   C     0.06171   0.45768   0.53374   0.00000  Uiso   1.00
C198   C     0.79218   0.20232   0.55057   0.00000  Uiso   1.00
C199   C     0.81834   0.12784   0.60153   0.00000  Uiso   1.00
C200   C     0.78486   0.10291   0.67790   0.00000  Uiso   1.00
C201   C     0.81729   0.03313   0.71451   0.00000  Uiso   1.00
C202   C     0.76970   0.17075   0.46288   0.00000  Uiso   1.00
C203   C     0.69532   0.18192   0.42267   0.00000  Uiso   1.00
C204   C     0.68680   0.14828   0.34256   0.00000  Uiso   1.00
C205   C     0.86875   0.25382   0.53881   0.00000  Uiso   1.00
C206   C     0.87763   0.33483   0.56241   0.00000  Uiso   1.00
C207   C     0.95249   0.37113   0.54619   0.00000  Uiso   1.00
H208   H     0.95886   0.08906   0.44987   0.00000  Uiso   1.00
H209   H     0.96370   0.98140   0.56982   0.00000  Uiso   1.00
H210   H     0.87418   0.06041   0.31464   0.00000  Uiso   1.00
H211   H     0.05647   0.21329   0.45436   0.00000  Uiso   1.00
H212   H     0.94100   0.88109   0.71975   0.00000  Uiso   1.00
H213   H     0.75224   0.04770   0.18166   0.00000  Uiso   1.00
H214   H     0.13663   0.37009   0.47628   0.00000  Uiso   1.00
H215   H     0.74263   0.23598   0.58050   0.00000  Uiso   1.00
H216   H     0.73561   0.13638   0.70763   0.00000  Uiso   1.00
H217   H     0.64609   0.21539   0.45243   0.00000  Uiso   1.00
H218   H     0.82838   0.36827   0.59215   0.00000  Uiso   1.00
H219   H     0.75587   0.00687   0.83159   0.00000  Uiso   1.00
H220   H     0.56711   0.17349   0.29350   0.00000  Uiso   1.00
H221   H     0.95150   0.49588   0.58812   0.00000  Uiso   1.00
O222   O     0.84770   0.87580   0.85693   0.00000  Uiso   1.00
O223   O     0.60006   0.09439   0.15096   0.00000  Uiso   1.00
O224   O     0.10437   0.51736   0.53751   0.00000  Uiso   1.00
N225   N     0.89840   0.92437   0.72864   0.00000  Uiso   1.00
N226   N     0.72192   0.08013   0.22555   0.00000  Uiso   1.00
N227   N     0.08128   0.38155   0.50098   0.00000  Uiso   1.00
N228   N     0.79878   0.99206   0.78882   0.00000  Uiso   1.00
N229   N     0.62230   0.14781   0.28574   0.00000  Uiso   1.00
N230   N     0.98167   0.44923   0.56116   0.00000  Uiso   1.00
C231   C     0.09068   0.87728   0.97980   0.00000  Uiso   1.00
C232   C     0.11802   0.91539   0.06310   0.00000  Uiso   1.00
C233   C     0.08553   0.98515   0.09960   0.00000  Uiso   1.00
C234   C     0.11897   0.01018   0.17599   0.00000  Uiso   1.00
C235   C     0.15178   0.07597   0.29946   0.00000  Uiso   1.00
C236   C     0.16667   0.87248   0.92445   0.00000  Uiso   1.00
C237   C     0.17507   0.90614   0.84437   0.00000  Uiso   1.00
C238   C     0.24946   0.89504   0.80405   0.00000  Uiso   1.00
C239   C     0.35777   0.89414   0.71223   0.00000  Uiso   1.00
C240   C     0.06763   0.78942   0.00037   0.00000  Uiso   1.00
C241   C     0.99276   0.75323   0.98410   0.00000  Uiso   1.00
C242   C     0.98376   0.67218   0.00768   0.00000  Uiso   1.00
C243   C     0.93829   0.54232   0.03374   0.00000  Uiso   1.00
C244   C     0.20782   0.79768   0.05057   0.00000  Uiso   1.00
C245   C     0.18166   0.87216   0.10153   0.00000  Uiso   1.00
C246   C     0.21514   0.89709   0.17790   0.00000  Uiso   1.00
C247   C     0.18271   0.96687   0.21451   0.00000  Uiso   1.00
C248   C     0.23030   0.82925   0.96288   0.00000  Uiso   1.00
C249   C     0.30468   0.81808   0.92267   0.00000  Uiso   1.00
C250   C     0.31320   0.85172   0.84256   0.00000  Uiso   1.00
C251   C     0.13125   0.74618   0.03881   0.00000  Uiso   1.00
C252   C     0.12237   0.66517   0.06241   0.00000  Uiso   1.00
C253   C     0.04751   0.62887   0.04619   0.00000  Uiso   1.00
H254   H     0.04114   0.91094   0.94987   0.00000  Uiso   1.00
H255   H     0.03630   0.01860   0.06982   0.00000  Uiso   1.00
H256   H     0.12582   0.93959   0.81464   0.00000  Uiso   1.00
H257   H     0.94353   0.78671   0.95436   0.00000  Uiso   1.00
H258   H     0.05900   0.11891   0.21975   0.00000  Uiso   1.00
H259   H     0.24776   0.95230   0.68166   0.00000  Uiso   1.00
H260   H     0.86337   0.62991   0.97628   0.00000  Uiso   1.00
H261   H     0.25737   0.76402   0.08050   0.00000  Uiso   1.00
H262   H     0.26439   0.86362   0.20763   0.00000  Uiso   1.00
H263   H     0.35391   0.78461   0.95243   0.00000  Uiso   1.00
H264   H     0.17162   0.63173   0.09215   0.00000  Uiso   1.00
H265   H     0.24413   0.99313   0.33159   0.00000  Uiso   1.00
H266   H     0.43289   0.82651   0.79350   0.00000  Uiso   1.00
H267   H     0.04850   0.50412   0.08812   0.00000  Uiso   1.00
O268   O     0.15230   0.12420   0.35693   0.00000  Uiso   1.00
O269   O     0.39994   0.90561   0.65096   0.00000  Uiso   1.00
O270   O     0.89563   0.48264   0.03751   0.00000  Uiso   1.00
N271   N     0.10160   0.07563   0.22864   0.00000  Uiso   1.00
N272   N     0.27808   0.91987   0.72555   0.00000  Uiso   1.00
N273   N     0.91872   0.61845   0.00098   0.00000  Uiso   1.00
N274   N     0.20122   0.00794   0.28882   0.00000  Uiso   1.00
N275   N     0.37770   0.85219   0.78574   0.00000  Uiso   1.00
N276   N     0.01833   0.55077   0.06116   0.00000  Uiso   1.00
C277   C     0.62272   0.59068   0.72980   0.00000  Uiso   1.00
C278   C     0.58461   0.61802   0.81310   0.00000  Uiso   1.00
C279   C     0.51485   0.58553   0.84960   0.00000  Uiso   1.00
C280   C     0.48982   0.61897   0.92599   0.00000  Uiso   1.00
C281   C     0.42403   0.65178   0.04946   0.00000  Uiso   1.00
C282   C     0.62752   0.66667   0.67445   0.00000  Uiso   1.00
C283   C     0.59386   0.67507   0.59437   0.00000  Uiso   1.00
C284   C     0.60496   0.74946   0.55405   0.00000  Uiso   1.00
C285   C     0.60586   0.85777   0.46223   0.00000  Uiso   1.00
C286   C     0.71058   0.56763   0.75037   0.00000  Uiso   1.00
C287   C     0.74677   0.49276   0.73410   0.00000  Uiso   1.00
C288   C     0.82782   0.48376   0.75768   0.00000  Uiso   1.00
C289   C     0.95768   0.43829   0.78374   0.00000  Uiso   1.00
C290   C     0.70232   0.70782   0.80057   0.00000  Uiso   1.00
C291   C     0.62784   0.68166   0.85153   0.00000  Uiso   1.00
C292   C     0.60291   0.71514   0.92790   0.00000  Uiso   1.00
C293   C     0.53313   0.68271   0.96451   0.00000  Uiso   1.00
C294   C     0.67075   0.73030   0.71288   0.00000  Uiso   1.00
C295   C     0.68192   0.80468   0.67267   0.00000  Uiso   1.00
C296   C     0.64828   0.81320   0.59256   0.00000  Uiso   1.00
C297   C     0.75382   0.63125   0.78881   0.00000  Uiso   1.00
C298   C     0.83483   0.62237   0.81241   0.00000  Uiso   1.00
C299   C     0.87113   0.54751   0.79619   0.00000  Uiso   1.00
H300   H     0.58906   0.54114   0.69987   0.00000  Uiso   1.00
H301   H     0.48140   0.53630   0.81982   0.00000  Uiso   1.00
H302   H     0.56041   0.62582   0.56464   0.00000  Uiso   1.00
H303   H     0.71329   0.44353   0.70436   0.00000  Uiso   1.00
H304   H     0.38109   0.55900   0.96975   0.00000  Uiso   1.00
H305   H     0.54770   0.74776   0.43166   0.00000  Uiso   1.00
H306   H     0.87009   0.36337   0.72628   0.00000  Uiso   1.00
H307   H     0.73598   0.75737   0.83050   0.00000  Uiso   1.00
H308   H     0.63638   0.76439   0.95763   0.00000  Uiso   1.00
H309   H     0.71539   0.85391   0.70243   0.00000  Uiso   1.00
H310   H     0.86827   0.67162   0.84215   0.00000  Uiso   1.00
H311   H     0.50687   0.74413   0.08159   0.00000  Uiso   1.00
H312   H     0.67349   0.93289   0.54350   0.00000  Uiso   1.00
H313   H     0.99588   0.54850   0.83812   0.00000  Uiso   1.00
O314   O     0.37580   0.65230   0.10693   0.00000  Uiso   1.00
O315   O     0.59439   0.89994   0.40096   0.00000  Uiso   1.00
O316   O     0.01736   0.39563   0.78751   0.00000  Uiso   1.00
N317   N     0.42437   0.60160   0.97864   0.00000  Uiso   1.00
N318   N     0.58013   0.77808   0.47555   0.00000  Uiso   1.00
N319   N     0.88155   0.41872   0.75098   0.00000  Uiso   1.00
N320   N     0.49206   0.70122   0.03882   0.00000  Uiso   1.00
N321   N     0.64781   0.87770   0.53574   0.00000  Uiso   1.00
N322   N     0.94923   0.51833   0.81116   0.00000  Uiso   1.00
C323   C     0.37728   0.40932   0.22980   0.00000  Uiso   1.00
C324   C     0.41539   0.38198   0.31310   0.00000  Uiso   1.00
C325   C     0.48515   0.41447   0.34960   0.00000  Uiso   1.00
C326   C     0.51018   0.38103   0.42599   0.00000  Uiso   1.00
C327   C     0.57597   0.34822   0.54946   0.00000  Uiso   1.00
C328   C     0.37248   0.33333   0.17445   0.00000  Uiso   1.00
C329   C     0.40614   0.32493   0.09437   0.00000  Uiso   1.00
C330   C     0.39504   0.25054   0.05405   0.00000  Uiso   1.00
C331   C     0.39414   0.14223   0.96223   0.00000  Uiso   1.00
C332   C     0.28942   0.43237   0.25037   0.00000  Uiso   1.00
C333   C     0.25323   0.50724   0.23410   0.00000  Uiso   1.00
C334   C     0.17218   0.51624   0.25768   0.00000  Uiso   1.00
C335   C     0.04232   0.56171   0.28374   0.00000  Uiso   1.00
C336   C     0.29768   0.29218   0.30057   0.00000  Uiso   1.00
C337   C     0.37216   0.31834   0.35153   0.00000  Uiso   1.00
C338   C     0.39709   0.28486   0.42790   0.00000  Uiso   1.00
C339   C     0.46687   0.31729   0.46451   0.00000  Uiso   1.00
C340   C     0.32925   0.26970   0.21288   0.00000  Uiso   1.00
C341   C     0.31808   0.19532   0.17267   0.00000  Uiso   1.00
C342   C     0.35172   0.18680   0.09256   0.00000  Uiso   1.00
C343   C     0.24618   0.36875   0.28881   0.00000  Uiso   1.00
C344   C     0.16517   0.37763   0.31241   0.00000  Uiso   1.00
C345   C     0.12887   0.45249   0.29619   0.00000  Uiso   1.00
H346   H     0.41094   0.45886   0.19987   0.00000  Uiso   1.00
H347   H     0.51860   0.46370   0.31982   0.00000  Uiso   1.00
H348   H     0.43959   0.37418   0.06464   0.00000  Uiso   1.00
H349   H     0.28671   0.55647   0.20436   0.00000  Uiso   1.00
H350   H     0.61891   0.44100   0.46975   0.00000  Uiso   1.00
H351   H     0.45230   0.25224   0.93166   0.00000  Uiso   1.00
H352   H     0.12991   0.63663   0.22628   0.00000  Uiso   1.00
H353   H     0.26402   0.24263   0.33050   0.00000  Uiso   1.00
H354   H     0.36362   0.23561   0.45763   0.00000  Uiso   1.00
H355   H     0.28461   0.14609   0.20243   0.00000  Uiso   1.00
H356   H     0.13173   0.32838   0.34215   0.00000  Uiso   1.00
H357   H     0.49313   0.25587   0.58159   0.00000  Uiso   1.00
H358   H     0.32651   0.06711   0.04350   0.00000  Uiso   1.00
H359   H     0.00412   0.45150   0.33812   0.00000  Uiso   1.00
O360   O     0.62420   0.34770   0.60693   0.00000  Uiso   1.00
O361   O     0.40561   0.10006   0.90096   0.00000  Uiso   1.00
O362   O     0.98264   0.60437   0.28751   0.00000  Uiso   1.00
N363   N     0.57563   0.39840   0.47864   0.00000  Uiso   1.00
N364   N     0.41987   0.22192   0.97555   0.00000  Uiso   1.00
N365   N     0.11845   0.58128   0.25098   0.00000  Uiso   1.00
N366   N     0.50794   0.29878   0.53882   0.00000  Uiso   1.00
N367   N     0.35219   0.12230   0.03574   0.00000  Uiso   1.00
N368   N     0.05077   0.48167   0.31116   0.00000  Uiso   1.00
