data_job_02653
_audit_creation_date              2018-12-19
_audit_creation_method            'Materials Studio'
_symmetry_space_group_name_H-M    'P1'
_symmetry_Int_Tables_number       1
_symmetry_cell_setting            triclinic
loop_
_symmetry_equiv_pos_as_xyz
  x,y,z
_cell_length_a                    12.4799
_cell_length_b                    12.4799
_cell_length_c                    34.7810
_cell_angle_alpha                 90.0000
_cell_angle_beta                  90.0000
_cell_angle_gamma                 120.0000
loop_
_atom_site_label
_atom_site_type_symbol
_atom_site_fract_x
_atom_site_fract_y
_atom_site_fract_z
_atom_site_U_iso_or_equiv
_atom_site_adp_type
_atom_site_occupancy
C1     C     0.21641   0.98670   0.24303   0.00000  Uiso   1.00
C2     C     0.30734   0.94771   0.22869   0.00000  Uiso   1.00
C3     C     0.27598   0.83460   0.21211   0.00000  Uiso   1.00
C4     C     0.37274   0.81683   0.20090   0.00000  Uiso   1.00
C5     C     0.49513   0.74225   0.17786   0.00000  Uiso   1.00
C6     C     0.24883   0.02243   0.28512   0.00000  Uiso   1.00
C7     C     0.16826   0.97214   0.31598   0.00000  Uiso   1.00
C8     C     0.21577   0.01728   0.35227   0.00000  Uiso   1.00
C9     C     0.24729   0.05876   0.41684   0.00000  Uiso   1.00
C10    C     0.24905   0.10618   0.22183   0.00000  Uiso   1.00
C11    C     0.16865   0.12633   0.19949   0.00000  Uiso   1.00
C12    C     0.21634   0.24199   0.18250   0.00000  Uiso   1.00
C13    C     0.24820   0.41350   0.14880   0.00000  Uiso   1.00
C14    C     0.44404   0.15629   0.25259   0.00000  Uiso   1.00
C15    C     0.43098   0.03983   0.23389   0.00000  Uiso   1.00
C16    C     0.52782   0.02222   0.22269   0.00000  Uiso   1.00
C17    C     0.49661   0.90910   0.20610   0.00000  Uiso   1.00
C18    C     0.37246   0.11453   0.29032   0.00000  Uiso   1.00
C19    C     0.42011   0.15976   0.32657   0.00000  Uiso   1.00
C20    C     0.33963   0.10955   0.35748   0.00000  Uiso   1.00
C21    C     0.37269   0.19829   0.22703   0.00000  Uiso   1.00
C22    C     0.42050   0.31394   0.21007   0.00000  Uiso   1.00
C23    C     0.34020   0.33426   0.18770   0.00000  Uiso   1.00
H24    H     0.12015   0.91499   0.23899   0.00000  Uiso   1.00
H25    H     0.18028   0.76334   0.20810   0.00000  Uiso   1.00
H26    H     0.07258   0.90087   0.31195   0.00000  Uiso   1.00
H27    H     0.07298   0.05502   0.19547   0.00000  Uiso   1.00
H28    H     0.30148   0.63581   0.17616   0.00000  Uiso   1.00
H29    H     0.07437   0.92582   0.39514   0.00000  Uiso   1.00
H30    H     0.07521   0.25089   0.14952   0.00000  Uiso   1.00
H31    H     0.54030   0.22800   0.25664   0.00000  Uiso   1.00
H32    H     0.62349   0.09352   0.22672   0.00000  Uiso   1.00
H33    H     0.51579   0.23105   0.33058   0.00000  Uiso   1.00
H34    H     0.51619   0.38520   0.21410   0.00000  Uiso   1.00
H35    H     0.66120   0.90379   0.19128   0.00000  Uiso   1.00
H36    H     0.43409   0.19381   0.41026   0.00000  Uiso   1.00
H37    H     0.43493   0.51888   0.16464   0.00000  Uiso   1.00
O38    O     0.52848   0.67567   0.16373   0.00000  Uiso   1.00
O39    O     0.23052   0.05618   0.45102   0.00000  Uiso   1.00
O40    O     0.23162   0.48265   0.12878   0.00000  Uiso   1.00
N41    N     0.37472   0.71734   0.18382   0.00000  Uiso   1.00
N42    N     0.16240   0.98847   0.38855   0.00000  Uiso   1.00
N43    N     0.16317   0.29240   0.15893   0.00000  Uiso   1.00
N44    N     0.56829   0.86154   0.19195   0.00000  Uiso   1.00
N45    N     0.35596   0.13268   0.39668   0.00000  Uiso   1.00
N46    N     0.35673   0.43660   0.16706   0.00000  Uiso   1.00
C47    C     0.01330   0.22971   0.90969   0.00000  Uiso   1.00
C48    C     0.05229   0.35963   0.89536   0.00000  Uiso   1.00
C49    C     0.16540   0.44137   0.87878   0.00000  Uiso   1.00
C50    C     0.18317   0.55592   0.86756   0.00000  Uiso   1.00
C51    C     0.25775   0.75288   0.84453   0.00000  Uiso   1.00
C52    C     0.97757   0.22640   0.95179   0.00000  Uiso   1.00
C53    C     0.02786   0.19612   0.98265   0.00000  Uiso   1.00
C54    C     0.98272   0.19850   0.01894   0.00000  Uiso   1.00
C55    C     0.94124   0.18854   0.08351   0.00000  Uiso   1.00
C56    C     0.89382   0.14287   0.88850   0.00000  Uiso   1.00
C57    C     0.87367   0.04233   0.86615   0.00000  Uiso   1.00
C58    C     0.75801   0.97435   0.84916   0.00000  Uiso   1.00
C59    C     0.58650   0.83470   0.81547   0.00000  Uiso   1.00
C60    C     0.84371   0.28775   0.91926   0.00000  Uiso   1.00
C61    C     0.96017   0.39115   0.90056   0.00000  Uiso   1.00
C62    C     0.97778   0.50560   0.88936   0.00000  Uiso   1.00
C63    C     0.09090   0.58750   0.87277   0.00000  Uiso   1.00
C64    C     0.88547   0.25793   0.95698   0.00000  Uiso   1.00
C65    C     0.84024   0.26034   0.99323   0.00000  Uiso   1.00
C66    C     0.89045   0.23008   0.02414   0.00000  Uiso   1.00
C67    C     0.80171   0.17440   0.89369   0.00000  Uiso   1.00
C68    C     0.68606   0.10656   0.87674   0.00000  Uiso   1.00
C69    C     0.66574   0.00594   0.85437   0.00000  Uiso   1.00
H70    H     0.08501   0.20516   0.90565   0.00000  Uiso   1.00
H71    H     0.23666   0.41694   0.87477   0.00000  Uiso   1.00
H72    H     0.09913   0.17171   0.97862   0.00000  Uiso   1.00
H73    H     0.94498   0.01796   0.86214   0.00000  Uiso   1.00
H74    H     0.36419   0.66567   0.84283   0.00000  Uiso   1.00
H75    H     0.07418   0.14855   0.06181   0.00000  Uiso   1.00
H76    H     0.74911   0.82431   0.81619   0.00000  Uiso   1.00
H77    H     0.77200   0.31230   0.92331   0.00000  Uiso   1.00
H78    H     0.90648   0.52997   0.89339   0.00000  Uiso   1.00
H79    H     0.76895   0.28474   0.99724   0.00000  Uiso   1.00
H80    H     0.61480   0.13098   0.88076   0.00000  Uiso   1.00
H81    H     0.09621   0.75741   0.85794   0.00000  Uiso   1.00
H82    H     0.80619   0.24028   0.07692   0.00000  Uiso   1.00
H83    H     0.48112   0.91605   0.83130   0.00000  Uiso   1.00
O84    O     0.32433   0.85282   0.83040   0.00000  Uiso   1.00
O85    O     0.94382   0.17435   0.11769   0.00000  Uiso   1.00
O86    O     0.51735   0.74897   0.79544   0.00000  Uiso   1.00
N87    N     0.28266   0.65738   0.85048   0.00000  Uiso   1.00
N88    N     0.01153   0.17392   0.05522   0.00000  Uiso   1.00
N89    N     0.70760   0.87077   0.82559   0.00000  Uiso   1.00
N90    N     0.13846   0.70675   0.85862   0.00000  Uiso   1.00
N91    N     0.86732   0.22329   0.06335   0.00000  Uiso   1.00
N92    N     0.56340   0.92013   0.83373   0.00000  Uiso   1.00
C93    C     0.77029   0.78359   0.57636   0.00000  Uiso   1.00
C94    C     0.64037   0.69266   0.56202   0.00000  Uiso   1.00
C95    C     0.55863   0.72402   0.54545   0.00000  Uiso   1.00
C96    C     0.44408   0.62726   0.53423   0.00000  Uiso   1.00
C97    C     0.24712   0.50487   0.51120   0.00000  Uiso   1.00
C98    C     0.77360   0.75117   0.61845   0.00000  Uiso   1.00
C99    C     0.80388   0.83174   0.64932   0.00000  Uiso   1.00
C100   C     0.80150   0.78423   0.68560   0.00000  Uiso   1.00
C101   C     0.81146   0.75271   0.75017   0.00000  Uiso   1.00
C102   C     0.85713   0.75095   0.55516   0.00000  Uiso   1.00
C103   C     0.95767   0.83135   0.53282   0.00000  Uiso   1.00
C104   C     0.02565   0.78366   0.51583   0.00000  Uiso   1.00
C105   C     0.16530   0.75180   0.48213   0.00000  Uiso   1.00
C106   C     0.71225   0.55596   0.58593   0.00000  Uiso   1.00
C107   C     0.60885   0.56902   0.56722   0.00000  Uiso   1.00
C108   C     0.49440   0.47218   0.55603   0.00000  Uiso   1.00
C109   C     0.41250   0.50339   0.53943   0.00000  Uiso   1.00
C110   C     0.74207   0.62754   0.62365   0.00000  Uiso   1.00
C111   C     0.73966   0.57989   0.65990   0.00000  Uiso   1.00
C112   C     0.76992   0.66037   0.69081   0.00000  Uiso   1.00
C113   C     0.82560   0.62731   0.56036   0.00000  Uiso   1.00
C114   C     0.89344   0.57950   0.54340   0.00000  Uiso   1.00
C115   C     0.99406   0.65980   0.52104   0.00000  Uiso   1.00
H116   H     0.79484   0.87985   0.57232   0.00000  Uiso   1.00
H117   H     0.58306   0.81972   0.54143   0.00000  Uiso   1.00
H118   H     0.82829   0.92742   0.64529   0.00000  Uiso   1.00
H119   H     0.98204   0.92702   0.52881   0.00000  Uiso   1.00
H120   H     0.33433   0.69852   0.50949   0.00000  Uiso   1.00
H121   H     0.85145   0.92563   0.72847   0.00000  Uiso   1.00
H122   H     0.17569   0.92479   0.48286   0.00000  Uiso   1.00
H123   H     0.68770   0.45970   0.58997   0.00000  Uiso   1.00
H124   H     0.47003   0.37651   0.56005   0.00000  Uiso   1.00
H125   H     0.71526   0.48421   0.66391   0.00000  Uiso   1.00
H126   H     0.86902   0.48381   0.54743   0.00000  Uiso   1.00
H127   H     0.24259   0.33880   0.52461   0.00000  Uiso   1.00
H128   H     0.75972   0.56591   0.74359   0.00000  Uiso   1.00
H129   H     0.08395   0.56507   0.49797   0.00000  Uiso   1.00
O130   O     0.14718   0.47152   0.49706   0.00000  Uiso   1.00
O131   O     0.82565   0.76948   0.78435   0.00000  Uiso   1.00
O132   O     0.25103   0.76838   0.46211   0.00000  Uiso   1.00
N133   N     0.34262   0.62528   0.51715   0.00000  Uiso   1.00
N134   N     0.82608   0.83760   0.72188   0.00000  Uiso   1.00
N135   N     0.12923   0.83683   0.49226   0.00000  Uiso   1.00
N136   N     0.29325   0.43171   0.52528   0.00000  Uiso   1.00
N137   N     0.77671   0.64404   0.73002   0.00000  Uiso   1.00
N138   N     0.07987   0.64327   0.50039   0.00000  Uiso   1.00
C139   C     0.98670   0.21641   0.75697   0.00000  Uiso   1.00
C140   C     0.94771   0.30734   0.77131   0.00000  Uiso   1.00
C141   C     0.83460   0.27598   0.78789   0.00000  Uiso   1.00
C142   C     0.81683   0.37274   0.79910   0.00000  Uiso   1.00
C143   C     0.74225   0.49513   0.82214   0.00000  Uiso   1.00
C144   C     0.02243   0.24883   0.71488   0.00000  Uiso   1.00
C145   C     0.97214   0.16826   0.68402   0.00000  Uiso   1.00
C146   C     0.01728   0.21577   0.64773   0.00000  Uiso   1.00
C147   C     0.05876   0.24729   0.58316   0.00000  Uiso   1.00
C148   C     0.10618   0.24905   0.77817   0.00000  Uiso   1.00
C149   C     0.12633   0.16865   0.80051   0.00000  Uiso   1.00
C150   C     0.24199   0.21634   0.81750   0.00000  Uiso   1.00
C151   C     0.41350   0.24820   0.85120   0.00000  Uiso   1.00
C152   C     0.15629   0.44404   0.74741   0.00000  Uiso   1.00
C153   C     0.03983   0.43098   0.76611   0.00000  Uiso   1.00
C154   C     0.02222   0.52782   0.77731   0.00000  Uiso   1.00
C155   C     0.90910   0.49661   0.79390   0.00000  Uiso   1.00
C156   C     0.11453   0.37246   0.70968   0.00000  Uiso   1.00
C157   C     0.15976   0.42011   0.67343   0.00000  Uiso   1.00
C158   C     0.10955   0.33963   0.64252   0.00000  Uiso   1.00
C159   C     0.19829   0.37269   0.77297   0.00000  Uiso   1.00
C160   C     0.31394   0.42050   0.78993   0.00000  Uiso   1.00
C161   C     0.33426   0.34020   0.81230   0.00000  Uiso   1.00
H162   H     0.91499   0.12015   0.76101   0.00000  Uiso   1.00
H163   H     0.76334   0.18028   0.79190   0.00000  Uiso   1.00
H164   H     0.90087   0.07258   0.68805   0.00000  Uiso   1.00
H165   H     0.05502   0.07298   0.80453   0.00000  Uiso   1.00
H166   H     0.63581   0.30148   0.82384   0.00000  Uiso   1.00
H167   H     0.92582   0.07437   0.60486   0.00000  Uiso   1.00
H168   H     0.25089   0.07521   0.85048   0.00000  Uiso   1.00
H169   H     0.22800   0.54030   0.74336   0.00000  Uiso   1.00
H170   H     0.09352   0.62349   0.77328   0.00000  Uiso   1.00
H171   H     0.23105   0.51579   0.66942   0.00000  Uiso   1.00
H172   H     0.38520   0.51619   0.78590   0.00000  Uiso   1.00
H173   H     0.90379   0.66120   0.80872   0.00000  Uiso   1.00
H174   H     0.19381   0.43409   0.58974   0.00000  Uiso   1.00
H175   H     0.51888   0.43493   0.83536   0.00000  Uiso   1.00
O176   O     0.67567   0.52848   0.83627   0.00000  Uiso   1.00
O177   O     0.05618   0.23052   0.54898   0.00000  Uiso   1.00
O178   O     0.48265   0.23162   0.87122   0.00000  Uiso   1.00
N179   N     0.71734   0.37472   0.81618   0.00000  Uiso   1.00
N180   N     0.98847   0.16240   0.61145   0.00000  Uiso   1.00
N181   N     0.29240   0.16317   0.84107   0.00000  Uiso   1.00
N182   N     0.86154   0.56829   0.80805   0.00000  Uiso   1.00
N183   N     0.13268   0.35596   0.60332   0.00000  Uiso   1.00
N184   N     0.43660   0.35673   0.83294   0.00000  Uiso   1.00
C185   C     0.22971   0.01330   0.09031   0.00000  Uiso   1.00
C186   C     0.35963   0.05229   0.10464   0.00000  Uiso   1.00
C187   C     0.44137   0.16540   0.12122   0.00000  Uiso   1.00
C188   C     0.55592   0.18317   0.13244   0.00000  Uiso   1.00
C189   C     0.75288   0.25775   0.15547   0.00000  Uiso   1.00
C190   C     0.22640   0.97757   0.04821   0.00000  Uiso   1.00
C191   C     0.19612   0.02786   0.01735   0.00000  Uiso   1.00
C192   C     0.19850   0.98272   0.98106   0.00000  Uiso   1.00
C193   C     0.18854   0.94124   0.91649   0.00000  Uiso   1.00
C194   C     0.14287   0.89382   0.11150   0.00000  Uiso   1.00
C195   C     0.04233   0.87367   0.13385   0.00000  Uiso   1.00
C196   C     0.97435   0.75801   0.15084   0.00000  Uiso   1.00
C197   C     0.83470   0.58650   0.18453   0.00000  Uiso   1.00
C198   C     0.28775   0.84371   0.08074   0.00000  Uiso   1.00
C199   C     0.39115   0.96017   0.09944   0.00000  Uiso   1.00
C200   C     0.50560   0.97778   0.11064   0.00000  Uiso   1.00
C201   C     0.58750   0.09090   0.12723   0.00000  Uiso   1.00
C202   C     0.25793   0.88547   0.04302   0.00000  Uiso   1.00
C203   C     0.26034   0.84024   0.00677   0.00000  Uiso   1.00
C204   C     0.23008   0.89045   0.97586   0.00000  Uiso   1.00
C205   C     0.17440   0.80171   0.10631   0.00000  Uiso   1.00
C206   C     0.10656   0.68606   0.12326   0.00000  Uiso   1.00
C207   C     0.00594   0.66574   0.14563   0.00000  Uiso   1.00
H208   H     0.20516   0.08501   0.09435   0.00000  Uiso   1.00
H209   H     0.41694   0.23666   0.12523   0.00000  Uiso   1.00
H210   H     0.17171   0.09913   0.02138   0.00000  Uiso   1.00
H211   H     0.01796   0.94498   0.13786   0.00000  Uiso   1.00
H212   H     0.66567   0.36419   0.15717   0.00000  Uiso   1.00
H213   H     0.14855   0.07418   0.93819   0.00000  Uiso   1.00
H214   H     0.82431   0.74911   0.18381   0.00000  Uiso   1.00
H215   H     0.31230   0.77200   0.07669   0.00000  Uiso   1.00
H216   H     0.52997   0.90648   0.10661   0.00000  Uiso   1.00
H217   H     0.28474   0.76895   0.00276   0.00000  Uiso   1.00
H218   H     0.13098   0.61480   0.11924   0.00000  Uiso   1.00
H219   H     0.75741   0.09621   0.14206   0.00000  Uiso   1.00
H220   H     0.24028   0.80619   0.92308   0.00000  Uiso   1.00
H221   H     0.91605   0.48112   0.16870   0.00000  Uiso   1.00
O222   O     0.85282   0.32433   0.16960   0.00000  Uiso   1.00
O223   O     0.17435   0.94382   0.88231   0.00000  Uiso   1.00
O224   O     0.74897   0.51735   0.20456   0.00000  Uiso   1.00
N225   N     0.65738   0.28266   0.14952   0.00000  Uiso   1.00
N226   N     0.17392   0.01153   0.94478   0.00000  Uiso   1.00
N227   N     0.87077   0.70760   0.17441   0.00000  Uiso   1.00
N228   N     0.70675   0.13846   0.14138   0.00000  Uiso   1.00
N229   N     0.22329   0.86732   0.93665   0.00000  Uiso   1.00
N230   N     0.92013   0.56340   0.16627   0.00000  Uiso   1.00
C231   C     0.78359   0.77029   0.42364   0.00000  Uiso   1.00
C232   C     0.69266   0.64037   0.43798   0.00000  Uiso   1.00
C233   C     0.72402   0.55863   0.45455   0.00000  Uiso   1.00
C234   C     0.62726   0.44408   0.46577   0.00000  Uiso   1.00
C235   C     0.50487   0.24712   0.48880   0.00000  Uiso   1.00
C236   C     0.75117   0.77360   0.38155   0.00000  Uiso   1.00
C237   C     0.83174   0.80388   0.35068   0.00000  Uiso   1.00
C238   C     0.78423   0.80150   0.31440   0.00000  Uiso   1.00
C239   C     0.75271   0.81146   0.24983   0.00000  Uiso   1.00
C240   C     0.75095   0.85713   0.44484   0.00000  Uiso   1.00
C241   C     0.83135   0.95767   0.46718   0.00000  Uiso   1.00
C242   C     0.78366   0.02565   0.48417   0.00000  Uiso   1.00
C243   C     0.75180   0.16530   0.51787   0.00000  Uiso   1.00
C244   C     0.55596   0.71225   0.41407   0.00000  Uiso   1.00
C245   C     0.56902   0.60885   0.43278   0.00000  Uiso   1.00
C246   C     0.47218   0.49440   0.44397   0.00000  Uiso   1.00
C247   C     0.50339   0.41250   0.46057   0.00000  Uiso   1.00
C248   C     0.62754   0.74207   0.37635   0.00000  Uiso   1.00
C249   C     0.57989   0.73966   0.34010   0.00000  Uiso   1.00
C250   C     0.66037   0.76992   0.30919   0.00000  Uiso   1.00
C251   C     0.62731   0.82560   0.43964   0.00000  Uiso   1.00
C252   C     0.57950   0.89344   0.45660   0.00000  Uiso   1.00
C253   C     0.65980   0.99406   0.47896   0.00000  Uiso   1.00
H254   H     0.87985   0.79484   0.42768   0.00000  Uiso   1.00
H255   H     0.81972   0.58306   0.45857   0.00000  Uiso   1.00
H256   H     0.92742   0.82829   0.35471   0.00000  Uiso   1.00
H257   H     0.92702   0.98204   0.47119   0.00000  Uiso   1.00
H258   H     0.69852   0.33433   0.49051   0.00000  Uiso   1.00
H259   H     0.92563   0.85145   0.27153   0.00000  Uiso   1.00
H260   H     0.92479   0.17569   0.51714   0.00000  Uiso   1.00
H261   H     0.45970   0.68770   0.41003   0.00000  Uiso   1.00
H262   H     0.37651   0.47003   0.43995   0.00000  Uiso   1.00
H263   H     0.48421   0.71526   0.33609   0.00000  Uiso   1.00
H264   H     0.48381   0.86902   0.45257   0.00000  Uiso   1.00
H265   H     0.33880   0.24259   0.47539   0.00000  Uiso   1.00
H266   H     0.56591   0.75972   0.25641   0.00000  Uiso   1.00
H267   H     0.56507   0.08395   0.50203   0.00000  Uiso   1.00
O268   O     0.47152   0.14718   0.50294   0.00000  Uiso   1.00
O269   O     0.76948   0.82565   0.21565   0.00000  Uiso   1.00
O270   O     0.76838   0.25103   0.53789   0.00000  Uiso   1.00
N271   N     0.62528   0.34262   0.48285   0.00000  Uiso   1.00
N272   N     0.83760   0.82608   0.27812   0.00000  Uiso   1.00
N273   N     0.83683   0.12923   0.50774   0.00000  Uiso   1.00
N274   N     0.43171   0.29325   0.47472   0.00000  Uiso   1.00
N275   N     0.64404   0.77671   0.26998   0.00000  Uiso   1.00
N276   N     0.64327   0.07987   0.49961   0.00000  Uiso   1.00
