data_job_06742
_audit_creation_date              2018-12-19
_audit_creation_method            'Materials Studio'
_symmetry_space_group_name_H-M    'P1'
_symmetry_Int_Tables_number       1
_symmetry_cell_setting            triclinic
loop_
_symmetry_equiv_pos_as_xyz
  x,y,z
_cell_length_a                    21.2626
_cell_length_b                    22.7292
_cell_length_c                    22.9003
_cell_angle_alpha                 116.3949
_cell_angle_beta                  96.8230
_cell_angle_gamma                 69.4707
loop_
_atom_site_label
_atom_site_type_symbol
_atom_site_fract_x
_atom_site_fract_y
_atom_site_fract_z
_atom_site_U_iso_or_equiv
_atom_site_adp_type
_atom_site_occupancy
C1     C     0.76408   0.34366   0.10723   0.00000  Uiso   1.00
C2     C     0.75760   0.29234   0.13007   0.00000  Uiso   1.00
C3     C     0.77964   0.22033   0.09508   0.00000  Uiso   1.00
C4     C     0.76902   0.18253   0.12446   0.00000  Uiso   1.00
C5     C     0.76373   0.09781   0.15046   0.00000  Uiso   1.00
C6     C     0.69299   0.39353   0.11044   0.00000  Uiso   1.00
C7     C     0.66071   0.40660   0.05895   0.00000  Uiso   1.00
C8     C     0.59571   0.45399   0.07181   0.00000  Uiso   1.00
C9     C     0.49012   0.52640   0.06734   0.00000  Uiso   1.00
C10    C     0.80187   0.38688   0.15958   0.00000  Uiso   1.00
C11    C     0.86112   0.39437   0.14941   0.00000  Uiso   1.00
C12    C     0.88778   0.43618   0.20364   0.00000  Uiso   1.00
C13    C     0.95124   0.49826   0.27547   0.00000  Uiso   1.00
C14    C     0.70605   0.40460   0.22164   0.00000  Uiso   1.00
C15    C     0.72608   0.32544   0.19221   0.00000  Uiso   1.00
C16    C     0.71543   0.28774   0.22165   0.00000  Uiso   1.00
C17    C     0.73745   0.21569   0.18671   0.00000  Uiso   1.00
C18    C     0.66147   0.42663   0.17258   0.00000  Uiso   1.00
C19    C     0.59651   0.47401   0.18552   0.00000  Uiso   1.00
C20    C     0.56413   0.48715   0.13406   0.00000  Uiso   1.00
C21    C     0.77035   0.41997   0.22172   0.00000  Uiso   1.00
C22    C     0.79692   0.46178   0.27598   0.00000  Uiso   1.00
C23    C     0.85620   0.46934   0.26589   0.00000  Uiso   1.00
H24    H     0.78862   0.31790   0.05885   0.00000  Uiso   1.00
H25    H     0.80402   0.19473   0.04699   0.00000  Uiso   1.00
H26    H     0.68512   0.38098   0.01087   0.00000  Uiso   1.00
H27    H     0.88550   0.36875   0.10131   0.00000  Uiso   1.00
H28    H     0.80718   0.07278   0.06123   0.00000  Uiso   1.00
H29    H     0.55647   0.46551   0.98507   0.00000  Uiso   1.00
H30    H     0.97901   0.43973   0.17579   0.00000  Uiso   1.00
H31    H     0.68151   0.43037   0.27002   0.00000  Uiso   1.00
H32    H     0.69104   0.31337   0.26974   0.00000  Uiso   1.00
H33    H     0.57213   0.49962   0.23362   0.00000  Uiso   1.00
H34    H     0.77251   0.48739   0.32406   0.00000  Uiso   1.00
H35    H     0.71548   0.16907   0.24202   0.00000  Uiso   1.00
H36    H     0.46476   0.56181   0.16586   0.00000  Uiso   1.00
H37    H     0.88731   0.53602   0.35658   0.00000  Uiso   1.00
O38    O     0.76951   0.04194   0.14763   0.00000  Uiso   1.00
O39    O     0.44059   0.55719   0.04771   0.00000  Uiso   1.00
O40    O     0.99496   0.52336   0.29792   0.00000  Uiso   1.00
N41    N     0.78430   0.11150   0.10382   0.00000  Uiso   1.00
N42    N     0.54990   0.47867   0.03261   0.00000  Uiso   1.00
N43    N     0.94493   0.45458   0.21092   0.00000  Uiso   1.00
N44    N     0.73496   0.16331   0.20111   0.00000  Uiso   1.00
N45    N     0.50055   0.53048   0.12990   0.00000  Uiso   1.00
N46    N     0.89558   0.50639   0.30820   0.00000  Uiso   1.00
C47    C     0.15340   0.94071   0.22357   0.00000  Uiso   1.00
C48    C     0.09396   0.93068   0.18058   0.00000  Uiso   1.00
C49    C     0.05248   0.97695   0.15678   0.00000  Uiso   1.00
C50    C     0.00084   0.95825   0.11828   0.00000  Uiso   1.00
C51    C     0.91000   0.95223   0.05371   0.00000  Uiso   1.00
C52    C     0.13981   0.93539   0.28464   0.00000  Uiso   1.00
C53    C     0.13688   0.98562   0.34834   0.00000  Uiso   1.00
C54    C     0.12384   0.97088   0.39745   0.00000  Uiso   1.00
C55    C     0.10424   0.97215   0.49444   0.00000  Uiso   1.00
C56    C     0.21414   0.87693   0.18764   0.00000  Uiso   1.00
C57    C     0.27372   0.87800   0.16978   0.00000  Uiso   1.00
C58    C     0.32327   0.81404   0.13723   0.00000  Uiso   1.00
C59    C     0.41906   0.72454   0.08360   0.00000  Uiso   1.00
C60    C     0.13546   0.82522   0.19752   0.00000  Uiso   1.00
C61    C     0.08422   0.86795   0.16643   0.00000  Uiso   1.00
C62    C     0.03263   0.84918   0.12796   0.00000  Uiso   1.00
C63    C     0.99108   0.89541   0.10410   0.00000  Uiso   1.00
C64    C     0.13006   0.87266   0.27050   0.00000  Uiso   1.00
C65    C     0.11703   0.85784   0.31952   0.00000  Uiso   1.00
C66    C     0.11408   0.90804   0.38327   0.00000  Uiso   1.00
C67    C     0.20439   0.81420   0.17348   0.00000  Uiso   1.00
C68    C     0.25386   0.75022   0.14096   0.00000  Uiso   1.00
C69    C     0.31350   0.75120   0.12306   0.00000  Uiso   1.00
H70    H     0.16099   0.98955   0.23459   0.00000  Uiso   1.00
H71    H     0.06003   0.02549   0.16774   0.00000  Uiso   1.00
H72    H     0.14443   0.03415   0.35928   0.00000  Uiso   1.00
H73    H     0.28124   0.92655   0.18074   0.00000  Uiso   1.00
H74    H     0.94379   0.03769   0.08742   0.00000  Uiso   1.00
H75    H     0.12177   0.05594   0.49127   0.00000  Uiso   1.00
H76    H     0.41026   0.82904   0.11480   0.00000  Uiso   1.00
H77    H     0.12788   0.77638   0.18650   0.00000  Uiso   1.00
H78    H     0.02510   0.80063   0.11701   0.00000  Uiso   1.00
H79    H     0.10950   0.80929   0.30855   0.00000  Uiso   1.00
H80    H     0.24631   0.70169   0.13002   0.00000  Uiso   1.00
H81    H     0.91544   0.85519   0.04625   0.00000  Uiso   1.00
H82    H     0.09342   0.87344   0.45010   0.00000  Uiso   1.00
H83    H     0.38191   0.64654   0.07363   0.00000  Uiso   1.00
O84    O     0.86259   0.96625   0.02201   0.00000  Uiso   1.00
O85    O     0.09611   0.99019   0.55185   0.00000  Uiso   1.00
O86    O     0.47459   0.69250   0.05793   0.00000  Uiso   1.00
N87    N     0.95123   0.99140   0.08725   0.00000  Uiso   1.00
N88    N     0.11762   0.00847   0.46483   0.00000  Uiso   1.00
N89    N     0.38734   0.79634   0.11288   0.00000  Uiso   1.00
N90    N     0.93597   0.89320   0.06510   0.00000  Uiso   1.00
N91    N     0.10236   0.91027   0.44268   0.00000  Uiso   1.00
N92    N     0.37208   0.69814   0.09072   0.00000  Uiso   1.00
C93    C     0.97010   0.82510   0.72314   0.00000  Uiso   1.00
C94    C     0.91083   0.88620   0.76561   0.00000  Uiso   1.00
C95    C     0.89312   0.90122   0.82836   0.00000  Uiso   1.00
C96    C     0.83720   0.95947   0.85905   0.00000  Uiso   1.00
C97    C     0.75076   0.04799   0.92970   0.00000  Uiso   1.00
C98    C     0.94062   0.78488   0.66011   0.00000  Uiso   1.00
C99    C     0.94796   0.71471   0.63415   0.00000  Uiso   1.00
C100   C     0.91713   0.68767   0.57602   0.00000  Uiso   1.00
C101   C     0.87698   0.61888   0.48285   0.00000  Uiso   1.00
C102   C     0.01236   0.85680   0.70456   0.00000  Uiso   1.00
C103   C     0.08003   0.84708   0.71597   0.00000  Uiso   1.00
C104   C     0.10959   0.88057   0.69524   0.00000  Uiso   1.00
C105   C     0.18083   0.92344   0.67110   0.00000  Uiso   1.00
C106   C     0.90229   0.90184   0.66604   0.00000  Uiso   1.00
C107   C     0.87400   0.92788   0.73459   0.00000  Uiso   1.00
C108   C     0.81810   0.98613   0.76519   0.00000  Uiso   1.00
C109   C     0.80030   0.00123   0.82798   0.00000  Uiso   1.00
C110   C     0.90380   0.82656   0.62909   0.00000  Uiso   1.00
C111   C     0.87295   0.79962   0.57098   0.00000  Uiso   1.00
C112   C     0.88023   0.72943   0.54494   0.00000  Uiso   1.00
C113   C     0.97553   0.89848   0.67355   0.00000  Uiso   1.00
C114   C     0.00500   0.93199   0.65280   0.00000  Uiso   1.00
C115   C     0.07270   0.92233   0.66417   0.00000  Uiso   1.00
H116   H     0.99877   0.79264   0.74728   0.00000  Uiso   1.00
H117   H     0.92163   0.86894   0.85235   0.00000  Uiso   1.00
H118   H     0.97647   0.68246   0.65816   0.00000  Uiso   1.00
H119   H     0.10851   0.81481   0.73997   0.00000  Uiso   1.00
H120   H     0.81985   0.97190   0.95514   0.00000  Uiso   1.00
H121   H     0.93551   0.57870   0.54569   0.00000  Uiso   1.00
H122   H     0.21394   0.85779   0.71819   0.00000  Uiso   1.00
H123   H     0.87362   0.93430   0.64189   0.00000  Uiso   1.00
H124   H     0.78961   0.01838   0.74117   0.00000  Uiso   1.00
H125   H     0.84445   0.83190   0.54699   0.00000  Uiso   1.00
H126   H     0.97649   0.96425   0.62880   0.00000  Uiso   1.00
H127   H     0.71269   0.09319   0.86491   0.00000  Uiso   1.00
H128   H     0.82836   0.69998   0.45545   0.00000  Uiso   1.00
H129   H     0.10679   0.97907   0.62796   0.00000  Uiso   1.00
O130   O     0.71325   0.08529   0.97723   0.00000  Uiso   1.00
O131   O     0.86501   0.56941   0.44004   0.00000  Uiso   1.00
O132   O     0.23030   0.93557   0.66636   0.00000  Uiso   1.00
N133   N     0.80616   0.98892   0.92029   0.00000  Uiso   1.00
N134   N     0.91429   0.62130   0.53747   0.00000  Uiso   1.00
N135   N     0.17461   0.88220   0.69874   0.00000  Uiso   1.00
N136   N     0.74851   0.05418   0.87173   0.00000  Uiso   1.00
N137   N     0.85664   0.68656   0.48892   0.00000  Uiso   1.00
N138   N     0.11695   0.94747   0.65018   0.00000  Uiso   1.00
C139   C     0.63442   0.62435   0.74009   0.00000  Uiso   1.00
C140   C     0.60386   0.65895   0.80921   0.00000  Uiso   1.00
C141   C     0.58676   0.72935   0.85132   0.00000  Uiso   1.00
C142   C     0.55941   0.75074   0.91251   0.00000  Uiso   1.00
C143   C     0.51342   0.81168   0.01703   0.00000  Uiso   1.00
C144   C     0.58732   0.58743   0.69587   0.00000  Uiso   1.00
C145   C     0.55633   0.59768   0.64268   0.00000  Uiso   1.00
C146   C     0.51506   0.55885   0.60846   0.00000  Uiso   1.00
C147   C     0.44344   0.50871   0.53700   0.00000  Uiso   1.00
C148   C     0.69962   0.56691   0.73833   0.00000  Uiso   1.00
C149   C     0.76306   0.55990   0.72082   0.00000  Uiso   1.00
C150   C     0.81634   0.50379   0.72233   0.00000  Uiso   1.00
C151   C     0.91909   0.42179   0.71679   0.00000  Uiso   1.00
C152   C     0.61626   0.53714   0.77387   0.00000  Uiso   1.00
C153   C     0.59399   0.61158   0.82755   0.00000  Uiso   1.00
C154   C     0.56666   0.63287   0.88869   0.00000  Uiso   1.00
C155   C     0.54952   0.70329   0.93089   0.00000  Uiso   1.00
C156   C     0.57745   0.54006   0.71422   0.00000  Uiso   1.00
C157   C     0.53623   0.50120   0.68006   0.00000  Uiso   1.00
C158   C     0.50518   0.51140   0.62684   0.00000  Uiso   1.00
C159   C     0.68976   0.51954   0.75668   0.00000  Uiso   1.00
C160   C     0.74296   0.46342   0.75821   0.00000  Uiso   1.00
C161   C     0.80645   0.45633   0.74071   0.00000  Uiso   1.00
H162   H     0.64210   0.66122   0.72580   0.00000  Uiso   1.00
H163   H     0.59440   0.76599   0.83710   0.00000  Uiso   1.00
H164   H     0.56398   0.63434   0.62849   0.00000  Uiso   1.00
H165   H     0.77067   0.59656   0.70663   0.00000  Uiso   1.00
H166   H     0.53714   0.86126   0.96858   0.00000  Uiso   1.00
H167   H     0.47301   0.58365   0.52871   0.00000  Uiso   1.00
H168   H     0.90887   0.50400   0.69347   0.00000  Uiso   1.00
H169   H     0.60857   0.50026   0.78815   0.00000  Uiso   1.00
H170   H     0.55903   0.59620   0.90288   0.00000  Uiso   1.00
H171   H     0.52861   0.46455   0.69427   0.00000  Uiso   1.00
H172   H     0.73530   0.42678   0.77241   0.00000  Uiso   1.00
H173   H     0.50843   0.72346   0.02197   0.00000  Uiso   1.00
H174   H     0.44430   0.44584   0.58210   0.00000  Uiso   1.00
H175   H     0.88016   0.36619   0.74686   0.00000  Uiso   1.00
O176   O     0.49078   0.85838   0.06961   0.00000  Uiso   1.00
O177   O     0.40666   0.49415   0.49251   0.00000  Uiso   1.00
O178   O     0.97849   0.38965   0.70868   0.00000  Uiso   1.00
N179   N     0.53719   0.81566   0.96540   0.00000  Uiso   1.00
N180   N     0.47723   0.55612   0.55416   0.00000  Uiso   1.00
N181   N     0.88472   0.48164   0.70818   0.00000  Uiso   1.00
N182   N     0.52174   0.74151   0.99413   0.00000  Uiso   1.00
N183   N     0.46178   0.48197   0.58289   0.00000  Uiso   1.00
N184   N     0.86927   0.40749   0.73691   0.00000  Uiso   1.00
C185   C     0.55886   0.09543   0.34793   0.00000  Uiso   1.00
C186   C     0.55861   0.07771   0.27541   0.00000  Uiso   1.00
C187   C     0.54354   0.02166   0.22595   0.00000  Uiso   1.00
C188   C     0.54611   0.01447   0.16273   0.00000  Uiso   1.00
C189   C     0.54311   0.97980   0.05213   0.00000  Uiso   1.00
C190   C     0.51065   0.16995   0.38200   0.00000  Uiso   1.00
C191   C     0.45527   0.19144   0.42217   0.00000  Uiso   1.00
C192   C     0.41747   0.26189   0.44869   0.00000  Uiso   1.00
C193   C     0.34004   0.37042   0.50362   0.00000  Uiso   1.00
C194   C     0.62879   0.09819   0.36972   0.00000  Uiso   1.00
C195   C     0.67273   0.05936   0.39959   0.00000  Uiso   1.00
C196   C     0.73438   0.06942   0.41579   0.00000  Uiso   1.00
C197   C     0.84037   0.06654   0.45166   0.00000  Uiso   1.00
C198   C     0.59022   0.18234   0.32361   0.00000  Uiso   1.00
C199   C     0.57564   0.12493   0.26220   0.00000  Uiso   1.00
C200   C     0.57824   0.11782   0.19904   0.00000  Uiso   1.00
C201   C     0.56318   0.06176   0.14950   0.00000  Uiso   1.00
C202   C     0.52768   0.21715   0.36879   0.00000  Uiso   1.00
C203   C     0.48996   0.28760   0.39526   0.00000  Uiso   1.00
C204   C     0.43453   0.30919   0.43546   0.00000  Uiso   1.00
C205   C     0.64582   0.14540   0.35651   0.00000  Uiso   1.00
C206   C     0.70742   0.15552   0.37268   0.00000  Uiso   1.00
C207   C     0.75145   0.11671   0.40256   0.00000  Uiso   1.00
H208   H     0.54559   0.05868   0.35822   0.00000  Uiso   1.00
H209   H     0.53035   0.98514   0.23619   0.00000  Uiso   1.00
H210   H     0.44210   0.15489   0.43239   0.00000  Uiso   1.00
H211   H     0.65953   0.02284   0.40980   0.00000  Uiso   1.00
H212   H     0.52095   0.92444   0.09508   0.00000  Uiso   1.00
H213   H     0.33488   0.28238   0.50879   0.00000  Uiso   1.00
H214   H     0.79336   0.00391   0.46117   0.00000  Uiso   1.00
H215   H     0.60348   0.21910   0.31333   0.00000  Uiso   1.00
H216   H     0.59142   0.15436   0.18883   0.00000  Uiso   1.00
H217   H     0.50316   0.32411   0.38503   0.00000  Uiso   1.00
H218   H     0.72059   0.19206   0.36245   0.00000  Uiso   1.00
H219   H     0.57051   0.06179   0.05664   0.00000  Uiso   1.00
H220   H     0.38443   0.41972   0.47036   0.00000  Uiso   1.00
H221   H     0.84292   0.14126   0.42274   0.00000  Uiso   1.00
O222   O     0.53673   0.94765   0.99478   0.00000  Uiso   1.00
O223   O     0.29262   0.41724   0.53756   0.00000  Uiso   1.00
O224   O     0.89413   0.05190   0.47508   0.00000  Uiso   1.00
N225   N     0.53428   0.96564   0.10312   0.00000  Uiso   1.00
N226   N     0.36031   0.30029   0.48990   0.00000  Uiso   1.00
N227   N     0.78894   0.03996   0.44540   0.00000  Uiso   1.00
N228   N     0.56095   0.03955   0.08243   0.00000  Uiso   1.00
N229   N     0.38697   0.37419   0.46922   0.00000  Uiso   1.00
N230   N     0.81561   0.11387   0.42472   0.00000  Uiso   1.00
C231   C     0.32819   0.18299   0.94648   0.00000  Uiso   1.00
C232   C     0.31736   0.12279   0.95208   0.00000  Uiso   1.00
C233   C     0.33101   0.10799   0.00581   0.00000  Uiso   1.00
C234   C     0.31762   0.05061   0.00133   0.00000  Uiso   1.00
C235   C     0.30474   0.96340   0.01859   0.00000  Uiso   1.00
C236   C     0.26026   0.22425   0.93063   0.00000  Uiso   1.00
C237   C     0.22591   0.29476   0.96631   0.00000  Uiso   1.00
C238   C     0.16446   0.32278   0.94377   0.00000  Uiso   1.00
C239   C     0.06296   0.39310   0.92769   0.00000  Uiso   1.00
C240   C     0.37401   0.15013   0.88583   0.00000  Uiso   1.00
C241   C     0.43529   0.15833   0.88384   0.00000  Uiso   1.00
C242   C     0.46959   0.12395   0.82358   0.00000  Uiso   1.00
C243   C     0.54471   0.07918   0.73794   0.00000  Uiso   1.00
C244   C     0.28015   0.10739   0.84299   0.00000  Uiso   1.00
C245   C     0.29127   0.08173   0.89587   0.00000  Uiso   1.00
C246   C     0.27786   0.02435   0.89131   0.00000  Uiso   1.00
C247   C     0.29148   0.00947   0.94502   0.00000  Uiso   1.00
C248   C     0.23417   0.18319   0.87442   0.00000  Uiso   1.00
C249   C     0.17276   0.21112   0.85181   0.00000  Uiso   1.00
C250   C     0.13832   0.28165   0.88746   0.00000  Uiso   1.00
C251   C     0.34792   0.10906   0.82962   0.00000  Uiso   1.00
C252   C     0.38214   0.07468   0.76934   0.00000  Uiso   1.00
C253   C     0.44345   0.08282   0.76727   0.00000  Uiso   1.00
H254   H     0.34850   0.21496   0.99025   0.00000  Uiso   1.00
H255   H     0.35119   0.13979   0.04930   0.00000  Uiso   1.00
H256   H     0.24611   0.32653   0.00981   0.00000  Uiso   1.00
H257   H     0.45546   0.19011   0.92735   0.00000  Uiso   1.00
H258   H     0.34265   0.03835   0.09000   0.00000  Uiso   1.00
H259   H     0.12110   0.43210   0.00670   0.00000  Uiso   1.00
H260   H     0.56254   0.14443   0.83283   0.00000  Uiso   1.00
H261   H     0.25984   0.07542   0.79923   0.00000  Uiso   1.00
H262   H     0.25767   0.99258   0.84780   0.00000  Uiso   1.00
H263   H     0.15259   0.17932   0.80831   0.00000  Uiso   1.00
H264   H     0.36193   0.04290   0.72585   0.00000  Uiso   1.00
H265   H     0.26674   0.91887   0.92646   0.00000  Uiso   1.00
H266   H     0.04518   0.31263   0.84316   0.00000  Uiso   1.00
H267   H     0.48663   0.02496   0.66929   0.00000  Uiso   1.00
O268   O     0.30484   0.92665   0.04364   0.00000  Uiso   1.00
O269   O     0.01418   0.44324   0.93435   0.00000  Uiso   1.00
O270   O     0.59335   0.06583   0.70624   0.00000  Uiso   1.00
N271   N     0.32509   0.02159   0.04484   0.00000  Uiso   1.00
N272   N     0.11795   0.38972   0.96697   0.00000  Uiso   1.00
N273   N     0.53066   0.12079   0.80441   0.00000  Uiso   1.00
N274   N     0.28425   0.95730   0.95684   0.00000  Uiso   1.00
N275   N     0.07710   0.32543   0.87897   0.00000  Uiso   1.00
N276   N     0.48981   0.05650   0.71641   0.00000  Uiso   1.00
C277   C     0.18529   0.67667   0.90446   0.00000  Uiso   1.00
C278   C     0.17204   0.75018   0.91200   0.00000  Uiso   1.00
C279   C     0.14167   0.81157   0.96629   0.00000  Uiso   1.00
C280   C     0.13413   0.87353   0.96365   0.00000  Uiso   1.00
C281   C     0.11022   0.98759   0.98373   0.00000  Uiso   1.00
C282   C     0.26061   0.63892   0.88927   0.00000  Uiso   1.00
C283   C     0.30472   0.60675   0.92445   0.00000  Uiso   1.00
C284   C     0.37174   0.57504   0.90267   0.00000  Uiso   1.00
C285   C     0.48534   0.51633   0.88744   0.00000  Uiso   1.00
C286   C     0.15105   0.64152   0.84275   0.00000  Uiso   1.00
C287   C     0.10305   0.61153   0.83880   0.00000  Uiso   1.00
C288   C     0.07784   0.58200   0.77784   0.00000  Uiso   1.00
C289   C     0.02133   0.52733   0.69037   0.00000  Uiso   1.00
C290   C     0.22589   0.67755   0.80324   0.00000  Uiso   1.00
C291   C     0.19409   0.75065   0.85702   0.00000  Uiso   1.00
C292   C     0.18659   0.81254   0.85429   0.00000  Uiso   1.00
C293   C     0.15622   0.87401   0.90857   0.00000  Uiso   1.00
C294   C     0.28267   0.63939   0.83429   0.00000  Uiso   1.00
C295   C     0.34964   0.60772   0.81246   0.00000  Uiso   1.00
C296   C     0.39383   0.57552   0.84759   0.00000  Uiso   1.00
C297   C     0.17310   0.64200   0.78776   0.00000  Uiso   1.00
C298   C     0.14797   0.61250   0.72680   0.00000  Uiso   1.00
C299   C     0.09993   0.58247   0.72276   0.00000  Uiso   1.00
H300   H     0.16813   0.67630   0.94727   0.00000  Uiso   1.00
H301   H     0.12462   0.81118   0.00883   0.00000  Uiso   1.00
H302   H     0.28764   0.60639   0.96699   0.00000  Uiso   1.00
H303   H     0.08600   0.61117   0.88135   0.00000  Uiso   1.00
H304   H     0.08612   0.96092   0.05285   0.00000  Uiso   1.00
H305   H     0.42986   0.52909   0.96462   0.00000  Uiso   1.00
H306   H     0.00466   0.53917   0.78403   0.00000  Uiso   1.00
H307   H     0.24306   0.67792   0.76043   0.00000  Uiso   1.00
H308   H     0.20366   0.81289   0.81174   0.00000  Uiso   1.00
H309   H     0.36668   0.60809   0.76991   0.00000  Uiso   1.00
H310   H     0.16505   0.61288   0.68427   0.00000  Uiso   1.00
H311   H     0.15028   0.96231   0.89288   0.00000  Uiso   1.00
H312   H     0.49402   0.53047   0.80465   0.00000  Uiso   1.00
H313   H     0.06882   0.54056   0.62407   0.00000  Uiso   1.00
O314   O     0.09095   0.05037   0.01000   0.00000  Uiso   1.00
O315   O     0.54191   0.48381   0.89424   0.00000  Uiso   1.00
O316   O     0.98407   0.49705   0.65731   0.00000  Uiso   1.00
N317   N     0.10662   0.94273   0.00815   0.00000  Uiso   1.00
N318   N     0.42799   0.53900   0.92567   0.00000  Uiso   1.00
N319   N     0.03048   0.54841   0.75683   0.00000  Uiso   1.00
N320   N     0.14114   0.94347   0.92208   0.00000  Uiso   1.00
N321   N     0.46251   0.53974   0.83960   0.00000  Uiso   1.00
N322   N     0.06501   0.54915   0.67076   0.00000  Uiso   1.00
C323   C     0.92801   0.17608   0.82930   0.00000  Uiso   1.00
C324   C     0.96228   0.20409   0.89329   0.00000  Uiso   1.00
C325   C     0.99714   0.16639   0.92780   0.00000  Uiso   1.00
C326   C     0.02486   0.20146   0.98528   0.00000  Uiso   1.00
C327   C     0.07915   0.23427   0.08125   0.00000  Uiso   1.00
C328   C     0.95825   0.18915   0.78092   0.00000  Uiso   1.00
C329   C     0.98971   0.13889   0.72095   0.00000  Uiso   1.00
C330   C     0.01403   0.16138   0.68383   0.00000  Uiso   1.00
C331   C     0.06202   0.17100   0.60533   0.00000  Uiso   1.00
C332   C     0.85477   0.22360   0.84160   0.00000  Uiso   1.00
C333   C     0.79923   0.20231   0.83263   0.00000  Uiso   1.00
C334   C     0.73643   0.25381   0.84658   0.00000  Uiso   1.00
C335   C     0.62376   0.31692   0.86228   0.00000  Uiso   1.00
C336   C     0.91525   0.30540   0.87001   0.00000  Uiso   1.00
C337   C     0.95534   0.27434   0.91540   0.00000  Uiso   1.00
C338   C     0.98302   0.30948   0.97284   0.00000  Uiso   1.00
C339   C     0.01791   0.27183   0.00743   0.00000  Uiso   1.00
C340   C     0.95131   0.25940   0.80303   0.00000  Uiso   1.00
C341   C     0.97559   0.28197   0.76599   0.00000  Uiso   1.00
C342   C     0.00709   0.23175   0.70598   0.00000  Uiso   1.00
C343   C     0.84784   0.29385   0.86371   0.00000  Uiso   1.00
C344   C     0.78511   0.34539   0.87767   0.00000  Uiso   1.00
C345   C     0.72949   0.32418   0.86873   0.00000  Uiso   1.00
H346   H     0.93341   0.12139   0.81209   0.00000  Uiso   1.00
H347   H     0.00250   0.11203   0.91067   0.00000  Uiso   1.00
H348   H     0.99506   0.08453   0.70385   0.00000  Uiso   1.00
H349   H     0.80462   0.14794   0.81552   0.00000  Uiso   1.00
H350   H     0.07606   0.13262   0.02970   0.00000  Uiso   1.00
H351   H     0.06036   0.07465   0.59361   0.00000  Uiso   1.00
H352   H     0.65876   0.20836   0.82907   0.00000  Uiso   1.00
H353   H     0.90985   0.36009   0.88722   0.00000  Uiso   1.00
H354   H     0.97764   0.36384   0.98993   0.00000  Uiso   1.00
H355   H     0.97021   0.33634   0.78311   0.00000  Uiso   1.00
H356   H     0.77976   0.39975   0.89478   0.00000  Uiso   1.00
H357   H     0.05589   0.33700   0.09404   0.00000  Uiso   1.00
H358   H     0.04019   0.27902   0.65793   0.00000  Uiso   1.00
H359   H     0.63859   0.41274   0.89340   0.00000  Uiso   1.00
O360   O     0.11102   0.23296   0.12807   0.00000  Uiso   1.00
O361   O     0.09041   0.15690   0.55592   0.00000  Uiso   1.00
O362   O     0.56352   0.33233   0.86485   0.00000  Uiso   1.00
N363   N     0.06200   0.18021   0.03076   0.00000  Uiso   1.00
N364   N     0.04733   0.12601   0.62303   0.00000  Uiso   1.00
N365   N     0.67187   0.25102   0.84316   0.00000  Uiso   1.00
N366   N     0.05114   0.29019   0.06537   0.00000  Uiso   1.00
N367   N     0.03648   0.23598   0.65765   0.00000  Uiso   1.00
N368   N     0.66101   0.36099   0.87777   0.00000  Uiso   1.00
C369   C     0.96928   0.20339   0.28923   0.00000  Uiso   1.00
C370   C     0.04537   0.17844   0.27864   0.00000  Uiso   1.00
C371   C     0.07894   0.17383   0.22755   0.00000  Uiso   1.00
C372   C     0.14870   0.14977   0.22655   0.00000  Uiso   1.00
C373   C     0.26154   0.11392   0.20275   0.00000  Uiso   1.00
C374   C     0.95287   0.26360   0.35738   0.00000  Uiso   1.00
C375   C     0.90866   0.33058   0.37249   0.00000  Uiso   1.00
C376   C     0.90055   0.37820   0.43777   0.00000  Uiso   1.00
C377   C     0.86975   0.47454   0.53623   0.00000  Uiso   1.00
C378   C     0.95358   0.14448   0.29272   0.00000  Uiso   1.00
C379   C     0.90996   0.11132   0.25348   0.00000  Uiso   1.00
C380   C     0.90244   0.05866   0.26433   0.00000  Uiso   1.00
C381   C     0.87275   0.97005   0.26239   0.00000  Uiso   1.00
C382   C     0.03346   0.16887   0.37829   0.00000  Uiso   1.00
C383   C     0.08023   0.15969   0.32701   0.00000  Uiso   1.00
C384   C     0.14996   0.13563   0.32608   0.00000  Uiso   1.00
C385   C     0.18362   0.13098   0.27500   0.00000  Uiso   1.00
C386   C     0.98773   0.24485   0.40575   0.00000  Uiso   1.00
C387   C     0.97968   0.29238   0.47102   0.00000  Uiso   1.00
C388   C     0.93547   0.35942   0.48623   0.00000  Uiso   1.00
C389   C     0.98845   0.12573   0.34109   0.00000  Uiso   1.00
C390   C     0.98098   0.07312   0.35200   0.00000  Uiso   1.00
C391   C     0.93736   0.03988   0.31279   0.00000  Uiso   1.00
H392   H     0.94213   0.21799   0.25158   0.00000  Uiso   1.00
H393   H     0.05194   0.18835   0.19013   0.00000  Uiso   1.00
H394   H     0.88168   0.34507   0.33505   0.00000  Uiso   1.00
H395   H     0.88299   0.12584   0.21605   0.00000  Uiso   1.00
H396   H     0.18905   0.14724   0.14335   0.00000  Uiso   1.00
H397   H     0.83004   0.47769   0.44892   0.00000  Uiso   1.00
H398   H     0.83279   0.01540   0.19800   0.00000  Uiso   1.00
H399   H     0.06061   0.15427   0.41595   0.00000  Uiso   1.00
H400   H     0.17692   0.12113   0.36352   0.00000  Uiso   1.00
H401   H     0.00666   0.27785   0.50844   0.00000  Uiso   1.00
H402   H     0.00797   0.05862   0.38944   0.00000  Uiso   1.00
H403   H     0.29050   0.09268   0.28408   0.00000  Uiso   1.00
H404   H     0.93148   0.42313   0.58965   0.00000  Uiso   1.00
H405   H     0.93424   0.96084   0.33872   0.00000  Uiso   1.00
O406   O     0.31415   0.09933   0.17627   0.00000  Uiso   1.00
O407   O     0.84313   0.53286   0.57717   0.00000  Uiso   1.00
O408   O     0.84675   0.92635   0.24796   0.00000  Uiso   1.00
N409   N     0.19697   0.13893   0.18366   0.00000  Uiso   1.00
N410   N     0.86132   0.44789   0.46935   0.00000  Uiso   1.00
N411   N     0.86388   0.01570   0.23477   0.00000  Uiso   1.00
N412   N     0.25155   0.10958   0.25938   0.00000  Uiso   1.00
N413   N     0.91591   0.41853   0.54507   0.00000  Uiso   1.00
N414   N     0.91846   0.98634   0.31049   0.00000  Uiso   1.00
C415   C     0.41257   0.34847   0.18082   0.00000  Uiso   1.00
C416   C     0.45220   0.32707   0.11915   0.00000  Uiso   1.00
C417   C     0.49856   0.26183   0.08358   0.00000  Uiso   1.00
C418   C     0.52949   0.25267   0.02862   0.00000  Uiso   1.00
C419   C     0.59332   0.21121   0.93572   0.00000  Uiso   1.00
C420   C     0.42805   0.41196   0.23301   0.00000  Uiso   1.00
C421   C     0.45410   0.41810   0.29317   0.00000  Uiso   1.00
C422   C     0.46468   0.48042   0.33406   0.00000  Uiso   1.00
C423   C     0.49096   0.57077   0.41794   0.00000  Uiso   1.00
C424   C     0.33861   0.37474   0.16677   0.00000  Uiso   1.00
C425   C     0.28946   0.34960   0.17125   0.00000  Uiso   1.00
C426   C     0.22474   0.38058   0.15637   0.00000  Uiso   1.00
C427   C     0.11216   0.41314   0.13741   0.00000  Uiso   1.00
C428   C     0.38504   0.44822   0.14647   0.00000  Uiso   1.00
C429   C     0.43724   0.38125   0.10050   0.00000  Uiso   1.00
C430   C     0.46810   0.37219   0.04557   0.00000  Uiso   1.00
C431   C     0.51450   0.30695   0.00992   0.00000  Uiso   1.00
C432   C     0.41309   0.46615   0.21436   0.00000  Uiso   1.00
C433   C     0.42363   0.52847   0.25517   0.00000  Uiso   1.00
C434   C     0.44970   0.53470   0.31537   0.00000  Uiso   1.00
C435   C     0.32366   0.42892   0.14811   0.00000  Uiso   1.00
C436   C     0.25900   0.45996   0.13324   0.00000  Uiso   1.00
C437   C     0.20975   0.43486   0.13769   0.00000  Uiso   1.00
H438   H     0.42422   0.30629   0.19535   0.00000  Uiso   1.00
H439   H     0.51013   0.21991   0.09804   0.00000  Uiso   1.00
H440   H     0.46566   0.37617   0.30760   0.00000  Uiso   1.00
H441   H     0.30105   0.30767   0.18569   0.00000  Uiso   1.00
H442   H     0.59880   0.14805   0.98193   0.00000  Uiso   1.00
H443   H     0.50501   0.47753   0.42381   0.00000  Uiso   1.00
H444   H     0.15790   0.33308   0.16674   0.00000  Uiso   1.00
H445   H     0.37340   0.49041   0.13195   0.00000  Uiso   1.00
H446   H     0.45652   0.41413   0.03115   0.00000  Uiso   1.00
H447   H     0.41205   0.57039   0.24071   0.00000  Uiso   1.00
H448   H     0.24744   0.50189   0.11880   0.00000  Uiso   1.00
H449   H     0.55529   0.30568   0.92764   0.00000  Uiso   1.00
H450   H     0.46150   0.63517   0.36953   0.00000  Uiso   1.00
H451   H     0.11439   0.49072   0.11245   0.00000  Uiso   1.00
O452   O     0.63266   0.17337   0.88963   0.00000  Uiso   1.00
O453   O     0.50960   0.60564   0.46937   0.00000  Uiso   1.00
O454   O     0.05420   0.41613   0.13209   0.00000  Uiso   1.00
N455   N     0.57714   0.19561   0.98298   0.00000  Uiso   1.00
N456   N     0.48947   0.50365   0.39611   0.00000  Uiso   1.00
N457   N     0.16494   0.36862   0.15578   0.00000  Uiso   1.00
N458   N     0.55373   0.28043   0.95377   0.00000  Uiso   1.00
N459   N     0.46606   0.58847   0.36689   0.00000  Uiso   1.00
N460   N     0.14153   0.45344   0.12657   0.00000  Uiso   1.00
C461   C     0.59380   0.87543   0.66795   0.00000  Uiso   1.00
C462   C     0.65757   0.81915   0.67125   0.00000  Uiso   1.00
C463   C     0.70814   0.83028   0.71478   0.00000  Uiso   1.00
C464   C     0.76241   0.77195   0.70992   0.00000  Uiso   1.00
C465   C     0.86091   0.69477   0.72214   0.00000  Uiso   1.00
C466   C     0.59293   0.86779   0.59827   0.00000  Uiso   1.00
C467   C     0.58914   0.91982   0.58045   0.00000  Uiso   1.00
C468   C     0.58898   0.90243   0.51415   0.00000  Uiso   1.00
C469   C     0.58708   0.90078   0.41306   0.00000  Uiso   1.00
C470   C     0.53531   0.85478   0.67535   0.00000  Uiso   1.00
C471   C     0.48307   0.89588   0.72231   0.00000  Uiso   1.00
C472   C     0.43439   0.86755   0.72089   0.00000  Uiso   1.00
C473   C     0.34303   0.84570   0.73948   0.00000  Uiso   1.00
C474   C     0.60023   0.75205   0.58190   0.00000  Uiso   1.00
C475   C     0.66106   0.75214   0.62451   0.00000  Uiso   1.00
C476   C     0.71526   0.69378   0.61958   0.00000  Uiso   1.00
C477   C     0.76591   0.70482   0.66310   0.00000  Uiso   1.00
C478   C     0.59642   0.80078   0.55154   0.00000  Uiso   1.00
C479   C     0.59626   0.78331   0.48524   0.00000  Uiso   1.00
C480   C     0.59248   0.83530   0.46732   0.00000  Uiso   1.00
C481   C     0.53881   0.78777   0.62861   0.00000  Uiso   1.00
C482   C     0.49020   0.75937   0.62711   0.00000  Uiso   1.00
C483   C     0.43789   0.80042   0.67407   0.00000  Uiso   1.00
H484   H     0.59108   0.92760   0.70433   0.00000  Uiso   1.00
H485   H     0.70542   0.88215   0.75094   0.00000  Uiso   1.00
H486   H     0.58643   0.97167   0.61663   0.00000  Uiso   1.00
H487   H     0.48038   0.94774   0.75847   0.00000  Uiso   1.00
H488   H     0.83375   0.80221   0.78199   0.00000  Uiso   1.00
H489   H     0.58283   0.99098   0.49878   0.00000  Uiso   1.00
H490   H     0.35920   0.94051   0.79789   0.00000  Uiso   1.00
H491   H     0.60295   0.69987   0.54551   0.00000  Uiso   1.00
H492   H     0.71795   0.64192   0.58341   0.00000  Uiso   1.00
H493   H     0.59897   0.73145   0.44909   0.00000  Uiso   1.00
H494   H     0.49292   0.70751   0.59094   0.00000  Uiso   1.00
H495   H     0.84392   0.60724   0.64601   0.00000  Uiso   1.00
H496   H     0.59300   0.79601   0.36280   0.00000  Uiso   1.00
H497   H     0.36937   0.74553   0.66191   0.00000  Uiso   1.00
O498   O     0.91428   0.67072   0.74178   0.00000  Uiso   1.00
O499   O     0.58507   0.91838   0.37022   0.00000  Uiso   1.00
O500   O     0.29168   0.85216   0.76265   0.00000  Uiso   1.00
N501   N     0.82035   0.76428   0.74480   0.00000  Uiso   1.00
N502   N     0.58577   0.94076   0.48001   0.00000  Uiso   1.00
N503   N     0.37669   0.89358   0.75964   0.00000  Uiso   1.00
N504   N     0.82583   0.65936   0.67163   0.00000  Uiso   1.00
N505   N     0.59125   0.83584   0.40684   0.00000  Uiso   1.00
N506   N     0.38216   0.78867   0.68647   0.00000  Uiso   1.00
C507   C     0.74451   0.71117   0.02190   0.00000  Uiso   1.00
C508   C     0.73314   0.77243   0.00596   0.00000  Uiso   1.00
C509   C     0.71321   0.77429   0.94668   0.00000  Uiso   1.00
C510   C     0.70560   0.83517   0.94186   0.00000  Uiso   1.00
C511   C     0.68617   0.92163   0.90911   0.00000  Uiso   1.00
C512   C     0.81637   0.69332   0.04426   0.00000  Uiso   1.00
C513   C     0.86640   0.62866   0.01718   0.00000  Uiso   1.00
C514   C     0.92885   0.62294   0.04460   0.00000  Uiso   1.00
C515   C     0.03862   0.58656   0.07133   0.00000  Uiso   1.00
C516   C     0.69905   0.73958   0.08185   0.00000  Uiso   1.00
C517   C     0.65045   0.71380   0.08639   0.00000  Uiso   1.00
C518   C     0.61413   0.74702   0.14546   0.00000  Uiso   1.00
C519   C     0.54174   0.78246   0.23055   0.00000  Uiso   1.00
C520   C     0.76644   0.81598   0.11875   0.00000  Uiso   1.00
C521   C     0.74506   0.82936   0.05857   0.00000  Uiso   1.00
C522   C     0.73747   0.89026   0.05384   0.00000  Uiso   1.00
C523   C     0.71753   0.89221   0.99456   0.00000  Uiso   1.00
C524   C     0.82828   0.75025   0.09686   0.00000  Uiso   1.00
C525   C     0.89067   0.74462   0.12433   0.00000  Uiso   1.00
C526   C     0.94079   0.67997   0.09730   0.00000  Uiso   1.00
C527   C     0.71096   0.79651   0.13445   0.00000  Uiso   1.00
C528   C     0.67472   0.82977   0.19354   0.00000  Uiso   1.00
C529   C     0.62607   0.80405   0.19816   0.00000  Uiso   1.00
H530   H     0.73524   0.66685   0.98094   0.00000  Uiso   1.00
H531   H     0.70400   0.73022   0.90598   0.00000  Uiso   1.00
H532   H     0.85717   0.58461   0.97647   0.00000  Uiso   1.00
H533   H     0.64125   0.66975   0.04567   0.00000  Uiso   1.00
H534   H     0.67465   0.82559   0.84607   0.00000  Uiso   1.00
H535   H     0.99760   0.51855   0.99471   0.00000  Uiso   1.00
H536   H     0.54229   0.69807   0.14062   0.00000  Uiso   1.00
H537   H     0.77572   0.86030   0.15971   0.00000  Uiso   1.00
H538   H     0.74670   0.93430   0.09456   0.00000  Uiso   1.00
H539   H     0.89987   0.78869   0.16505   0.00000  Uiso   1.00
H540   H     0.68395   0.87382   0.23424   0.00000  Uiso   1.00
H541   H     0.70930   0.99122   0.99912   0.00000  Uiso   1.00
H542   H     0.03226   0.68419   0.14777   0.00000  Uiso   1.00
H543   H     0.57695   0.86371   0.29367   0.00000  Uiso   1.00
O544   O     0.67218   0.95358   0.87650   0.00000  Uiso   1.00
O545   O     0.09588   0.55076   0.07153   0.00000  Uiso   1.00
O546   O     0.49852   0.78629   0.26295   0.00000  Uiso   1.00
N547   N     0.68677   0.85442   0.89103   0.00000  Uiso   1.00
N548   N     0.98872   0.56736   0.03000   0.00000  Uiso   1.00
N549   N     0.56305   0.73519   0.16642   0.00000  Uiso   1.00
N550   N     0.70542   0.94355   0.97339   0.00000  Uiso   1.00
N551   N     0.00737   0.65649   0.11236   0.00000  Uiso   1.00
N552   N     0.58170   0.82431   0.24877   0.00000  Uiso   1.00
