data_job_02964
_audit_creation_date              2018-12-19
_audit_creation_method            'Materials Studio'
_symmetry_space_group_name_H-M    'P1'
_symmetry_Int_Tables_number       1
_symmetry_cell_setting            triclinic
loop_
_symmetry_equiv_pos_as_xyz
  x,y,z
_cell_length_a                    12.5964
_cell_length_b                    11.5894
_cell_length_c                    18.9601
_cell_angle_alpha                 90.0000
_cell_angle_beta                  90.0000
_cell_angle_gamma                 90.0000
loop_
_atom_site_label
_atom_site_type_symbol
_atom_site_fract_x
_atom_site_fract_y
_atom_site_fract_z
_atom_site_U_iso_or_equiv
_atom_site_adp_type
_atom_site_occupancy
C1     C     0.55670   0.15737   0.62345   0.00000  Uiso   1.00
C2     C     0.63928   0.06761   0.60226   0.00000  Uiso   1.00
C3     C     0.73444   0.04666   0.63685   0.00000  Uiso   1.00
C4     C     0.79915   0.96089   0.60919   0.00000  Uiso   1.00
C5     C     0.93188   0.83107   0.58541   0.00000  Uiso   1.00
C6     C     0.54071   0.23401   0.55894   0.00000  Uiso   1.00
C7     C     0.55299   0.35298   0.55712   0.00000  Uiso   1.00
C8     C     0.53470   0.40729   0.49298   0.00000  Uiso   1.00
C9     C     0.51433   0.53583   0.40197   0.00000  Uiso   1.00
C10    C     0.45290   0.09162   0.63331   0.00000  Uiso   1.00
C11    C     0.39132   0.09088   0.69401   0.00000  Uiso   1.00
C12    C     0.29909   0.02533   0.69248   0.00000  Uiso   1.00
C13    C     0.14238   0.93277   0.71694   0.00000  Uiso   1.00
C14    C     0.50239   0.04228   0.51281   0.00000  Uiso   1.00
C15    C     0.60978   0.00510   0.54217   0.00000  Uiso   1.00
C16    C     0.67435   0.91933   0.51444   0.00000  Uiso   1.00
C17    C     0.76959   0.89827   0.54898   0.00000  Uiso   1.00
C18    C     0.51121   0.17151   0.49885   0.00000  Uiso   1.00
C19    C     0.49290   0.22566   0.43471   0.00000  Uiso   1.00
C20    C     0.50515   0.34467   0.43278   0.00000  Uiso   1.00
C21    C     0.42340   0.02911   0.57322   0.00000  Uiso   1.00
C22    C     0.33124   0.96355   0.57160   0.00000  Uiso   1.00
C23    C     0.26954   0.96271   0.63228   0.00000  Uiso   1.00
H24    H     0.57967   0.20604   0.67023   0.00000  Uiso   1.00
H25    H     0.75725   0.09507   0.68336   0.00000  Uiso   1.00
H26    H     0.57581   0.40134   0.60363   0.00000  Uiso   1.00
H27    H     0.41418   0.13927   0.74050   0.00000  Uiso   1.00
H28    H     0.94114   0.94449   0.67138   0.00000  Uiso   1.00
H29    H     0.55853   0.59028   0.50329   0.00000  Uiso   1.00
H30    H     0.21769   0.03767   0.79191   0.00000  Uiso   1.00
H31    H     0.47942   0.99362   0.46602   0.00000  Uiso   1.00
H32    H     0.65150   0.87098   0.46793   0.00000  Uiso   1.00
H33    H     0.47006   0.17725   0.38821   0.00000  Uiso   1.00
H34    H     0.30843   0.91519   0.52508   0.00000  Uiso   1.00
H35    H     0.85531   0.76262   0.49654   0.00000  Uiso   1.00
H36    H     0.47270   0.40842   0.32845   0.00000  Uiso   1.00
H37    H     0.13186   0.85579   0.61707   0.00000  Uiso   1.00
O38    O     0.01325   0.77674   0.58889   0.00000  Uiso   1.00
O39    O     0.51126   0.62400   0.36837   0.00000  Uiso   1.00
O40    O     0.06410   0.89897   0.74703   0.00000  Uiso   1.00
N41    N     0.89731   0.91850   0.62998   0.00000  Uiso   1.00
N42    N     0.53961   0.52228   0.47282   0.00000  Uiso   1.00
N43    N     0.22094   0.00565   0.74265   0.00000  Uiso   1.00
N44    N     0.85113   0.82064   0.53590   0.00000  Uiso   1.00
N45    N     0.49343   0.42441   0.37874   0.00000  Uiso   1.00
N46    N     0.17476   0.90779   0.64857   0.00000  Uiso   1.00
C47    C     0.44330   0.84263   0.12345   0.00000  Uiso   1.00
C48    C     0.36072   0.93239   0.10226   0.00000  Uiso   1.00
C49    C     0.26556   0.95334   0.13685   0.00000  Uiso   1.00
C50    C     0.20085   0.03911   0.10919   0.00000  Uiso   1.00
C51    C     0.06812   0.16893   0.08541   0.00000  Uiso   1.00
C52    C     0.45929   0.76599   0.05894   0.00000  Uiso   1.00
C53    C     0.44701   0.64702   0.05712   0.00000  Uiso   1.00
C54    C     0.46530   0.59271   0.99298   0.00000  Uiso   1.00
C55    C     0.48567   0.46417   0.90197   0.00000  Uiso   1.00
C56    C     0.54710   0.90838   0.13331   0.00000  Uiso   1.00
C57    C     0.60868   0.90912   0.19401   0.00000  Uiso   1.00
C58    C     0.70091   0.97467   0.19248   0.00000  Uiso   1.00
C59    C     0.85762   0.06723   0.21694   0.00000  Uiso   1.00
C60    C     0.49761   0.95772   0.01281   0.00000  Uiso   1.00
C61    C     0.39022   0.99490   0.04217   0.00000  Uiso   1.00
C62    C     0.32565   0.08067   0.01444   0.00000  Uiso   1.00
C63    C     0.23041   0.10173   0.04898   0.00000  Uiso   1.00
C64    C     0.48879   0.82849   0.99885   0.00000  Uiso   1.00
C65    C     0.50710   0.77434   0.93471   0.00000  Uiso   1.00
C66    C     0.49485   0.65533   0.93278   0.00000  Uiso   1.00
C67    C     0.57660   0.97089   0.07322   0.00000  Uiso   1.00
C68    C     0.66876   0.03645   0.07160   0.00000  Uiso   1.00
C69    C     0.73046   0.03729   0.13228   0.00000  Uiso   1.00
H70    H     0.42033   0.79396   0.17023   0.00000  Uiso   1.00
H71    H     0.24275   0.90493   0.18336   0.00000  Uiso   1.00
H72    H     0.42419   0.59866   0.10363   0.00000  Uiso   1.00
H73    H     0.58582   0.86073   0.24050   0.00000  Uiso   1.00
H74    H     0.05886   0.05551   0.17138   0.00000  Uiso   1.00
H75    H     0.44147   0.40972   0.00329   0.00000  Uiso   1.00
H76    H     0.78231   0.96233   0.29191   0.00000  Uiso   1.00
H77    H     0.52058   0.00638   0.96602   0.00000  Uiso   1.00
H78    H     0.34850   0.12902   0.96793   0.00000  Uiso   1.00
H79    H     0.52994   0.82275   0.88821   0.00000  Uiso   1.00
H80    H     0.69157   0.08481   0.02508   0.00000  Uiso   1.00
H81    H     0.14469   0.23738   0.99654   0.00000  Uiso   1.00
H82    H     0.52730   0.59158   0.82845   0.00000  Uiso   1.00
H83    H     0.86814   0.14421   0.11707   0.00000  Uiso   1.00
O84    O     0.98675   0.22326   0.08889   0.00000  Uiso   1.00
O85    O     0.48874   0.37600   0.86837   0.00000  Uiso   1.00
O86    O     0.93590   0.10103   0.24703   0.00000  Uiso   1.00
N87    N     0.10269   0.08150   0.12998   0.00000  Uiso   1.00
N88    N     0.46039   0.47772   0.97282   0.00000  Uiso   1.00
N89    N     0.77906   0.99435   0.24265   0.00000  Uiso   1.00
N90    N     0.14887   0.17936   0.03590   0.00000  Uiso   1.00
N91    N     0.50657   0.57559   0.87874   0.00000  Uiso   1.00
N92    N     0.82524   0.09221   0.14857   0.00000  Uiso   1.00
C93    C     0.05670   0.34263   0.62345   0.00000  Uiso   1.00
C94    C     0.13928   0.43239   0.60226   0.00000  Uiso   1.00
C95    C     0.23444   0.45334   0.63685   0.00000  Uiso   1.00
C96    C     0.29915   0.53911   0.60919   0.00000  Uiso   1.00
C97    C     0.43188   0.66893   0.58541   0.00000  Uiso   1.00
C98    C     0.04071   0.26599   0.55894   0.00000  Uiso   1.00
C99    C     0.05299   0.14702   0.55712   0.00000  Uiso   1.00
C100   C     0.03470   0.09271   0.49298   0.00000  Uiso   1.00
C101   C     0.01433   0.96417   0.40197   0.00000  Uiso   1.00
C102   C     0.95290   0.40838   0.63331   0.00000  Uiso   1.00
C103   C     0.89132   0.40912   0.69401   0.00000  Uiso   1.00
C104   C     0.79909   0.47467   0.69248   0.00000  Uiso   1.00
C105   C     0.64238   0.56723   0.71694   0.00000  Uiso   1.00
C106   C     0.00239   0.45772   0.51281   0.00000  Uiso   1.00
C107   C     0.10978   0.49490   0.54217   0.00000  Uiso   1.00
C108   C     0.17435   0.58067   0.51444   0.00000  Uiso   1.00
C109   C     0.26959   0.60173   0.54898   0.00000  Uiso   1.00
C110   C     0.01121   0.32849   0.49885   0.00000  Uiso   1.00
C111   C     0.99290   0.27434   0.43471   0.00000  Uiso   1.00
C112   C     0.00515   0.15533   0.43278   0.00000  Uiso   1.00
C113   C     0.92340   0.47089   0.57322   0.00000  Uiso   1.00
C114   C     0.83124   0.53645   0.57160   0.00000  Uiso   1.00
C115   C     0.76954   0.53729   0.63228   0.00000  Uiso   1.00
H116   H     0.07967   0.29396   0.67023   0.00000  Uiso   1.00
H117   H     0.25725   0.40493   0.68336   0.00000  Uiso   1.00
H118   H     0.07581   0.09866   0.60363   0.00000  Uiso   1.00
H119   H     0.91418   0.36073   0.74050   0.00000  Uiso   1.00
H120   H     0.44114   0.55551   0.67138   0.00000  Uiso   1.00
H121   H     0.05853   0.90972   0.50329   0.00000  Uiso   1.00
H122   H     0.71769   0.46233   0.79191   0.00000  Uiso   1.00
H123   H     0.97942   0.50638   0.46602   0.00000  Uiso   1.00
H124   H     0.15150   0.62902   0.46793   0.00000  Uiso   1.00
H125   H     0.97006   0.32275   0.38821   0.00000  Uiso   1.00
H126   H     0.80843   0.58481   0.52508   0.00000  Uiso   1.00
H127   H     0.35531   0.73738   0.49654   0.00000  Uiso   1.00
H128   H     0.97270   0.09158   0.32845   0.00000  Uiso   1.00
H129   H     0.63186   0.64421   0.61707   0.00000  Uiso   1.00
O130   O     0.51325   0.72326   0.58889   0.00000  Uiso   1.00
O131   O     0.01126   0.87600   0.36837   0.00000  Uiso   1.00
O132   O     0.56410   0.60103   0.74703   0.00000  Uiso   1.00
N133   N     0.39731   0.58150   0.62998   0.00000  Uiso   1.00
N134   N     0.03961   0.97772   0.47282   0.00000  Uiso   1.00
N135   N     0.72094   0.49435   0.74265   0.00000  Uiso   1.00
N136   N     0.35113   0.67936   0.53590   0.00000  Uiso   1.00
N137   N     0.99343   0.07559   0.37874   0.00000  Uiso   1.00
N138   N     0.67476   0.59221   0.64857   0.00000  Uiso   1.00
C139   C     0.94330   0.65737   0.12345   0.00000  Uiso   1.00
C140   C     0.86072   0.56761   0.10226   0.00000  Uiso   1.00
C141   C     0.76556   0.54666   0.13685   0.00000  Uiso   1.00
C142   C     0.70085   0.46089   0.10919   0.00000  Uiso   1.00
C143   C     0.56812   0.33107   0.08541   0.00000  Uiso   1.00
C144   C     0.95929   0.73401   0.05894   0.00000  Uiso   1.00
C145   C     0.94701   0.85298   0.05712   0.00000  Uiso   1.00
C146   C     0.96530   0.90729   0.99298   0.00000  Uiso   1.00
C147   C     0.98567   0.03583   0.90197   0.00000  Uiso   1.00
C148   C     0.04710   0.59162   0.13331   0.00000  Uiso   1.00
C149   C     0.10868   0.59088   0.19401   0.00000  Uiso   1.00
C150   C     0.20091   0.52533   0.19248   0.00000  Uiso   1.00
C151   C     0.35762   0.43277   0.21694   0.00000  Uiso   1.00
C152   C     0.99761   0.54228   0.01281   0.00000  Uiso   1.00
C153   C     0.89022   0.50510   0.04217   0.00000  Uiso   1.00
C154   C     0.82565   0.41933   0.01444   0.00000  Uiso   1.00
C155   C     0.73041   0.39827   0.04898   0.00000  Uiso   1.00
C156   C     0.98879   0.67151   0.99885   0.00000  Uiso   1.00
C157   C     0.00710   0.72566   0.93471   0.00000  Uiso   1.00
C158   C     0.99485   0.84467   0.93278   0.00000  Uiso   1.00
C159   C     0.07660   0.52911   0.07322   0.00000  Uiso   1.00
C160   C     0.16876   0.46355   0.07160   0.00000  Uiso   1.00
C161   C     0.23046   0.46271   0.13228   0.00000  Uiso   1.00
H162   H     0.92033   0.70604   0.17023   0.00000  Uiso   1.00
H163   H     0.74275   0.59507   0.18336   0.00000  Uiso   1.00
H164   H     0.92419   0.90134   0.10363   0.00000  Uiso   1.00
H165   H     0.08582   0.63927   0.24050   0.00000  Uiso   1.00
H166   H     0.55886   0.44449   0.17138   0.00000  Uiso   1.00
H167   H     0.94147   0.09028   0.00329   0.00000  Uiso   1.00
H168   H     0.28231   0.53767   0.29191   0.00000  Uiso   1.00
H169   H     0.02058   0.49362   0.96602   0.00000  Uiso   1.00
H170   H     0.84850   0.37098   0.96793   0.00000  Uiso   1.00
H171   H     0.02994   0.67725   0.88821   0.00000  Uiso   1.00
H172   H     0.19157   0.41519   0.02508   0.00000  Uiso   1.00
H173   H     0.64469   0.26262   0.99654   0.00000  Uiso   1.00
H174   H     0.02730   0.90842   0.82845   0.00000  Uiso   1.00
H175   H     0.36814   0.35579   0.11707   0.00000  Uiso   1.00
O176   O     0.48675   0.27674   0.08889   0.00000  Uiso   1.00
O177   O     0.98874   0.12400   0.86837   0.00000  Uiso   1.00
O178   O     0.43590   0.39897   0.24703   0.00000  Uiso   1.00
N179   N     0.60269   0.41850   0.12998   0.00000  Uiso   1.00
N180   N     0.96039   0.02228   0.97282   0.00000  Uiso   1.00
N181   N     0.27906   0.50565   0.24265   0.00000  Uiso   1.00
N182   N     0.64887   0.32064   0.03590   0.00000  Uiso   1.00
N183   N     0.00657   0.92441   0.87874   0.00000  Uiso   1.00
N184   N     0.32524   0.40779   0.14857   0.00000  Uiso   1.00
