data_job_06092
_audit_creation_date              2018-12-19
_audit_creation_method            'Materials Studio'
_symmetry_space_group_name_H-M    'P1'
_symmetry_Int_Tables_number       1
_symmetry_cell_setting            triclinic
loop_
_symmetry_equiv_pos_as_xyz
  x,y,z
_cell_length_a                    7.3362
_cell_length_b                    24.9277
_cell_length_c                    25.2292
_cell_angle_alpha                 119.0140
_cell_angle_beta                  82.9859
_cell_angle_gamma                 87.3972
loop_
_atom_site_label
_atom_site_type_symbol
_atom_site_fract_x
_atom_site_fract_y
_atom_site_fract_z
_atom_site_U_iso_or_equiv
_atom_site_adp_type
_atom_site_occupancy
C1     C     0.62610   0.23789   0.34082   0.00000  Uiso   1.00
C2     C     0.65426   0.29626   0.39852   0.00000  Uiso   1.00
C3     C     0.53051   0.34985   0.43082   0.00000  Uiso   1.00
C4     C     0.58186   0.39816   0.48243   0.00000  Uiso   1.00
C5     C     0.59990   0.48960   0.56919   0.00000  Uiso   1.00
C6     C     0.79212   0.22542   0.29198   0.00000  Uiso   1.00
C7     C     0.78426   0.21944   0.23470   0.00000  Uiso   1.00
C8     C     0.95167   0.20810   0.19663   0.00000  Uiso   1.00
C9     C     0.18374   0.18951   0.11797   0.00000  Uiso   1.00
C10    C     0.64525   0.18546   0.35540   0.00000  Uiso   1.00
C11    C     0.51394   0.14587   0.35142   0.00000  Uiso   1.00
C12    C     0.55772   0.10088   0.36673   0.00000  Uiso   1.00
C13    C     0.56175   0.02025   0.38653   0.00000  Uiso   1.00
C14    C     0.93737   0.22838   0.37505   0.00000  Uiso   1.00
C15    C     0.82333   0.29110   0.41712   0.00000  Uiso   1.00
C16    C     0.87489   0.33933   0.46870   0.00000  Uiso   1.00
C17    C     0.75123   0.39298   0.50107   0.00000  Uiso   1.00
C18    C     0.96118   0.22026   0.31058   0.00000  Uiso   1.00
C19    C     0.12864   0.20892   0.27258   0.00000  Uiso   1.00
C20    C     0.12105   0.20293   0.21526   0.00000  Uiso   1.00
C21    C     0.81432   0.18030   0.37400   0.00000  Uiso   1.00
C22    C     0.85832   0.13536   0.38931   0.00000  Uiso   1.00
C23    C     0.72709   0.09570   0.38536   0.00000  Uiso   1.00
H24    H     0.49448   0.24190   0.32633   0.00000  Uiso   1.00
H25    H     0.39968   0.35383   0.41641   0.00000  Uiso   1.00
H26    H     0.65341   0.22343   0.22032   0.00000  Uiso   1.00
H27    H     0.38312   0.14988   0.33703   0.00000  Uiso   1.00
H28    H     0.36918   0.47565   0.52446   0.00000  Uiso   1.00
H29    H     0.90415   0.20068   0.11099   0.00000  Uiso   1.00
H30    H     0.33420   0.04557   0.35709   0.00000  Uiso   1.00
H31    H     0.06901   0.22436   0.38953   0.00000  Uiso   1.00
H32    H     0.00573   0.33533   0.48308   0.00000  Uiso   1.00
H33    H     0.25945   0.20493   0.28699   0.00000  Uiso   1.00
H34    H     0.98917   0.13137   0.40370   0.00000  Uiso   1.00
H35    H     0.86107   0.46063   0.57857   0.00000  Uiso   1.00
H36    H     0.39605   0.18566   0.16510   0.00000  Uiso   1.00
H37    H     0.82610   0.03055   0.41120   0.00000  Uiso   1.00
O38    O     0.56316   0.54146   0.61190   0.00000  Uiso   1.00
O39    O     0.26503   0.18070   0.06944   0.00000  Uiso   1.00
O40    O     0.51726   0.97721   0.39232   0.00000  Uiso   1.00
N41    N     0.49361   0.45688   0.52436   0.00000  Uiso   1.00
N42    N     0.99378   0.19981   0.13780   0.00000  Uiso   1.00
N43    N     0.46095   0.05479   0.36787   0.00000  Uiso   1.00
N44    N     0.75829   0.44880   0.55348   0.00000  Uiso   1.00
N45    N     0.25847   0.19173   0.16692   0.00000  Uiso   1.00
N46    N     0.72563   0.04671   0.39698   0.00000  Uiso   1.00
C47    C     0.95220   0.65765   0.89687   0.00000  Uiso   1.00
C48    C     0.03175   0.60006   0.89686   0.00000  Uiso   1.00
C49    C     0.93447   0.56642   0.91877   0.00000  Uiso   1.00
C50    C     0.03223   0.51517   0.91467   0.00000  Uiso   1.00
C51    C     0.12714   0.42834   0.91851   0.00000  Uiso   1.00
C52    C     0.07102   0.70802   0.93174   0.00000  Uiso   1.00
C53    C     0.00673   0.76516   0.98297   0.00000  Uiso   1.00
C54    C     0.13754   0.80480   0.00822   0.00000  Uiso   1.00
C55    C     0.29338   0.88560   0.06619   0.00000  Uiso   1.00
C56    C     0.99137   0.64349   0.83030   0.00000  Uiso   1.00
C57    C     0.86013   0.64639   0.79625   0.00000  Uiso   1.00
C58    C     0.92389   0.63171   0.73611   0.00000  Uiso   1.00
C59    C     0.95607   0.61233   0.63658   0.00000  Uiso   1.00
C60    C     0.29881   0.62645   0.85061   0.00000  Uiso   1.00
C61    C     0.22003   0.58311   0.87173   0.00000  Uiso   1.00
C62    C     0.31796   0.53190   0.86759   0.00000  Uiso   1.00
C63    C     0.22083   0.49819   0.88950   0.00000  Uiso   1.00
C64    C     0.25927   0.69108   0.90661   0.00000  Uiso   1.00
C65    C     0.39021   0.73064   0.93179   0.00000  Uiso   1.00
C66    C     0.32615   0.78782   0.98305   0.00000  Uiso   1.00
C67    C     0.17964   0.62655   0.80518   0.00000  Uiso   1.00
C68    C     0.24362   0.61187   0.74507   0.00000  Uiso   1.00
C69    C     0.11250   0.61474   0.71094   0.00000  Uiso   1.00
H70    H     0.80563   0.67085   0.91643   0.00000  Uiso   1.00
H71    H     0.78878   0.57955   0.93822   0.00000  Uiso   1.00
H72    H     0.86103   0.77826   0.00240   0.00000  Uiso   1.00
H73    H     0.71445   0.65951   0.81571   0.00000  Uiso   1.00
H74    H     0.85314   0.47087   0.95132   0.00000  Uiso   1.00
H75    H     0.00546   0.88988   0.08664   0.00000  Uiso   1.00
H76    H     0.69638   0.63946   0.69297   0.00000  Uiso   1.00
H77    H     0.44539   0.61326   0.83104   0.00000  Uiso   1.00
H78    H     0.46365   0.51879   0.84815   0.00000  Uiso   1.00
H79    H     0.53589   0.71751   0.91233   0.00000  Uiso   1.00
H80    H     0.38932   0.59876   0.72564   0.00000  Uiso   1.00
H81    H     0.40089   0.42156   0.87822   0.00000  Uiso   1.00
H82    H     0.55321   0.84057   0.01354   0.00000  Uiso   1.00
H83    H     0.24413   0.59015   0.61986   0.00000  Uiso   1.00
O84    O     0.12749   0.38513   0.92758   0.00000  Uiso   1.00
O85    O     0.32732   0.93485   0.10511   0.00000  Uiso   1.00
O86    O     0.92182   0.60631   0.58862   0.00000  Uiso   1.00
N87    N     0.97954   0.47222   0.93176   0.00000  Uiso   1.00
N88    N     0.12195   0.86397   0.05828   0.00000  Uiso   1.00
N89    N     0.83299   0.62986   0.69023   0.00000  Uiso   1.00
N90    N     0.27427   0.44569   0.89242   0.00000  Uiso   1.00
N91    N     0.41669   0.83743   0.01894   0.00000  Uiso   1.00
N92    N     0.12773   0.60333   0.65090   0.00000  Uiso   1.00
C93    C     0.85166   0.10242   0.76227   0.00000  Uiso   1.00
C94    C     0.93729   0.10343   0.70461   0.00000  Uiso   1.00
C95    C     0.86527   0.08077   0.65035   0.00000  Uiso   1.00
C96    C     0.96438   0.08601   0.60288   0.00000  Uiso   1.00
C97    C     0.07226   0.08344   0.51232   0.00000  Uiso   1.00
C98    C     0.00004   0.06852   0.77631   0.00000  Uiso   1.00
C99    C     0.98076   0.01652   0.78234   0.00000  Uiso   1.00
C100   C     0.13268   0.99238   0.79524   0.00000  Uiso   1.00
C101   C     0.33793   0.93564   0.81604   0.00000  Uiso   1.00
C102   C     0.82604   0.16931   0.81426   0.00000  Uiso   1.00
C103   C     0.66048   0.20205   0.85221   0.00000  Uiso   1.00
C104   C     0.66592   0.26276   0.89707   0.00000  Uiso   1.00
C105   C     0.60103   0.36251   0.97679   0.00000  Uiso   1.00
C106   C     0.15573   0.15202   0.77446   0.00000  Uiso   1.00
C107   C     0.10245   0.13036   0.71123   0.00000  Uiso   1.00
C108   C     0.20169   0.13564   0.66383   0.00000  Uiso   1.00
C109   C     0.12983   0.11300   0.60951   0.00000  Uiso   1.00
C110   C     0.16519   0.09545   0.78293   0.00000  Uiso   1.00
C111   C     0.31718   0.07139   0.79583   0.00000  Uiso   1.00
C112   C     0.29814   0.01936   0.80187   0.00000  Uiso   1.00
C113   C     0.99120   0.19624   0.82088   0.00000  Uiso   1.00
C114   C     0.99691   0.25692   0.86569   0.00000  Uiso   1.00
C115   C     0.83138   0.28974   0.90370   0.00000  Uiso   1.00
H116   H     0.72308   0.08145   0.75712   0.00000  Uiso   1.00
H117   H     0.73746   0.05992   0.64524   0.00000  Uiso   1.00
H118   H     0.85292   0.99569   0.77722   0.00000  Uiso   1.00
H119   H     0.53270   0.18119   0.84708   0.00000  Uiso   1.00
H120   H     0.82627   0.04792   0.52411   0.00000  Uiso   1.00
H121   H     0.06971   0.91248   0.80242   0.00000  Uiso   1.00
H122   H     0.39445   0.30365   0.94972   0.00000  Uiso   1.00
H123   H     0.28432   0.17299   0.77962   0.00000  Uiso   1.00
H124   H     0.32950   0.15649   0.66897   0.00000  Uiso   1.00
H125   H     0.44496   0.09224   0.80095   0.00000  Uiso   1.00
H126   H     0.12474   0.27775   0.87080   0.00000  Uiso   1.00
H127   H     0.30680   0.12629   0.54336   0.00000  Uiso   1.00
H128   H     0.55023   0.99085   0.82168   0.00000  Uiso   1.00
H129   H     0.87498   0.38201   0.96898   0.00000  Uiso   1.00
O130   O     0.08616   0.07457   0.46053   0.00000  Uiso   1.00
O131   O     0.40552   0.89689   0.82568   0.00000  Uiso   1.00
O132   O     0.51960   0.41010   0.01893   0.00000  Uiso   1.00
N133   N     0.93314   0.06864   0.54383   0.00000  Uiso   1.00
N134   N     0.16075   0.94201   0.80402   0.00000  Uiso   1.00
N135   N     0.52945   0.30771   0.94175   0.00000  Uiso   1.00
N136   N     0.19171   0.11081   0.55419   0.00000  Uiso   1.00
N137   N     0.41932   0.98418   0.81439   0.00000  Uiso   1.00
N138   N     0.78802   0.34988   0.95211   0.00000  Uiso   1.00
C139   C     0.37390   0.76211   0.65918   0.00000  Uiso   1.00
C140   C     0.34574   0.70374   0.60148   0.00000  Uiso   1.00
C141   C     0.46949   0.65015   0.56918   0.00000  Uiso   1.00
C142   C     0.41814   0.60184   0.51757   0.00000  Uiso   1.00
C143   C     0.40010   0.51040   0.43081   0.00000  Uiso   1.00
C144   C     0.20788   0.77458   0.70802   0.00000  Uiso   1.00
C145   C     0.21574   0.78056   0.76530   0.00000  Uiso   1.00
C146   C     0.04833   0.79190   0.80337   0.00000  Uiso   1.00
C147   C     0.81626   0.81049   0.88203   0.00000  Uiso   1.00
C148   C     0.35475   0.81454   0.64460   0.00000  Uiso   1.00
C149   C     0.48606   0.85413   0.64858   0.00000  Uiso   1.00
C150   C     0.44228   0.89912   0.63327   0.00000  Uiso   1.00
C151   C     0.43825   0.97975   0.61347   0.00000  Uiso   1.00
C152   C     0.06263   0.77162   0.62495   0.00000  Uiso   1.00
C153   C     0.17667   0.70890   0.58288   0.00000  Uiso   1.00
C154   C     0.12511   0.66067   0.53130   0.00000  Uiso   1.00
C155   C     0.24877   0.60702   0.49893   0.00000  Uiso   1.00
C156   C     0.03882   0.77974   0.68942   0.00000  Uiso   1.00
C157   C     0.87136   0.79108   0.72742   0.00000  Uiso   1.00
C158   C     0.87895   0.79707   0.78474   0.00000  Uiso   1.00
C159   C     0.18568   0.81970   0.62600   0.00000  Uiso   1.00
C160   C     0.14168   0.86464   0.61069   0.00000  Uiso   1.00
C161   C     0.27291   0.90430   0.61464   0.00000  Uiso   1.00
H162   H     0.50552   0.75810   0.67367   0.00000  Uiso   1.00
H163   H     0.60032   0.64617   0.58359   0.00000  Uiso   1.00
H164   H     0.34659   0.77657   0.77968   0.00000  Uiso   1.00
H165   H     0.61688   0.85012   0.66297   0.00000  Uiso   1.00
H166   H     0.63083   0.52435   0.47554   0.00000  Uiso   1.00
H167   H     0.09585   0.79932   0.88901   0.00000  Uiso   1.00
H168   H     0.66580   0.95443   0.64291   0.00000  Uiso   1.00
H169   H     0.93099   0.77564   0.61047   0.00000  Uiso   1.00
H170   H     0.99427   0.66467   0.51692   0.00000  Uiso   1.00
H171   H     0.74055   0.79507   0.71301   0.00000  Uiso   1.00
H172   H     0.01083   0.86863   0.59630   0.00000  Uiso   1.00
H173   H     0.13893   0.53937   0.42143   0.00000  Uiso   1.00
H174   H     0.60395   0.81434   0.83490   0.00000  Uiso   1.00
H175   H     0.17390   0.96945   0.58880   0.00000  Uiso   1.00
O176   O     0.43684   0.45854   0.38810   0.00000  Uiso   1.00
O177   O     0.73498   0.81930   0.93056   0.00000  Uiso   1.00
O178   O     0.48274   0.02279   0.60768   0.00000  Uiso   1.00
N179   N     0.50639   0.54312   0.47564   0.00000  Uiso   1.00
N180   N     0.00622   0.80019   0.86220   0.00000  Uiso   1.00
N181   N     0.53905   0.94521   0.63213   0.00000  Uiso   1.00
N182   N     0.24171   0.55120   0.44652   0.00000  Uiso   1.00
N183   N     0.74153   0.80827   0.83308   0.00000  Uiso   1.00
N184   N     0.27437   0.95329   0.60302   0.00000  Uiso   1.00
C185   C     0.04780   0.34235   0.10313   0.00000  Uiso   1.00
C186   C     0.96825   0.39994   0.10314   0.00000  Uiso   1.00
C187   C     0.06553   0.43358   0.08123   0.00000  Uiso   1.00
C188   C     0.96777   0.48483   0.08533   0.00000  Uiso   1.00
C189   C     0.87286   0.57166   0.08149   0.00000  Uiso   1.00
C190   C     0.92899   0.29198   0.06826   0.00000  Uiso   1.00
C191   C     0.99327   0.23484   0.01703   0.00000  Uiso   1.00
C192   C     0.86246   0.19520   0.99178   0.00000  Uiso   1.00
C193   C     0.70662   0.11440   0.93381   0.00000  Uiso   1.00
C194   C     0.00863   0.35651   0.16970   0.00000  Uiso   1.00
C195   C     0.13987   0.35361   0.20375   0.00000  Uiso   1.00
C196   C     0.07611   0.36829   0.26389   0.00000  Uiso   1.00
C197   C     0.04393   0.38767   0.36342   0.00000  Uiso   1.00
C198   C     0.70119   0.37355   0.14940   0.00000  Uiso   1.00
C199   C     0.77997   0.41689   0.12827   0.00000  Uiso   1.00
C200   C     0.68204   0.46810   0.13241   0.00000  Uiso   1.00
C201   C     0.77917   0.50181   0.11050   0.00000  Uiso   1.00
C202   C     0.74073   0.30892   0.09339   0.00000  Uiso   1.00
C203   C     0.60979   0.26936   0.06821   0.00000  Uiso   1.00
C204   C     0.67386   0.21218   0.01695   0.00000  Uiso   1.00
C205   C     0.82036   0.37345   0.19482   0.00000  Uiso   1.00
C206   C     0.75638   0.38813   0.25493   0.00000  Uiso   1.00
C207   C     0.88750   0.38526   0.28906   0.00000  Uiso   1.00
H208   H     0.19437   0.32915   0.08357   0.00000  Uiso   1.00
H209   H     0.21122   0.42045   0.06178   0.00000  Uiso   1.00
H210   H     0.13897   0.22174   0.99760   0.00000  Uiso   1.00
H211   H     0.28555   0.34049   0.18429   0.00000  Uiso   1.00
H212   H     0.14686   0.52913   0.04868   0.00000  Uiso   1.00
H213   H     0.99454   0.11012   0.91336   0.00000  Uiso   1.00
H214   H     0.30362   0.36054   0.30703   0.00000  Uiso   1.00
H215   H     0.55461   0.38674   0.16896   0.00000  Uiso   1.00
H216   H     0.53635   0.48121   0.15185   0.00000  Uiso   1.00
H217   H     0.46411   0.28249   0.08767   0.00000  Uiso   1.00
H218   H     0.61068   0.40125   0.27436   0.00000  Uiso   1.00
H219   H     0.59912   0.57844   0.12178   0.00000  Uiso   1.00
H220   H     0.44679   0.15943   0.98646   0.00000  Uiso   1.00
H221   H     0.75587   0.40985   0.38014   0.00000  Uiso   1.00
O222   O     0.87251   0.61487   0.07242   0.00000  Uiso   1.00
O223   O     0.67268   0.06515   0.89489   0.00000  Uiso   1.00
O224   O     0.07818   0.39369   0.41138   0.00000  Uiso   1.00
N225   N     0.02046   0.52778   0.06824   0.00000  Uiso   1.00
N226   N     0.87805   0.13603   0.94172   0.00000  Uiso   1.00
N227   N     0.16701   0.37014   0.30977   0.00000  Uiso   1.00
N228   N     0.72573   0.55431   0.10758   0.00000  Uiso   1.00
N229   N     0.58331   0.16257   0.98106   0.00000  Uiso   1.00
N230   N     0.87227   0.39667   0.34910   0.00000  Uiso   1.00
C231   C     0.14834   0.89758   0.23773   0.00000  Uiso   1.00
C232   C     0.06271   0.89657   0.29539   0.00000  Uiso   1.00
C233   C     0.13473   0.91923   0.34965   0.00000  Uiso   1.00
C234   C     0.03562   0.91399   0.39712   0.00000  Uiso   1.00
C235   C     0.92774   0.91656   0.48768   0.00000  Uiso   1.00
C236   C     0.99996   0.93148   0.22369   0.00000  Uiso   1.00
C237   C     0.01924   0.98348   0.21766   0.00000  Uiso   1.00
C238   C     0.86732   0.00762   0.20476   0.00000  Uiso   1.00
C239   C     0.66207   0.06436   0.18396   0.00000  Uiso   1.00
C240   C     0.17396   0.83069   0.18574   0.00000  Uiso   1.00
C241   C     0.33952   0.79795   0.14779   0.00000  Uiso   1.00
C242   C     0.33408   0.73724   0.10293   0.00000  Uiso   1.00
C243   C     0.39897   0.63749   0.02321   0.00000  Uiso   1.00
C244   C     0.84427   0.84798   0.22554   0.00000  Uiso   1.00
C245   C     0.89755   0.86964   0.28877   0.00000  Uiso   1.00
C246   C     0.79831   0.86436   0.33617   0.00000  Uiso   1.00
C247   C     0.87017   0.88700   0.39049   0.00000  Uiso   1.00
C248   C     0.83481   0.90455   0.21707   0.00000  Uiso   1.00
C249   C     0.68282   0.92861   0.20418   0.00000  Uiso   1.00
C250   C     0.70186   0.98064   0.19813   0.00000  Uiso   1.00
C251   C     0.00880   0.80376   0.17912   0.00000  Uiso   1.00
C252   C     0.00309   0.74308   0.13431   0.00000  Uiso   1.00
C253   C     0.16862   0.71026   0.09630   0.00000  Uiso   1.00
H254   H     0.27692   0.91855   0.24288   0.00000  Uiso   1.00
H255   H     0.26254   0.94007   0.35476   0.00000  Uiso   1.00
H256   H     0.14708   0.00431   0.22278   0.00000  Uiso   1.00
H257   H     0.46730   0.81881   0.15293   0.00000  Uiso   1.00
H258   H     0.17373   0.95208   0.47589   0.00000  Uiso   1.00
H259   H     0.93029   0.08752   0.19758   0.00000  Uiso   1.00
H260   H     0.60555   0.69635   0.05028   0.00000  Uiso   1.00
H261   H     0.71568   0.82701   0.22038   0.00000  Uiso   1.00
H262   H     0.67050   0.84351   0.33103   0.00000  Uiso   1.00
H263   H     0.55504   0.90776   0.19905   0.00000  Uiso   1.00
H264   H     0.87526   0.72225   0.12920   0.00000  Uiso   1.00
H265   H     0.69320   0.87371   0.45664   0.00000  Uiso   1.00
H266   H     0.44977   0.00915   0.17832   0.00000  Uiso   1.00
H267   H     0.12502   0.61799   0.03102   0.00000  Uiso   1.00
O268   O     0.91384   0.92543   0.53947   0.00000  Uiso   1.00
O269   O     0.59448   0.10311   0.17432   0.00000  Uiso   1.00
O270   O     0.48040   0.58990   0.98107   0.00000  Uiso   1.00
N271   N     0.06686   0.93136   0.45617   0.00000  Uiso   1.00
N272   N     0.83925   0.05799   0.19598   0.00000  Uiso   1.00
N273   N     0.47055   0.69229   0.05825   0.00000  Uiso   1.00
N274   N     0.80829   0.88919   0.44581   0.00000  Uiso   1.00
N275   N     0.58068   0.01582   0.18561   0.00000  Uiso   1.00
N276   N     0.21198   0.65012   0.04789   0.00000  Uiso   1.00
