data_job_06875
_audit_creation_date              2018-12-19
_audit_creation_method            'Materials Studio'
_symmetry_space_group_name_H-M    'P1'
_symmetry_Int_Tables_number       1
_symmetry_cell_setting            triclinic
loop_
_symmetry_equiv_pos_as_xyz
  x,y,z
_cell_length_a                    21.2583
_cell_length_b                    21.8243
_cell_length_c                    20.8348
_cell_angle_alpha                 89.7427
_cell_angle_beta                  89.8547
_cell_angle_gamma                 90.3909
loop_
_atom_site_label
_atom_site_type_symbol
_atom_site_fract_x
_atom_site_fract_y
_atom_site_fract_z
_atom_site_U_iso_or_equiv
_atom_site_adp_type
_atom_site_occupancy
C1     C     0.40346   0.18288   0.94956   0.00000  Uiso   1.00
C2     C     0.35768   0.23028   0.97550   0.00000  Uiso   1.00
C3     C     0.35597   0.25197   0.03799   0.00000  Uiso   1.00
C4     C     0.31053   0.29527   0.05220   0.00000  Uiso   1.00
C5     C     0.24584   0.36569   0.09957   0.00000  Uiso   1.00
C6     C     0.36302   0.13148   0.92186   0.00000  Uiso   1.00
C7     C     0.36581   0.07010   0.93925   0.00000  Uiso   1.00
C8     C     0.32487   0.03023   0.90830   0.00000  Uiso   1.00
C9     C     0.26851   0.94725   0.87237   0.00000  Uiso   1.00
C10    C     0.43645   0.21314   0.89248   0.00000  Uiso   1.00
C11    C     0.50098   0.22040   0.88514   0.00000  Uiso   1.00
C12    C     0.52187   0.24928   0.82944   0.00000  Uiso   1.00
C13    C     0.57952   0.29308   0.74789   0.00000  Uiso   1.00
C14    C     0.32580   0.22122   0.86368   0.00000  Uiso   1.00
C15    C     0.31550   0.25110   0.92885   0.00000  Uiso   1.00
C16    C     0.27005   0.29439   0.94297   0.00000  Uiso   1.00
C17    C     0.26827   0.31614   0.00547   0.00000  Uiso   1.00
C18    C     0.32084   0.15230   0.87522   0.00000  Uiso   1.00
C19    C     0.27989   0.11252   0.84423   0.00000  Uiso   1.00
C20    C     0.28261   0.05109   0.86157   0.00000  Uiso   1.00
C21    C     0.39427   0.23397   0.84583   0.00000  Uiso   1.00
C22    C     0.41506   0.26283   0.79013   0.00000  Uiso   1.00
C23    C     0.47961   0.27014   0.78271   0.00000  Uiso   1.00
H24    H     0.43630   0.16666   0.98588   0.00000  Uiso   1.00
H25    H     0.38862   0.23584   0.07407   0.00000  Uiso   1.00
H26    H     0.39846   0.05400   0.97535   0.00000  Uiso   1.00
H27    H     0.53361   0.20428   0.92125   0.00000  Uiso   1.00
H28    H     0.31714   0.32170   0.15129   0.00000  Uiso   1.00
H29    H     0.33790   0.93827   0.94310   0.00000  Uiso   1.00
H30    H     0.62290   0.25518   0.82903   0.00000  Uiso   1.00
H31    H     0.29296   0.23743   0.82736   0.00000  Uiso   1.00
H32    H     0.23742   0.31050   0.90686   0.00000  Uiso   1.00
H33    H     0.24726   0.12865   0.80813   0.00000  Uiso   1.00
H34    H     0.38241   0.27894   0.75404   0.00000  Uiso   1.00
H35    H     0.19441   0.38230   0.01557   0.00000  Uiso   1.00
H36    H     0.21519   0.99887   0.80738   0.00000  Uiso   1.00
H37    H     0.50018   0.31577   0.69331   0.00000  Uiso   1.00
O38    O     0.22181   0.39877   0.13859   0.00000  Uiso   1.00
O39    O     0.24907   0.89573   0.86545   0.00000  Uiso   1.00
O40    O     0.62297   0.31150   0.71579   0.00000  Uiso   1.00
N41    N     0.29589   0.32594   0.10843   0.00000  Uiso   1.00
N42    N     0.31530   0.96746   0.91380   0.00000  Uiso   1.00
N43    N     0.58174   0.26373   0.80714   0.00000  Uiso   1.00
N44    N     0.22985   0.35855   0.03541   0.00000  Uiso   1.00
N45    N     0.24926   0.00007   0.84077   0.00000  Uiso   1.00
N46    N     0.51571   0.29633   0.73412   0.00000  Uiso   1.00
C47    C     0.15489   0.29291   0.32605   0.00000  Uiso   1.00
C48    C     0.18937   0.23609   0.34966   0.00000  Uiso   1.00
C49    C     0.25337   0.22544   0.34341   0.00000  Uiso   1.00
C50    C     0.27583   0.17064   0.36817   0.00000  Uiso   1.00
C51    C     0.33547   0.08888   0.40024   0.00000  Uiso   1.00
C52    C     0.10308   0.26979   0.28164   0.00000  Uiso   1.00
C53    C     0.09454   0.28746   0.21821   0.00000  Uiso   1.00
C54    C     0.04436   0.26103   0.18571   0.00000  Uiso   1.00
C55    C     0.97002   0.23161   0.11220   0.00000  Uiso   1.00
C56    C     0.12155   0.31915   0.38459   0.00000  Uiso   1.00
C57    C     0.12852   0.37834   0.40772   0.00000  Uiso   1.00
C58    C     0.09388   0.39348   0.46189   0.00000  Uiso   1.00
C59    C     0.04821   0.44070   0.54823   0.00000  Uiso   1.00
C60    C     0.08096   0.21455   0.38113   0.00000  Uiso   1.00
C61    C     0.14921   0.19353   0.37957   0.00000  Uiso   1.00
C62    C     0.17158   0.13874   0.40435   0.00000  Uiso   1.00
C63    C     0.23561   0.12800   0.39814   0.00000  Uiso   1.00
C64    C     0.06293   0.22722   0.31155   0.00000  Uiso   1.00
C65    C     0.01275   0.20077   0.27915   0.00000  Uiso   1.00
C66    C     0.00414   0.21840   0.21568   0.00000  Uiso   1.00
C67    C     0.08140   0.27659   0.41451   0.00000  Uiso   1.00
C68    C     0.04674   0.29164   0.46866   0.00000  Uiso   1.00
C69    C     0.05366   0.35084   0.49186   0.00000  Uiso   1.00
H70    H     0.18615   0.32605   0.30276   0.00000  Uiso   1.00
H71    H     0.28443   0.25838   0.32025   0.00000  Uiso   1.00
H72    H     0.12562   0.32041   0.19507   0.00000  Uiso   1.00
H73    H     0.15960   0.41126   0.38455   0.00000  Uiso   1.00
H74    H     0.37568   0.16459   0.35282   0.00000  Uiso   1.00
H75    H     0.04081   0.29538   0.08888   0.00000  Uiso   1.00
H76    H     0.11246   0.48697   0.48843   0.00000  Uiso   1.00
H77    H     0.04970   0.18141   0.40442   0.00000  Uiso   1.00
H78    H     0.14050   0.10581   0.42750   0.00000  Uiso   1.00
H79    H     0.98169   0.16783   0.30231   0.00000  Uiso   1.00
H80    H     0.01567   0.25869   0.49179   0.00000  Uiso   1.00
H81    H     0.25886   0.04075   0.43986   0.00000  Uiso   1.00
H82    H     0.92399   0.17155   0.17592   0.00000  Uiso   1.00
H83    H     0.99564   0.36314   0.57548   0.00000  Uiso   1.00
O84    O     0.37945   0.05554   0.40966   0.00000  Uiso   1.00
O85    O     0.94011   0.22714   0.06339   0.00000  Uiso   1.00
O86    O     0.03412   0.47851   0.58760   0.00000  Uiso   1.00
N87    N     0.33572   0.14582   0.37015   0.00000  Uiso   1.00
N88    N     0.02265   0.26810   0.12337   0.00000  Uiso   1.00
N89    N     0.08963   0.44723   0.49692   0.00000  Uiso   1.00
N90    N     0.27287   0.07919   0.41698   0.00000  Uiso   1.00
N91    N     0.95979   0.20146   0.17021   0.00000  Uiso   1.00
N92    N     0.02677   0.38059   0.54375   0.00000  Uiso   1.00
C93    C     0.31664   0.83067   0.36764   0.00000  Uiso   1.00
C94    C     0.30160   0.84875   0.29861   0.00000  Uiso   1.00
C95    C     0.26850   0.90033   0.27968   0.00000  Uiso   1.00
C96    C     0.25966   0.90873   0.21423   0.00000  Uiso   1.00
C97    C     0.23271   0.94314   0.11387   0.00000  Uiso   1.00
C98    C     0.28992   0.76621   0.37694   0.00000  Uiso   1.00
C99    C     0.24702   0.74838   0.42386   0.00000  Uiso   1.00
C100   C     0.22836   0.68728   0.42435   0.00000  Uiso   1.00
C101   C     0.18333   0.59352   0.44561   0.00000  Uiso   1.00
C102   C     0.38796   0.82442   0.37081   0.00000  Uiso   1.00
C103   C     0.42749   0.85553   0.41260   0.00000  Uiso   1.00
C104   C     0.49138   0.84343   0.40794   0.00000  Uiso   1.00
C105   C     0.59856   0.84006   0.41970   0.00000  Uiso   1.00
C106   C     0.35980   0.75387   0.28510   0.00000  Uiso   1.00
C107   C     0.32504   0.80704   0.25378   0.00000  Uiso   1.00
C108   C     0.31625   0.81536   0.18834   0.00000  Uiso   1.00
C109   C     0.28315   0.86694   0.16931   0.00000  Uiso   1.00
C110   C     0.31336   0.72449   0.33210   0.00000  Uiso   1.00
C111   C     0.29477   0.66341   0.33253   0.00000  Uiso   1.00
C112   C     0.25185   0.64549   0.37943   0.00000  Uiso   1.00
C113   C     0.41141   0.78271   0.32597   0.00000  Uiso   1.00
C114   C     0.47524   0.77056   0.32126   0.00000  Uiso   1.00
C115   C     0.51486   0.80165   0.36302   0.00000  Uiso   1.00
H116   H     0.29838   0.86314   0.40255   0.00000  Uiso   1.00
H117   H     0.25036   0.93259   0.31439   0.00000  Uiso   1.00
H118   H     0.22889   0.78066   0.45855   0.00000  Uiso   1.00
H119   H     0.40933   0.88780   0.44729   0.00000  Uiso   1.00
H120   H     0.20743   0.99119   0.19687   0.00000  Uiso   1.00
H121   H     0.16218   0.67083   0.50086   0.00000  Uiso   1.00
H122   H     0.54268   0.89675   0.47711   0.00000  Uiso   1.00
H123   H     0.37805   0.72140   0.25019   0.00000  Uiso   1.00
H124   H     0.33440   0.78308   0.15366   0.00000  Uiso   1.00
H125   H     0.31292   0.63115   0.29782   0.00000  Uiso   1.00
H126   H     0.49337   0.73828   0.28656   0.00000  Uiso   1.00
H127   H     0.27564   0.86983   0.06642   0.00000  Uiso   1.00
H128   H     0.23039   0.54947   0.37041   0.00000  Uiso   1.00
H129   H     0.61088   0.77539   0.34665   0.00000  Uiso   1.00
O130   O     0.21136   0.97363   0.07090   0.00000  Uiso   1.00
O131   O     0.15200   0.55334   0.46972   0.00000  Uiso   1.00
O132   O     0.65121   0.84973   0.43856   0.00000  Uiso   1.00
N133   N     0.22949   0.95417   0.17942   0.00000  Uiso   1.00
N134   N     0.18717   0.65466   0.46362   0.00000  Uiso   1.00
N135   N     0.54290   0.86586   0.44143   0.00000  Uiso   1.00
N136   N     0.26619   0.88887   0.10922   0.00000  Uiso   1.00
N137   N     0.22387   0.58936   0.39342   0.00000  Uiso   1.00
N138   N     0.57960   0.80056   0.37123   0.00000  Uiso   1.00
C139   C     0.98020   0.32527   0.69884   0.00000  Uiso   1.00
C140   C     0.91155   0.34047   0.68546   0.00000  Uiso   1.00
C141   C     0.89025   0.39140   0.65207   0.00000  Uiso   1.00
C142   C     0.82562   0.39703   0.64495   0.00000  Uiso   1.00
C143   C     0.72538   0.42726   0.62028   0.00000  Uiso   1.00
C144   C     0.99075   0.26143   0.67156   0.00000  Uiso   1.00
C145   C     0.03604   0.24591   0.62649   0.00000  Uiso   1.00
C146   C     0.03809   0.18500   0.60768   0.00000  Uiso   1.00
C147   C     0.06083   0.09252   0.56147   0.00000  Uiso   1.00
C148   C     0.98562   0.31871   0.77151   0.00000  Uiso   1.00
C149   C     0.02661   0.35134   0.81048   0.00000  Uiso   1.00
C150   C     0.02435   0.33865   0.87581   0.00000  Uiso   1.00
C151   C     0.03913   0.33510   0.98479   0.00000  Uiso   1.00
C152   C     0.90332   0.24471   0.74556   0.00000  Uiso   1.00
C153   C     0.86979   0.29670   0.71083   0.00000  Uiso   1.00
C154   C     0.80518   0.30226   0.70376   0.00000  Uiso   1.00
C155   C     0.78378   0.35319   0.67037   0.00000  Uiso   1.00
C156   C     0.94899   0.21767   0.69693   0.00000  Uiso   1.00
C157   C     0.95097   0.15677   0.67818   0.00000  Uiso   1.00
C158   C     0.99625   0.14117   0.63309   0.00000  Uiso   1.00
C159   C     0.94386   0.27495   0.79688   0.00000  Uiso   1.00
C160   C     0.94154   0.26220   0.86217   0.00000  Uiso   1.00
C161   C     0.98252   0.29481   0.90123   0.00000  Uiso   1.00
H162   H     0.01272   0.35934   0.67908   0.00000  Uiso   1.00
H163   H     0.92258   0.42525   0.63244   0.00000  Uiso   1.00
H164   H     0.06836   0.27978   0.60687   0.00000  Uiso   1.00
H165   H     0.05892   0.38519   0.79083   0.00000  Uiso   1.00
H166   H     0.80423   0.47901   0.59190   0.00000  Uiso   1.00
H167   H     0.11162   0.17228   0.53800   0.00000  Uiso   1.00
H168   H     0.09173   0.39457   0.92591   0.00000  Uiso   1.00
H169   H     0.87080   0.21064   0.76531   0.00000  Uiso   1.00
H170   H     0.77287   0.26839   0.72340   0.00000  Uiso   1.00
H171   H     0.91865   0.12292   0.69783   0.00000  Uiso   1.00
H172   H     0.90922   0.22834   0.88179   0.00000  Uiso   1.00
H173   H     0.68272   0.35170   0.66572   0.00000  Uiso   1.00
H174   H     0.99012   0.04497   0.61182   0.00000  Uiso   1.00
H175   H     0.97022   0.26726   0.99973   0.00000  Uiso   1.00
O176   O     0.68162   0.45602   0.59966   0.00000  Uiso   1.00
O177   O     0.08491   0.05360   0.52896   0.00000  Uiso   1.00
O178   O     0.05881   0.34524   0.03789   0.00000  Uiso   1.00
N179   N     0.78907   0.44113   0.61503   0.00000  Uiso   1.00
N180   N     0.07646   0.15436   0.56463   0.00000  Uiso   1.00
N181   N     0.05787   0.36216   0.92730   0.00000  Uiso   1.00
N182   N     0.72369   0.37262   0.65476   0.00000  Uiso   1.00
N183   N     0.01108   0.08585   0.60436   0.00000  Uiso   1.00
N184   N     0.99249   0.29366   0.96702   0.00000  Uiso   1.00
C185   C     0.56007   0.68124   0.78855   0.00000  Uiso   1.00
C186   C     0.58971   0.72489   0.73957   0.00000  Uiso   1.00
C187   C     0.65205   0.74415   0.73880   0.00000  Uiso   1.00
C188   C     0.66999   0.78416   0.68999   0.00000  Uiso   1.00
C189   C     0.72253   0.84887   0.62097   0.00000  Uiso   1.00
C190   C     0.53177   0.62864   0.75001   0.00000  Uiso   1.00
C191   C     0.54540   0.56698   0.75803   0.00000  Uiso   1.00
C192   C     0.51455   0.52598   0.71801   0.00000  Uiso   1.00
C193   C     0.47711   0.44127   0.66523   0.00000  Uiso   1.00
C194   C     0.50460   0.71539   0.81759   0.00000  Uiso   1.00
C195   C     0.49536   0.72666   0.88243   0.00000  Uiso   1.00
C196   C     0.44163   0.75868   0.89931   0.00000  Uiso   1.00
C197   C     0.36200   0.80866   0.95146   0.00000  Uiso   1.00
C198   C     0.48105   0.71804   0.70324   0.00000  Uiso   1.00
C199   C     0.54678   0.74487   0.69323   0.00000  Uiso   1.00
C200   C     0.56462   0.78487   0.64441   0.00000  Uiso   1.00
C201   C     0.62699   0.80419   0.64356   0.00000  Uiso   1.00
C202   C     0.48885   0.64863   0.70368   0.00000  Uiso   1.00
C203   C     0.45796   0.60770   0.66364   0.00000  Uiso   1.00
C204   C     0.47155   0.54600   0.67158   0.00000  Uiso   1.00
C205   C     0.46167   0.73538   0.77125   0.00000  Uiso   1.00
C206   C     0.40794   0.76738   0.78804   0.00000  Uiso   1.00
C207   C     0.39863   0.77870   0.85288   0.00000  Uiso   1.00
H208   H     0.59349   0.66567   0.82463   0.00000  Uiso   1.00
H209   H     0.68526   0.72866   0.77467   0.00000  Uiso   1.00
H210   H     0.57861   0.55153   0.79390   0.00000  Uiso   1.00
H211   H     0.52859   0.71118   0.91827   0.00000  Uiso   1.00
H212   H     0.76808   0.80730   0.69883   0.00000  Uiso   1.00
H213   H     0.54319   0.43380   0.73939   0.00000  Uiso   1.00
H214   H     0.43771   0.77046   0.00167   0.00000  Uiso   1.00
H215   H     0.44763   0.73360   0.66716   0.00000  Uiso   1.00
H216   H     0.53139   0.80033   0.60856   0.00000  Uiso   1.00
H217   H     0.42475   0.62319   0.62779   0.00000  Uiso   1.00
H218   H     0.37473   0.78285   0.75216   0.00000  Uiso   1.00
H219   H     0.64320   0.86547   0.56400   0.00000  Uiso   1.00
H220   H     0.41831   0.49197   0.60457   0.00000  Uiso   1.00
H221   H     0.31283   0.82863   0.86684   0.00000  Uiso   1.00
O222   O     0.76338   0.87904   0.59569   0.00000  Uiso   1.00
O223   O     0.46832   0.38902   0.64892   0.00000  Uiso   1.00
O224   O     0.32994   0.83071   0.99302   0.00000  Uiso   1.00
N225   N     0.72719   0.81184   0.67515   0.00000  Uiso   1.00
N226   N     0.51694   0.46264   0.71306   0.00000  Uiso   1.00
N227   N     0.41832   0.77738   0.95827   0.00000  Uiso   1.00
N228   N     0.65999   0.84314   0.60260   0.00000  Uiso   1.00
N229   N     0.44974   0.49394   0.64052   0.00000  Uiso   1.00
N230   N     0.35112   0.80868   0.88573   0.00000  Uiso   1.00
C231   C     0.93364   0.79288   0.54213   0.00000  Uiso   1.00
C232   C     0.95173   0.73421   0.57735   0.00000  Uiso   1.00
C233   C     0.94164   0.72209   0.64201   0.00000  Uiso   1.00
C234   C     0.96161   0.66572   0.66509   0.00000  Uiso   1.00
C235   C     0.98526   0.58110   0.72588   0.00000  Uiso   1.00
C236   C     0.89169   0.77306   0.48660   0.00000  Uiso   1.00
C237   C     0.83112   0.79361   0.47497   0.00000  Uiso   1.00
C238   C     0.80055   0.76995   0.42164   0.00000  Uiso   1.00
C239   C     0.73100   0.74568   0.34152   0.00000  Uiso   1.00
C240   C     0.99408   0.81754   0.51172   0.00000  Uiso   1.00
C241   C     0.01960   0.87548   0.52119   0.00000  Uiso   1.00
C242   C     0.07522   0.88927   0.48900   0.00000  Uiso   1.00
C243   C     0.16465   0.93405   0.44788   0.00000  Uiso   1.00
C244   C     0.98704   0.71433   0.46811   0.00000  Uiso   1.00
C245   C     0.98073   0.69155   0.53714   0.00000  Uiso   1.00
C246   C     0.00072   0.63518   0.56012   0.00000  Uiso   1.00
C247   C     0.99067   0.62298   0.62481   0.00000  Uiso   1.00
C248   C     0.92069   0.73040   0.44639   0.00000  Uiso   1.00
C249   C     0.89020   0.70670   0.39307   0.00000  Uiso   1.00
C250   C     0.82960   0.72721   0.38136   0.00000  Uiso   1.00
C251   C     0.02308   0.77487   0.47151   0.00000  Uiso   1.00
C252   C     0.07868   0.78857   0.43930   0.00000  Uiso   1.00
C253   C     0.10428   0.84652   0.44872   0.00000  Uiso   1.00
H254   H     0.91106   0.82610   0.57343   0.00000  Uiso   1.00
H255   H     0.91919   0.75512   0.67311   0.00000  Uiso   1.00
H256   H     0.80869   0.82664   0.50609   0.00000  Uiso   1.00
H257   H     0.99714   0.90849   0.55231   0.00000  Uiso   1.00
H258   H     0.94098   0.65760   0.76589   0.00000  Uiso   1.00
H259   H     0.70800   0.80841   0.41370   0.00000  Uiso   1.00
H260   H     0.10537   0.98102   0.51116   0.00000  Uiso   1.00
H261   H     0.00962   0.68111   0.43680   0.00000  Uiso   1.00
H262   H     0.02316   0.60217   0.52899   0.00000  Uiso   1.00
H263   H     0.91266   0.67369   0.36197   0.00000  Uiso   1.00
H264   H     0.10111   0.75554   0.40819   0.00000  Uiso   1.00
H265   H     0.02537   0.53346   0.64892   0.00000  Uiso   1.00
H266   H     0.79238   0.68427   0.29672   0.00000  Uiso   1.00
H267   H     0.18976   0.85687   0.39419   0.00000  Uiso   1.00
O268   O     0.99029   0.54621   0.77051   0.00000  Uiso   1.00
O269   O     0.68463   0.74408   0.30844   0.00000  Uiso   1.00
O270   O     0.20597   0.97053   0.43631   0.00000  Uiso   1.00
N271   N     0.95900   0.63922   0.72571   0.00000  Uiso   1.00
N272   N     0.74116   0.78021   0.39644   0.00000  Uiso   1.00
N273   N     0.11267   0.94159   0.48755   0.00000  Uiso   1.00
N274   N     0.00440   0.57242   0.66277   0.00000  Uiso   1.00
N275   N     0.78657   0.71341   0.33349   0.00000  Uiso   1.00
N276   N     0.15807   0.87479   0.42460   0.00000  Uiso   1.00
C277   C     0.95323   0.64328   0.15852   0.00000  Uiso   1.00
C278   C     0.00205   0.59858   0.13309   0.00000  Uiso   1.00
C279   C     0.00719   0.57884   0.07009   0.00000  Uiso   1.00
C280   C     0.05503   0.53787   0.05648   0.00000  Uiso   1.00
C281   C     0.12459   0.47159   0.00974   0.00000  Uiso   1.00
C282   C     0.99024   0.69541   0.18945   0.00000  Uiso   1.00
C283   C     0.98544   0.75708   0.17383   0.00000  Uiso   1.00
C284   C     0.02333   0.79762   0.20768   0.00000  Uiso   1.00
C285   C     0.07453   0.88167   0.24846   0.00000  Uiso   1.00
C286   C     0.91936   0.61006   0.21324   0.00000  Uiso   1.00
C287   C     0.85496   0.59998   0.21763   0.00000  Uiso   1.00
C288   C     0.83318   0.56867   0.27152   0.00000  Uiso   1.00
C289   C     0.77433   0.52021   0.34924   0.00000  Uiso   1.00
C290   C     0.02906   0.60562   0.24641   0.00000  Uiso   1.00
C291   C     0.04324   0.57812   0.18084   0.00000  Uiso   1.00
C292   C     0.09109   0.53716   0.16733   0.00000  Uiso   1.00
C293   C     0.09629   0.51737   0.10431   0.00000  Uiso   1.00
C294   C     0.03143   0.67495   0.23719   0.00000  Uiso   1.00
C295   C     0.06934   0.71540   0.27107   0.00000  Uiso   1.00
C296   C     0.06460   0.77712   0.25550   0.00000  Uiso   1.00
C297   C     0.96055   0.58960   0.26098   0.00000  Uiso   1.00
C298   C     0.93887   0.55830   0.31487   0.00000  Uiso   1.00
C299   C     0.87445   0.54818   0.31935   0.00000  Uiso   1.00
H300   H     0.92116   0.65922   0.12135   0.00000  Uiso   1.00
H301   H     0.97530   0.59469   0.03315   0.00000  Uiso   1.00
H302   H     0.95355   0.77290   0.13689   0.00000  Uiso   1.00
H303   H     0.82310   0.61582   0.18068   0.00000  Uiso   1.00
H304   H     0.05351   0.51414   0.95642   0.00000  Uiso   1.00
H305   H     0.00763   0.88991   0.17516   0.00000  Uiso   1.00
H306   H     0.73255   0.55869   0.26751   0.00000  Uiso   1.00
H307   H     0.06113   0.58969   0.28358   0.00000  Uiso   1.00
H308   H     0.12296   0.52134   0.20428   0.00000  Uiso   1.00
H309   H     0.10121   0.69955   0.30801   0.00000  Uiso   1.00
H310   H     0.97075   0.54248   0.35181   0.00000  Uiso   1.00
H311   H     0.17335   0.45461   0.09531   0.00000  Uiso   1.00
H312   H     0.12747   0.83038   0.31406   0.00000  Uiso   1.00
H313   H     0.85239   0.49916   0.40640   0.00000  Uiso   1.00
O314   O     0.15159   0.44069   0.97076   0.00000  Uiso   1.00
O315   O     0.09139   0.93368   0.25776   0.00000  Uiso   1.00
O316   O     0.73049   0.49912   0.37891   0.00000  Uiso   1.00
N317   N     0.07322   0.50950   0.99999   0.00000  Uiso   1.00
N318   N     0.03034   0.86083   0.20450   0.00000  Uiso   1.00
N319   N     0.77316   0.55117   0.29084   0.00000  Uiso   1.00
N320   N     0.13771   0.47747   0.07473   0.00000  Uiso   1.00
N321   N     0.09482   0.82879   0.27923   0.00000  Uiso   1.00
N322   N     0.83764   0.51914   0.36558   0.00000  Uiso   1.00
C323   C     0.16993   0.57620   0.80027   0.00000  Uiso   1.00
C324   C     0.15649   0.63765   0.76817   0.00000  Uiso   1.00
C325   C     0.10300   0.67268   0.77728   0.00000  Uiso   1.00
C326   C     0.09960   0.72754   0.74350   0.00000  Uiso   1.00
C327   C     0.07140   0.82006   0.69997   0.00000  Uiso   1.00
C328   C     0.23278   0.58396   0.83450   0.00000  Uiso   1.00
C329   C     0.24343   0.57385   0.89937   0.00000  Uiso   1.00
C330   C     0.30426   0.58350   0.92142   0.00000  Uiso   1.00
C331   C     0.39451   0.59264   0.98086   0.00000  Uiso   1.00
C332   C     0.18157   0.53105   0.74594   0.00000  Uiso   1.00
C333   C     0.14917   0.47645   0.73636   0.00000  Uiso   1.00
C334   C     0.16689   0.44155   0.68386   0.00000  Uiso   1.00
C335   C     0.17761   0.36854   0.60580   0.00000  Uiso   1.00
C336   C     0.25902   0.61131   0.72409   0.00000  Uiso   1.00
C337   C     0.20489   0.65672   0.72679   0.00000  Uiso   1.00
C338   C     0.20157   0.71153   0.69299   0.00000  Uiso   1.00
C339   C     0.14808   0.74664   0.70204   0.00000  Uiso   1.00
C340   C     0.28117   0.60303   0.79312   0.00000  Uiso   1.00
C341   C     0.34200   0.61270   0.81508   0.00000  Uiso   1.00
C342   C     0.35274   0.60261   0.87996   0.00000  Uiso   1.00
C343   C     0.22996   0.55012   0.70456   0.00000  Uiso   1.00
C344   C     0.24773   0.51530   0.65207   0.00000  Uiso   1.00
C345   C     0.21537   0.46065   0.64240   0.00000  Uiso   1.00
H346   H     0.13226   0.56135   0.83249   0.00000  Uiso   1.00
H347   H     0.06556   0.65791   0.80931   0.00000  Uiso   1.00
H348   H     0.20598   0.55909   0.93138   0.00000  Uiso   1.00
H349   H     0.11172   0.46171   0.76839   0.00000  Uiso   1.00
H350   H     0.01297   0.77339   0.76538   0.00000  Uiso   1.00
H351   H     0.30905   0.56499   0.02276   0.00000  Uiso   1.00
H352   H     0.11029   0.35964   0.67907   0.00000  Uiso   1.00
H353   H     0.29670   0.62616   0.69187   0.00000  Uiso   1.00
H354   H     0.23902   0.72628   0.66097   0.00000  Uiso   1.00
H355   H     0.37944   0.62745   0.78304   0.00000  Uiso   1.00
H356   H     0.28518   0.53007   0.62005   0.00000  Uiso   1.00
H357   H     0.15376   0.82888   0.64498   0.00000  Uiso   1.00
H358   H     0.44984   0.62048   0.90237   0.00000  Uiso   1.00
H359   H     0.25108   0.41513   0.55868   0.00000  Uiso   1.00
O360   O     0.04247   0.86584   0.68741   0.00000  Uiso   1.00
O361   O     0.43091   0.59241   0.02508   0.00000  Uiso   1.00
O362   O     0.17015   0.32300   0.57417   0.00000  Uiso   1.00
N363   N     0.05402   0.77270   0.74127   0.00000  Uiso   1.00
N364   N     0.33083   0.57787   0.98191   0.00000  Uiso   1.00
N365   N     0.14502   0.38588   0.66060   0.00000  Uiso   1.00
N366   N     0.12977   0.80256   0.67649   0.00000  Uiso   1.00
N367   N     0.40658   0.60773   0.91713   0.00000  Uiso   1.00
N368   N     0.22078   0.41574   0.59582   0.00000  Uiso   1.00
C369   C     0.05269   0.99898   0.76855   0.00000  Uiso   1.00
C370   C     0.06196   0.97420   0.83639   0.00000  Uiso   1.00
C371   C     0.09398   0.92115   0.85260   0.00000  Uiso   1.00
C372   C     0.09725   0.90633   0.91737   0.00000  Uiso   1.00
C373   C     0.11590   0.86225   0.01559   0.00000  Uiso   1.00
C374   C     0.07925   0.06406   0.76867   0.00000  Uiso   1.00
C375   C     0.12578   0.08657   0.72792   0.00000  Uiso   1.00
C376   C     0.14360   0.14741   0.73568   0.00000  Uiso   1.00
C377   C     0.18904   0.24286   0.72872   0.00000  Uiso   1.00
C378   C     0.98185   0.00529   0.75968   0.00000  Uiso   1.00
C379   C     0.94649   0.97840   0.71136   0.00000  Uiso   1.00
C380   C     0.88231   0.98976   0.71153   0.00000  Uiso   1.00
C381   C     0.77653   0.99396   0.69062   0.00000  Uiso   1.00
C382   C     0.00158   0.06700   0.85477   0.00000  Uiso   1.00
C383   C     0.03420   0.01115   0.88323   0.00000  Uiso   1.00
C384   C     0.03743   0.99640   0.94799   0.00000  Uiso   1.00
C385   C     0.06944   0.94334   0.96429   0.00000  Uiso   1.00
C386   C     0.05149   0.10101   0.81550   0.00000  Uiso   1.00
C387   C     0.06923   0.16183   0.82332   0.00000  Uiso   1.00
C388   C     0.11579   0.18442   0.78260   0.00000  Uiso   1.00
C389   C     0.95409   0.04224   0.80651   0.00000  Uiso   1.00
C390   C     0.88995   0.05365   0.80676   0.00000  Uiso   1.00
C391   C     0.85450   0.02678   0.75845   0.00000  Uiso   1.00
H392   H     0.07431   0.97022   0.73209   0.00000  Uiso   1.00
H393   H     0.11546   0.89257   0.81634   0.00000  Uiso   1.00
H394   H     0.14725   0.05797   0.69168   0.00000  Uiso   1.00
H395   H     0.96799   0.94981   0.67512   0.00000  Uiso   1.00
H396   H     0.14886   0.82279   0.93040   0.00000  Uiso   1.00
H397   H     0.21588   0.17155   0.66753   0.00000  Uiso   1.00
H398   H     0.83788   0.94347   0.63262   0.00000  Uiso   1.00
H399   H     0.97997   0.09576   0.89124   0.00000  Uiso   1.00
H400   H     0.01594   0.02500   0.98423   0.00000  Uiso   1.00
H401   H     0.04774   0.19041   0.85956   0.00000  Uiso   1.00
H402   H     0.86848   0.08224   0.84301   0.00000  Uiso   1.00
H403   H     0.06809   0.93028   0.06667   0.00000  Uiso   1.00
H404   H     0.13511   0.27904   0.80379   0.00000  Uiso   1.00
H405   H     0.75711   0.05096   0.76888   0.00000  Uiso   1.00
O406   O     0.13386   0.82773   0.05684   0.00000  Uiso   1.00
O407   O     0.22178   0.28530   0.71195   0.00000  Uiso   1.00
O408   O     0.72585   0.98606   0.66615   0.00000  Uiso   1.00
N409   N     0.12490   0.85779   0.94971   0.00000  Uiso   1.00
N410   N     0.18757   0.18386   0.70395   0.00000  Uiso   1.00
N411   N     0.83417   0.97064   0.67130   0.00000  Uiso   1.00
N412   N     0.08144   0.91563   0.02303   0.00000  Uiso   1.00
N413   N     0.14411   0.24170   0.77727   0.00000  Uiso   1.00
N414   N     0.79071   0.02848   0.74462   0.00000  Uiso   1.00
C415   C     0.39517   0.50331   0.41748   0.00000  Uiso   1.00
C416   C     0.46220   0.48041   0.42645   0.00000  Uiso   1.00
C417   C     0.47916   0.42598   0.45621   0.00000  Uiso   1.00
C418   C     0.54298   0.41330   0.45961   0.00000  Uiso   1.00
C419   C     0.64019   0.37163   0.47745   0.00000  Uiso   1.00
C420   C     0.39314   0.56651   0.44829   0.00000  Uiso   1.00
C421   C     0.35202   0.58447   0.49640   0.00000  Uiso   1.00
C422   C     0.35770   0.64428   0.51818   0.00000  Uiso   1.00
C423   C     0.34766   0.73629   0.56989   0.00000  Uiso   1.00
C424   C     0.38718   0.51391   0.34558   0.00000  Uiso   1.00
C425   C     0.34104   0.48766   0.30732   0.00000  Uiso   1.00
C426   C     0.34170   0.50319   0.24262   0.00000  Uiso   1.00
C427   C     0.32240   0.51353   0.13485   0.00000  Uiso   1.00
C428   C     0.47836   0.57760   0.37061   0.00000  Uiso   1.00
C429   C     0.50739   0.52076   0.40100   0.00000  Uiso   1.00
C430   C     0.57120   0.50817   0.40435   0.00000  Uiso   1.00
C431   C     0.58824   0.45372   0.43411   0.00000  Uiso   1.00
C432   C     0.43832   0.60686   0.42284   0.00000  Uiso   1.00
C433   C     0.44406   0.66666   0.44455   0.00000  Uiso   1.00
C434   C     0.40297   0.68470   0.49268   0.00000  Uiso   1.00
C435   C     0.43237   0.55426   0.32012   0.00000  Uiso   1.00
C436   C     0.43309   0.56985   0.25547   0.00000  Uiso   1.00
C437   C     0.38696   0.54362   0.21712   0.00000  Uiso   1.00
H438   H     0.35999   0.47190   0.43730   0.00000  Uiso   1.00
H439   H     0.44417   0.39476   0.47591   0.00000  Uiso   1.00
H440   H     0.31705   0.55323   0.51609   0.00000  Uiso   1.00
H441   H     0.30608   0.45643   0.32704   0.00000  Uiso   1.00
H442   H     0.55743   0.32705   0.50750   0.00000  Uiso   1.00
H443   H     0.28938   0.66120   0.59221   0.00000  Uiso   1.00
H444   H     0.26624   0.45708   0.19357   0.00000  Uiso   1.00
H445   H     0.51354   0.60901   0.35079   0.00000  Uiso   1.00
H446   H     0.60616   0.53940   0.38465   0.00000  Uiso   1.00
H447   H     0.47903   0.69787   0.42484   0.00000  Uiso   1.00
H448   H     0.46806   0.60107   0.23579   0.00000  Uiso   1.00
H449   H     0.68891   0.44445   0.43344   0.00000  Uiso   1.00
H450   H     0.42085   0.77860   0.51815   0.00000  Uiso   1.00
H451   H     0.39771   0.57448   0.11950   0.00000  Uiso   1.00
O452   O     0.68132   0.33750   0.49433   0.00000  Uiso   1.00
O453   O     0.32964   0.77589   0.60545   0.00000  Uiso   1.00
O454   O     0.29929   0.50808   0.08244   0.00000  Uiso   1.00
N455   N     0.57567   0.36423   0.48541   0.00000  Uiso   1.00
N456   N     0.32506   0.67664   0.56462   0.00000  Uiso   1.00
N457   N     0.30342   0.48581   0.19192   0.00000  Uiso   1.00
N458   N     0.64641   0.42740   0.44556   0.00000  Uiso   1.00
N459   N     0.39580   0.73981   0.52477   0.00000  Uiso   1.00
N460   N     0.37416   0.54898   0.15207   0.00000  Uiso   1.00
C461   C     0.78207   0.13661   0.32947   0.00000  Uiso   1.00
C462   C     0.75472   0.09427   0.38100   0.00000  Uiso   1.00
C463   C     0.69282   0.07386   0.38437   0.00000  Uiso   1.00
C464   C     0.67708   0.03538   0.43525   0.00000  Uiso   1.00
C465   C     0.62780   0.97231   0.50831   0.00000  Uiso   1.00
C466   C     0.81031   0.19115   0.36501   0.00000  Uiso   1.00
C467   C     0.79516   0.25219   0.35491   0.00000  Uiso   1.00
C468   C     0.82622   0.29526   0.39232   0.00000  Uiso   1.00
C469   C     0.86329   0.38259   0.44052   0.00000  Uiso   1.00
C470   C     0.83746   0.10247   0.30024   0.00000  Uiso   1.00
C471   C     0.84516   0.08895   0.23568   0.00000  Uiso   1.00
C472   C     0.89909   0.05736   0.21856   0.00000  Uiso   1.00
C473   C     0.97832   0.00700   0.16619   0.00000  Uiso   1.00
C474   C     0.86418   0.10457   0.41386   0.00000  Uiso   1.00
C475   C     0.79931   0.07687   0.42684   0.00000  Uiso   1.00
C476   C     0.78366   0.03841   0.47773   0.00000  Uiso   1.00
C477   C     0.72175   0.01794   0.48116   0.00000  Uiso   1.00
C478   C     0.85490   0.17375   0.41084   0.00000  Uiso   1.00
C479   C     0.88600   0.21674   0.44827   0.00000  Uiso   1.00
C480   C     0.87090   0.27782   0.43824   0.00000  Uiso   1.00
C481   C     0.88206   0.08506   0.34607   0.00000  Uiso   1.00
C482   C     0.93599   0.05349   0.32905   0.00000  Uiso   1.00
C483   C     0.94376   0.03993   0.26448   0.00000  Uiso   1.00
H484   H     0.74736   0.15017   0.29379   0.00000  Uiso   1.00
H485   H     0.65832   0.08734   0.34889   0.00000  Uiso   1.00
H486   H     0.76065   0.26564   0.31944   0.00000  Uiso   1.00
H487   H     0.81064   0.10242   0.20023   0.00000  Uiso   1.00
H488   H     0.57927   0.01003   0.43020   0.00000  Uiso   1.00
H489   H     0.79505   0.38599   0.36808   0.00000  Uiso   1.00
H490   H     0.90046   0.04181   0.11670   0.00000  Uiso   1.00
H491   H     0.89890   0.09102   0.44954   0.00000  Uiso   1.00
H492   H     0.81818   0.02495   0.51319   0.00000  Uiso   1.00
H493   H     0.92051   0.20325   0.48374   0.00000  Uiso   1.00
H494   H     0.97049   0.04003   0.36453   0.00000  Uiso   1.00
H495   H     0.70902   0.95939   0.56356   0.00000  Uiso   1.00
H496   H     0.92480   0.33535   0.50143   0.00000  Uiso   1.00
H497   H     0.03020   0.99117   0.25006   0.00000  Uiso   1.00
O498   O     0.58830   0.94233   0.53595   0.00000  Uiso   1.00
O499   O     0.87141   0.43557   0.45444   0.00000  Uiso   1.00
O500   O     0.00970   0.98402   0.12464   0.00000  Uiso   1.00
N501   N     0.62089   0.00717   0.45285   0.00000  Uiso   1.00
N502   N     0.82262   0.35867   0.39477   0.00000  Uiso   1.00
N503   N     0.92118   0.03691   0.15975   0.00000  Uiso   1.00
N504   N     0.69070   0.97992   0.52460   0.00000  Uiso   1.00
N505   N     0.89244   0.33142   0.46653   0.00000  Uiso   1.00
N506   N     0.99099   0.00966   0.23151   0.00000  Uiso   1.00
C507   C     0.43279   0.08552   0.58109   0.00000  Uiso   1.00
C508   C     0.40285   0.14882   0.58078   0.00000  Uiso   1.00
C509   C     0.40563   0.19088   0.53069   0.00000  Uiso   1.00
C510   C     0.37521   0.24627   0.53978   0.00000  Uiso   1.00
C511   C     0.33363   0.34263   0.53062   0.00000  Uiso   1.00
C512   C     0.47554   0.08376   0.63972   0.00000  Uiso   1.00
C513   C     0.53943   0.07111   0.63918   0.00000  Uiso   1.00
C514   C     0.57019   0.07172   0.69789   0.00000  Uiso   1.00
C515   C     0.64144   0.06703   0.78024   0.00000  Uiso   1.00
C516   C     0.37955   0.04012   0.59487   0.00000  Uiso   1.00
C517   C     0.36274   0.99078   0.55664   0.00000  Uiso   1.00
C518   C     0.31268   0.95465   0.57759   0.00000  Uiso   1.00
C519   C     0.23490   0.88220   0.59031   0.00000  Uiso   1.00
C520   C     0.37380   0.10908   0.68631   0.00000  Uiso   1.00
C521   C     0.37082   0.16161   0.63794   0.00000  Uiso   1.00
C522   C     0.34037   0.21695   0.64710   0.00000  Uiso   1.00
C523   C     0.34311   0.25909   0.59703   0.00000  Uiso   1.00
C524   C     0.44350   0.09655   0.69687   0.00000  Uiso   1.00
C525   C     0.47417   0.09718   0.75559   0.00000  Uiso   1.00
C526   C     0.53809   0.08454   0.75514   0.00000  Uiso   1.00
C527   C     0.34751   0.05292   0.65203   0.00000  Uiso   1.00
C528   C     0.29747   0.01685   0.67305   0.00000  Uiso   1.00
C529   C     0.28059   0.96747   0.63485   0.00000  Uiso   1.00
H530   H     0.45773   0.07555   0.53660   0.00000  Uiso   1.00
H531   H     0.43044   0.18096   0.48647   0.00000  Uiso   1.00
H532   H     0.56421   0.06120   0.59495   0.00000  Uiso   1.00
H533   H     0.38754   0.98089   0.51241   0.00000  Uiso   1.00
H534   H     0.38607   0.30348   0.45611   0.00000  Uiso   1.00
H535   H     0.66813   0.05094   0.68484   0.00000  Uiso   1.00
H536   H     0.29559   0.88158   0.51080   0.00000  Uiso   1.00
H537   H     0.34885   0.11904   0.73081   0.00000  Uiso   1.00
H538   H     0.31558   0.22684   0.69134   0.00000  Uiso   1.00
H539   H     0.44936   0.10708   0.79981   0.00000  Uiso   1.00
H540   H     0.27269   0.02677   0.71728   0.00000  Uiso   1.00
H541   H     0.29285   0.34073   0.62239   0.00000  Uiso   1.00
H542   H     0.57491   0.08818   0.85111   0.00000  Uiso   1.00
H543   H     0.20237   0.91882   0.67708   0.00000  Uiso   1.00
O544   O     0.31956   0.39224   0.50979   0.00000  Uiso   1.00
O545   O     0.68960   0.06091   0.80987   0.00000  Uiso   1.00
O546   O     0.20084   0.83871   0.58153   0.00000  Uiso   1.00
N547   N     0.36869   0.29745   0.50066   0.00000  Uiso   1.00
N548   N     0.63240   0.06135   0.71450   0.00000  Uiso   1.00
N549   N     0.28412   0.90300   0.55180   0.00000  Uiso   1.00
N550   N     0.31853   0.31749   0.59013   0.00000  Uiso   1.00
N551   N     0.58224   0.08139   0.80397   0.00000  Uiso   1.00
N552   N     0.23395   0.92304   0.64127   0.00000  Uiso   1.00
