data_job_06659
_audit_creation_date              2018-12-19
_audit_creation_method            'Materials Studio'
_symmetry_space_group_name_H-M    'P1'
_symmetry_Int_Tables_number       1
_symmetry_cell_setting            triclinic
loop_
_symmetry_equiv_pos_as_xyz
  x,y,z
_cell_length_a                    21.6680
_cell_length_b                    22.4680
_cell_length_c                    22.7757
_cell_angle_alpha                 99.9950
_cell_angle_beta                  104.3920
_cell_angle_gamma                 110.3160
loop_
_atom_site_label
_atom_site_type_symbol
_atom_site_fract_x
_atom_site_fract_y
_atom_site_fract_z
_atom_site_U_iso_or_equiv
_atom_site_adp_type
_atom_site_occupancy
C1     C     0.25097   0.23678   0.59591   0.00000  Uiso   1.00
C2     C     0.21079   0.23500   0.64233   0.00000  Uiso   1.00
C3     C     0.15338   0.25071   0.63601   0.00000  Uiso   1.00
C4     C     0.12399   0.24600   0.68359   0.00000  Uiso   1.00
C5     C     0.05750   0.24627   0.74777   0.00000  Uiso   1.00
C6     C     0.32682   0.28280   0.63419   0.00000  Uiso   1.00
C7     C     0.36699   0.33869   0.62101   0.00000  Uiso   1.00
C8     C     0.43528   0.37421   0.66174   0.00000  Uiso   1.00
C9     C     0.54896   0.44866   0.71326   0.00000  Uiso   1.00
C10    C     0.24948   0.16766   0.57683   0.00000  Uiso   1.00
C11    C     0.22462   0.12676   0.51543   0.00000  Uiso   1.00
C12    C     0.22781   0.06534   0.50787   0.00000  Uiso   1.00
C13    C     0.22139   0.96103   0.47034   0.00000  Uiso   1.00
C14    C     0.30084   0.20047   0.69166   0.00000  Uiso   1.00
C15    C     0.23788   0.21528   0.69434   0.00000  Uiso   1.00
C16    C     0.20857   0.21054   0.74194   0.00000  Uiso   1.00
C17    C     0.15113   0.22624   0.73569   0.00000  Uiso   1.00
C18    C     0.35392   0.26308   0.68619   0.00000  Uiso   1.00
C19    C     0.42217   0.29852   0.72695   0.00000  Uiso   1.00
C20    C     0.46242   0.35445   0.71385   0.00000  Uiso   1.00
C21    C     0.27657   0.14794   0.62884   0.00000  Uiso   1.00
C22    C     0.27980   0.08658   0.62137   0.00000  Uiso   1.00
C23    C     0.25495   0.04559   0.55998   0.00000  Uiso   1.00
H24    H     0.22988   0.25214   0.55542   0.00000  Uiso   1.00
H25    H     0.13244   0.26598   0.59575   0.00000  Uiso   1.00
H26    H     0.34601   0.35394   0.58076   0.00000  Uiso   1.00
H27    H     0.20366   0.14204   0.47520   0.00000  Uiso   1.00
H28    H     0.03637   0.27265   0.66342   0.00000  Uiso   1.00
H29    H     0.48670   0.45811   0.63179   0.00000  Uiso   1.00
H30    H     0.18653   0.01127   0.40919   0.00000  Uiso   1.00
H31    H     0.32194   0.18511   0.73215   0.00000  Uiso   1.00
H32    H     0.22954   0.19527   0.78218   0.00000  Uiso   1.00
H33    H     0.44312   0.28324   0.76719   0.00000  Uiso   1.00
H34    H     0.30077   0.07133   0.66163   0.00000  Uiso   1.00
H35    H     0.11518   0.21527   0.81473   0.00000  Uiso   1.00
H36    H     0.56552   0.40072   0.78310   0.00000  Uiso   1.00
H37    H     0.26535   0.95389   0.56051   0.00000  Uiso   1.00
O38    O     0.01335   0.25187   0.76881   0.00000  Uiso   1.00
O39    O     0.60417   0.49518   0.72731   0.00000  Uiso   1.00
O40    O     0.21036   0.90894   0.43527   0.00000  Uiso   1.00
N41    N     0.06759   0.25774   0.69216   0.00000  Uiso   1.00
N42    N     0.48862   0.43113   0.66259   0.00000  Uiso   1.00
N43    N     0.20801   0.01339   0.45448   0.00000  Uiso   1.00
N44    N     0.11000   0.22686   0.77358   0.00000  Uiso   1.00
N45    N     0.53103   0.40026   0.74401   0.00000  Uiso   1.00
N46    N     0.25042   0.98251   0.53590   0.00000  Uiso   1.00
C47    C     0.51837   0.29344   0.35213   0.00000  Uiso   1.00
C48    C     0.55173   0.24391   0.34814   0.00000  Uiso   1.00
C49    C     0.55240   0.20146   0.38565   0.00000  Uiso   1.00
C50    C     0.58564   0.15993   0.37463   0.00000  Uiso   1.00
C51    C     0.63270   0.08291   0.37558   0.00000  Uiso   1.00
C52    C     0.57623   0.36087   0.36298   0.00000  Uiso   1.00
C53    C     0.59749   0.41676   0.41296   0.00000  Uiso   1.00
C54    C     0.65134   0.47368   0.41443   0.00000  Uiso   1.00
C55    C     0.73639   0.57825   0.43839   0.00000  Uiso   1.00
C56    C     0.46678   0.27672   0.28617   0.00000  Uiso   1.00
C57    C     0.39601   0.26188   0.27157   0.00000  Uiso   1.00
C58    C     0.35771   0.24797   0.20838   0.00000  Uiso   1.00
C59    C     0.27282   0.22188   0.11309   0.00000  Uiso   1.00
C60    C     0.57620   0.29517   0.26588   0.00000  Uiso   1.00
C61    C     0.58315   0.24485   0.30129   0.00000  Uiso   1.00
C62    C     0.61639   0.20337   0.29021   0.00000  Uiso   1.00
C63    C     0.61710   0.16086   0.32769   0.00000  Uiso   1.00
C64    C     0.60764   0.36181   0.31613   0.00000  Uiso   1.00
C65    C     0.66147   0.41867   0.31752   0.00000  Uiso   1.00
C66    C     0.68281   0.47462   0.36749   0.00000  Uiso   1.00
C67    C     0.49819   0.27766   0.23932   0.00000  Uiso   1.00
C68    C     0.45999   0.26378   0.17614   0.00000  Uiso   1.00
C69    C     0.38918   0.24890   0.16144   0.00000  Uiso   1.00
H70    H     0.49392   0.29272   0.38861   0.00000  Uiso   1.00
H71    H     0.52810   0.20076   0.42190   0.00000  Uiso   1.00
H72    H     0.57317   0.41602   0.44920   0.00000  Uiso   1.00
H73    H     0.37172   0.26116   0.30784   0.00000  Uiso   1.00
H74    H     0.57986   0.09923   0.43817   0.00000  Uiso   1.00
H75    H     0.67488   0.55314   0.49572   0.00000  Uiso   1.00
H76    H     0.25009   0.22657   0.19763   0.00000  Uiso   1.00
H77    H     0.60065   0.29590   0.22940   0.00000  Uiso   1.00
H78    H     0.64069   0.20410   0.25395   0.00000  Uiso   1.00
H79    H     0.68576   0.41937   0.28126   0.00000  Uiso   1.00
H80    H     0.48432   0.26451   0.13990   0.00000  Uiso   1.00
H81    H     0.67125   0.10195   0.30186   0.00000  Uiso   1.00
H82    H     0.76627   0.55586   0.35941   0.00000  Uiso   1.00
H83    H     0.34148   0.22929   0.06132   0.00000  Uiso   1.00
O84    O     0.64999   0.04017   0.38905   0.00000  Uiso   1.00
O85    O     0.77464   0.63567   0.46455   0.00000  Uiso   1.00
O86    O     0.21733   0.20723   0.07347   0.00000  Uiso   1.00
N87    N     0.59587   0.11246   0.40271   0.00000  Uiso   1.00
N88    N     0.68471   0.53683   0.45652   0.00000  Uiso   1.00
N89    N     0.28757   0.23154   0.17784   0.00000  Uiso   1.00
N90    N     0.64504   0.11392   0.32936   0.00000  Uiso   1.00
N91    N     0.73388   0.53829   0.38317   0.00000  Uiso   1.00
N92    N     0.33674   0.23300   0.10449   0.00000  Uiso   1.00
C93    C     0.19529   0.56359   0.13970   0.00000  Uiso   1.00
C94    C     0.22604   0.59875   0.09549   0.00000  Uiso   1.00
C95    C     0.23859   0.56918   0.04358   0.00000  Uiso   1.00
C96    C     0.26699   0.60986   0.00914   0.00000  Uiso   1.00
C97    C     0.31245   0.65414   0.93795   0.00000  Uiso   1.00
C98    C     0.24808   0.60016   0.20607   0.00000  Uiso   1.00
C99    C     0.27914   0.57177   0.24712   0.00000  Uiso   1.00
C100   C     0.32609   0.61364   0.30577   0.00000  Uiso   1.00
C101   C     0.40573   0.66010   0.40627   0.00000  Uiso   1.00
C102   C     0.13103   0.57742   0.13888   0.00000  Uiso   1.00
C103   C     0.06367   0.52991   0.12346   0.00000  Uiso   1.00
C104   C     0.01206   0.55264   0.12556   0.00000  Uiso   1.00
C105   C     0.90995   0.56379   0.12174   0.00000  Uiso   1.00
C106   C     0.22342   0.68842   0.17086   0.00000  Uiso   1.00
C107   C     0.24133   0.66655   0.11242   0.00000  Uiso   1.00
C108   C     0.26971   0.70728   0.07805   0.00000  Uiso   1.00
C109   C     0.28229   0.67778   0.02609   0.00000  Uiso   1.00
C110   C     0.26336   0.66795   0.22300   0.00000  Uiso   1.00
C111   C     0.31027   0.70988   0.28160   0.00000  Uiso   1.00
C112   C     0.34140   0.68156   0.32273   0.00000  Uiso   1.00
C113   C     0.14630   0.64522   0.15581   0.00000  Uiso   1.00
C114   C     0.09479   0.66802   0.15793   0.00000  Uiso   1.00
C115   C     0.02737   0.62056   0.14251   0.00000  Uiso   1.00
H116   H     0.18340   0.51081   0.12652   0.00000  Uiso   1.00
H117   H     0.22676   0.51671   0.03050   0.00000  Uiso   1.00
H118   H     0.26730   0.51930   0.23401   0.00000  Uiso   1.00
H119   H     0.05186   0.47745   0.11037   0.00000  Uiso   1.00
H120   H     0.28160   0.55315   0.93151   0.00000  Uiso   1.00
H121   H     0.36707   0.55862   0.36064   0.00000  Uiso   1.00
H122   H     0.91277   0.47037   0.09991   0.00000  Uiso   1.00
H123   H     0.23532   0.74120   0.18404   0.00000  Uiso   1.00
H124   H     0.28153   0.75975   0.09116   0.00000  Uiso   1.00
H125   H     0.32208   0.76234   0.29468   0.00000  Uiso   1.00
H126   H     0.10664   0.72049   0.17103   0.00000  Uiso   1.00
H127   H     0.32606   0.75041   0.98075   0.00000  Uiso   1.00
H128   H     0.41153   0.75588   0.40989   0.00000  Uiso   1.00
H129   H     0.95723   0.66763   0.14915   0.00000  Uiso   1.00
O130   O     0.33332   0.65983   0.89401   0.00000  Uiso   1.00
O131   O     0.44544   0.66700   0.45702   0.00000  Uiso   1.00
O132   O     0.84941   0.55121   0.11494   0.00000  Uiso   1.00
N133   N     0.28571   0.59703   0.95584   0.00000  Uiso   1.00
N134   N     0.36563   0.60214   0.35705   0.00000  Uiso   1.00
N135   N     0.94090   0.51963   0.11330   0.00000  Uiso   1.00
N136   N     0.30963   0.70318   0.98233   0.00000  Uiso   1.00
N137   N     0.38955   0.70829   0.38354   0.00000  Uiso   1.00
N138   N     0.96482   0.62578   0.13980   0.00000  Uiso   1.00
C139   C     0.64366   0.94814   0.67655   0.00000  Uiso   1.00
C140   C     0.60233   0.98478   0.69864   0.00000  Uiso   1.00
C141   C     0.55754   0.96439   0.73238   0.00000  Uiso   1.00
C142   C     0.52464   0.00485   0.74815   0.00000  Uiso   1.00
C143   C     0.45873   0.05283   0.78512   0.00000  Uiso   1.00
C144   C     0.72003   0.99726   0.70399   0.00000  Uiso   1.00
C145   C     0.77421   0.98736   0.74221   0.00000  Uiso   1.00
C146   C     0.84039   0.03832   0.76246   0.00000  Uiso   1.00
C147   C     0.95723   0.10566   0.80769   0.00000  Uiso   1.00
C148   C     0.62315   0.93646   0.60511   0.00000  Uiso   1.00
C149   C     0.59589   0.87542   0.56019   0.00000  Uiso   1.00
C150   C     0.58052   0.87519   0.49720   0.00000  Uiso   1.00
C151   C     0.54694   0.84812   0.38891   0.00000  Uiso   1.00
C152   C     0.66485   0.05624   0.64456   0.00000  Uiso   1.00
C153   C     0.61384   0.04350   0.68127   0.00000  Uiso   1.00
C154   C     0.58099   0.08400   0.69699   0.00000  Uiso   1.00
C155   C     0.53616   0.06367   0.73074   0.00000  Uiso   1.00
C156   C     0.73154   0.05598   0.68661   0.00000  Uiso   1.00
C157   C     0.79766   0.10697   0.70682   0.00000  Uiso   1.00
C158   C     0.85192   0.09714   0.74506   0.00000  Uiso   1.00
C159   C     0.63466   0.99517   0.58774   0.00000  Uiso   1.00
C160   C     0.61933   0.99504   0.52480   0.00000  Uiso   1.00
C161   C     0.59205   0.93402   0.47979   0.00000  Uiso   1.00
H162   H     0.63470   0.90242   0.69008   0.00000  Uiso   1.00
H163   H     0.54865   0.91895   0.74582   0.00000  Uiso   1.00
H164   H     0.76529   0.94191   0.75564   0.00000  Uiso   1.00
H165   H     0.58699   0.83000   0.57366   0.00000  Uiso   1.00
H166   H     0.45835   0.96318   0.79998   0.00000  Uiso   1.00
H167   H     0.91514   0.01158   0.82066   0.00000  Uiso   1.00
H168   H     0.53916   0.77559   0.43691   0.00000  Uiso   1.00
H169   H     0.67381   0.10196   0.63104   0.00000  Uiso   1.00
H170   H     0.58991   0.12944   0.68354   0.00000  Uiso   1.00
H171   H     0.80655   0.15240   0.69336   0.00000  Uiso   1.00
H172   H     0.62825   0.04048   0.51137   0.00000  Uiso   1.00
H173   H     0.49184   0.13402   0.74943   0.00000  Uiso   1.00
H174   H     0.94863   0.18242   0.77011   0.00000  Uiso   1.00
H175   H     0.57265   0.94643   0.38636   0.00000  Uiso   1.00
O176   O     0.41921   0.06308   0.81032   0.00000  Uiso   1.00
O177   O     0.01850   0.12658   0.83745   0.00000  Uiso   1.00
O178   O     0.52523   0.81696   0.33398   0.00000  Uiso   1.00
N179   N     0.47773   0.99961   0.78086   0.00000  Uiso   1.00
N180   N     0.90481   0.04487   0.80021   0.00000  Uiso   1.00
N181   N     0.55332   0.82423   0.44144   0.00000  Uiso   1.00
N182   N     0.49575   0.09154   0.75366   0.00000  Uiso   1.00
N183   N     0.92282   0.13680   0.77301   0.00000  Uiso   1.00
N184   N     0.57133   0.91616   0.41424   0.00000  Uiso   1.00
C185   C     0.12933   0.75155   0.62338   0.00000  Uiso   1.00
C186   C     0.17176   0.74908   0.57941   0.00000  Uiso   1.00
C187   C     0.18974   0.79312   0.54443   0.00000  Uiso   1.00
C188   C     0.22880   0.78240   0.50706   0.00000  Uiso   1.00
C189   C     0.29164   0.78662   0.43916   0.00000  Uiso   1.00
C190   C     0.17452   0.75452   0.68786   0.00000  Uiso   1.00
C191   C     0.19480   0.80314   0.74405   0.00000  Uiso   1.00
C192   C     0.23617   0.79699   0.79796   0.00000  Uiso   1.00
C193   C     0.30323   0.80964   0.89843   0.00000  Uiso   1.00
C194   C     0.06733   0.68434   0.60002   0.00000  Uiso   1.00
C195   C     0.99748   0.67394   0.58237   0.00000  Uiso   1.00
C196   C     0.94861   0.60871   0.56234   0.00000  Uiso   1.00
C197   C     0.84925   0.51239   0.52642   0.00000  Uiso   1.00
C198   C     0.16672   0.65419   0.61920   0.00000  Uiso   1.00
C199   C     0.19208   0.69619   0.57715   0.00000  Uiso   1.00
C200   C     0.23112   0.68540   0.53981   0.00000  Uiso   1.00
C201   C     0.24915   0.72942   0.50478   0.00000  Uiso   1.00
C202   C     0.19483   0.70164   0.68559   0.00000  Uiso   1.00
C203   C     0.23617   0.69542   0.73943   0.00000  Uiso   1.00
C204   C     0.25651   0.74401   0.79569   0.00000  Uiso   1.00
C205   C     0.08764   0.63146   0.59774   0.00000  Uiso   1.00
C206   C     0.03886   0.56623   0.57774   0.00000  Uiso   1.00
C207   C     0.96896   0.55573   0.56007   0.00000  Uiso   1.00
H208   H     0.11351   0.79272   0.62515   0.00000  Uiso   1.00
H209   H     0.17402   0.83404   0.54621   0.00000  Uiso   1.00
H210   H     0.17906   0.84405   0.74579   0.00000  Uiso   1.00
H211   H     0.98179   0.71488   0.58413   0.00000  Uiso   1.00
H212   H     0.25008   0.85654   0.45770   0.00000  Uiso   1.00
H213   H     0.26070   0.87764   0.87854   0.00000  Uiso   1.00
H214   H     0.84469   0.60525   0.53765   0.00000  Uiso   1.00
H215   H     0.18254   0.61302   0.61744   0.00000  Uiso   1.00
H216   H     0.24683   0.64447   0.53806   0.00000  Uiso   1.00
H217   H     0.25188   0.65449   0.73765   0.00000  Uiso   1.00
H218   H     0.05460   0.52531   0.57599   0.00000  Uiso   1.00
H219   H     0.30918   0.70268   0.45109   0.00000  Uiso   1.00
H220   H     0.31980   0.72378   0.87194   0.00000  Uiso   1.00
H221   H     0.90379   0.45139   0.53104   0.00000  Uiso   1.00
O222   O     0.32070   0.80356   0.40234   0.00000  Uiso   1.00
O223   O     0.33462   0.83123   0.95447   0.00000  Uiso   1.00
O224   O     0.78883   0.47387   0.50723   0.00000  Uiso   1.00
N225   N     0.25515   0.81601   0.46703   0.00000  Uiso   1.00
N226   N     0.26509   0.83574   0.86049   0.00000  Uiso   1.00
N227   N     0.87616   0.58108   0.54180   0.00000  Uiso   1.00
N228   N     0.28695   0.73322   0.46347   0.00000  Uiso   1.00
N229   N     0.29689   0.75295   0.85693   0.00000  Uiso   1.00
N230   N     0.90796   0.49829   0.53825   0.00000  Uiso   1.00
C231   C     0.70540   0.70098   0.03790   0.00000  Uiso   1.00
C232   C     0.70707   0.66829   0.09129   0.00000  Uiso   1.00
C233   C     0.75840   0.64804   0.11802   0.00000  Uiso   1.00
C234   C     0.75045   0.61918   0.16638   0.00000  Uiso   1.00
C235   C     0.76177   0.56973   0.24613   0.00000  Uiso   1.00
C236   C     0.70115   0.76640   0.06307   0.00000  Uiso   1.00
C237   C     0.74751   0.82863   0.06606   0.00000  Uiso   1.00
C238   C     0.73457   0.88236   0.09065   0.00000  Uiso   1.00
C239   C     0.73667   0.98521   0.12654   0.00000  Uiso   1.00
C240   C     0.63575   0.65780   0.98563   0.00000  Uiso   1.00
C241   C     0.62712   0.62873   0.92351   0.00000  Uiso   1.00
C242   C     0.55912   0.59104   0.88290   0.00000  Uiso   1.00
C243   C     0.45968   0.52526   0.79856   0.00000  Uiso   1.00
C244   C     0.60000   0.68574   0.07624   0.00000  Uiso   1.00
C245   C     0.64982   0.66002   0.11211   0.00000  Uiso   1.00
C246   C     0.64179   0.63118   0.16044   0.00000  Uiso   1.00
C247   C     0.69310   0.61089   0.18724   0.00000  Uiso   1.00
C248   C     0.64390   0.75813   0.08389   0.00000  Uiso   1.00
C249   C     0.63089   0.81177   0.10847   0.00000  Uiso   1.00
C250   C     0.67721   0.87407   0.11151   0.00000  Uiso   1.00
C251   C     0.57850   0.64952   0.00645   0.00000  Uiso   1.00
C252   C     0.51050   0.61187   0.96593   0.00000  Uiso   1.00
C253   C     0.50176   0.58275   0.90376   0.00000  Uiso   1.00
H254   H     0.74997   0.70742   0.02169   0.00000  Uiso   1.00
H255   H     0.80270   0.65446   0.10190   0.00000  Uiso   1.00
H256   H     0.79180   0.83502   0.04994   0.00000  Uiso   1.00
H257   H     0.67143   0.63515   0.90741   0.00000  Uiso   1.00
H258   H     0.83593   0.59211   0.20002   0.00000  Uiso   1.00
H259   H     0.81293   0.97283   0.09044   0.00000  Uiso   1.00
H260   H     0.55911   0.55136   0.78990   0.00000  Uiso   1.00
H261   H     0.55543   0.67930   0.09245   0.00000  Uiso   1.00
H262   H     0.59748   0.62479   0.17654   0.00000  Uiso   1.00
H263   H     0.58658   0.80535   0.12458   0.00000  Uiso   1.00
H264   H     0.46621   0.60548   0.98206   0.00000  Uiso   1.00
H265   H     0.66936   0.56803   0.26061   0.00000  Uiso   1.00
H266   H     0.64637   0.94875   0.15102   0.00000  Uiso   1.00
H267   H     0.39254   0.52728   0.85048   0.00000  Uiso   1.00
O268   O     0.78383   0.54474   0.28437   0.00000  Uiso   1.00
O269   O     0.75365   0.04423   0.14059   0.00000  Uiso   1.00
O270   O     0.42065   0.49127   0.74629   0.00000  Uiso   1.00
N271   N     0.79095   0.59391   0.20273   0.00000  Uiso   1.00
N272   N     0.76945   0.94986   0.10029   0.00000  Uiso   1.00
N273   N     0.53215   0.55584   0.81930   0.00000  Uiso   1.00
N274   N     0.70132   0.58096   0.23533   0.00000  Uiso   1.00
N275   N     0.67983   0.93690   0.13289   0.00000  Uiso   1.00
N276   N     0.44252   0.54288   0.85190   0.00000  Uiso   1.00
C277   C     0.74903   0.76322   0.40409   0.00000  Uiso   1.00
C278   C     0.78921   0.76500   0.35767   0.00000  Uiso   1.00
C279   C     0.84662   0.74929   0.36399   0.00000  Uiso   1.00
C280   C     0.87601   0.75400   0.31641   0.00000  Uiso   1.00
C281   C     0.94250   0.75373   0.25223   0.00000  Uiso   1.00
C282   C     0.67318   0.71720   0.36581   0.00000  Uiso   1.00
C283   C     0.63301   0.66131   0.37899   0.00000  Uiso   1.00
C284   C     0.56472   0.62579   0.33826   0.00000  Uiso   1.00
C285   C     0.45104   0.55134   0.28674   0.00000  Uiso   1.00
C286   C     0.75052   0.83234   0.42317   0.00000  Uiso   1.00
C287   C     0.77538   0.87324   0.48457   0.00000  Uiso   1.00
C288   C     0.77219   0.93466   0.49213   0.00000  Uiso   1.00
C289   C     0.77861   0.03897   0.52966   0.00000  Uiso   1.00
C290   C     0.69916   0.79953   0.30834   0.00000  Uiso   1.00
C291   C     0.76212   0.78472   0.30566   0.00000  Uiso   1.00
C292   C     0.79143   0.78946   0.25806   0.00000  Uiso   1.00
C293   C     0.84887   0.77376   0.26431   0.00000  Uiso   1.00
C294   C     0.64608   0.73692   0.31381   0.00000  Uiso   1.00
C295   C     0.57783   0.70148   0.27305   0.00000  Uiso   1.00
C296   C     0.53758   0.64555   0.28615   0.00000  Uiso   1.00
C297   C     0.72343   0.85206   0.37116   0.00000  Uiso   1.00
C298   C     0.72020   0.91342   0.37863   0.00000  Uiso   1.00
C299   C     0.74505   0.95441   0.44002   0.00000  Uiso   1.00
H300   H     0.77012   0.74786   0.44458   0.00000  Uiso   1.00
H301   H     0.86756   0.73402   0.40425   0.00000  Uiso   1.00
H302   H     0.65399   0.64606   0.41924   0.00000  Uiso   1.00
H303   H     0.79634   0.85796   0.52480   0.00000  Uiso   1.00
H304   H     0.96363   0.72735   0.33658   0.00000  Uiso   1.00
H305   H     0.51330   0.54189   0.36821   0.00000  Uiso   1.00
H306   H     0.81347   0.98873   0.59081   0.00000  Uiso   1.00
H307   H     0.67806   0.81489   0.26785   0.00000  Uiso   1.00
H308   H     0.77046   0.80473   0.21782   0.00000  Uiso   1.00
H309   H     0.55688   0.71676   0.23281   0.00000  Uiso   1.00
H310   H     0.69923   0.92867   0.33837   0.00000  Uiso   1.00
H311   H     0.88482   0.78473   0.18527   0.00000  Uiso   1.00
H312   H     0.43448   0.59928   0.21690   0.00000  Uiso   1.00
H313   H     0.73465   0.04611   0.43949   0.00000  Uiso   1.00
O314   O     0.98665   0.74813   0.23119   0.00000  Uiso   1.00
O315   O     0.39583   0.50482   0.27269   0.00000  Uiso   1.00
O316   O     0.78964   0.09106   0.56473   0.00000  Uiso   1.00
N317   N     0.93241   0.74226   0.30784   0.00000  Uiso   1.00
N318   N     0.51138   0.56887   0.33741   0.00000  Uiso   1.00
N319   N     0.79199   0.98661   0.54552   0.00000  Uiso   1.00
N320   N     0.89000   0.77314   0.22642   0.00000  Uiso   1.00
N321   N     0.46897   0.59974   0.25599   0.00000  Uiso   1.00
N322   N     0.74958   0.01749   0.46410   0.00000  Uiso   1.00
C323   C     0.48163   0.70656   0.64787   0.00000  Uiso   1.00
C324   C     0.44827   0.75609   0.65186   0.00000  Uiso   1.00
C325   C     0.44760   0.79854   0.61435   0.00000  Uiso   1.00
C326   C     0.41436   0.84007   0.62537   0.00000  Uiso   1.00
C327   C     0.36730   0.91709   0.62442   0.00000  Uiso   1.00
C328   C     0.42377   0.63913   0.63702   0.00000  Uiso   1.00
C329   C     0.40251   0.58324   0.58704   0.00000  Uiso   1.00
C330   C     0.34866   0.52632   0.58557   0.00000  Uiso   1.00
C331   C     0.26361   0.42175   0.56161   0.00000  Uiso   1.00
C332   C     0.53322   0.72328   0.71383   0.00000  Uiso   1.00
C333   C     0.60399   0.73812   0.72843   0.00000  Uiso   1.00
C334   C     0.64229   0.75203   0.79162   0.00000  Uiso   1.00
C335   C     0.72718   0.77812   0.88691   0.00000  Uiso   1.00
C336   C     0.42380   0.70483   0.73412   0.00000  Uiso   1.00
C337   C     0.41685   0.75515   0.69871   0.00000  Uiso   1.00
C338   C     0.38361   0.79663   0.70979   0.00000  Uiso   1.00
C339   C     0.38290   0.83914   0.67231   0.00000  Uiso   1.00
C340   C     0.39236   0.63819   0.68387   0.00000  Uiso   1.00
C341   C     0.33853   0.58133   0.68248   0.00000  Uiso   1.00
C342   C     0.31719   0.52538   0.63251   0.00000  Uiso   1.00
C343   C     0.50181   0.72234   0.76068   0.00000  Uiso   1.00
C344   C     0.54001   0.73622   0.82386   0.00000  Uiso   1.00
C345   C     0.61082   0.75110   0.83856   0.00000  Uiso   1.00
H346   H     0.50608   0.70728   0.61139   0.00000  Uiso   1.00
H347   H     0.47190   0.79924   0.57810   0.00000  Uiso   1.00
H348   H     0.42683   0.58398   0.55080   0.00000  Uiso   1.00
H349   H     0.62828   0.73884   0.69216   0.00000  Uiso   1.00
H350   H     0.42014   0.90077   0.56183   0.00000  Uiso   1.00
H351   H     0.32512   0.44686   0.50428   0.00000  Uiso   1.00
H352   H     0.74991   0.77343   0.80237   0.00000  Uiso   1.00
H353   H     0.39935   0.70410   0.77060   0.00000  Uiso   1.00
H354   H     0.35931   0.79590   0.74605   0.00000  Uiso   1.00
H355   H     0.31424   0.58063   0.71874   0.00000  Uiso   1.00
H356   H     0.51568   0.73549   0.86010   0.00000  Uiso   1.00
H357   H     0.32875   0.89805   0.69814   0.00000  Uiso   1.00
H358   H     0.23373   0.44414   0.64059   0.00000  Uiso   1.00
H359   H     0.65852   0.77071   0.93868   0.00000  Uiso   1.00
O360   O     0.35001   0.95983   0.61095   0.00000  Uiso   1.00
O361   O     0.22536   0.36433   0.53545   0.00000  Uiso   1.00
O362   O     0.78267   0.79277   0.92653   0.00000  Uiso   1.00
N363   N     0.40413   0.88754   0.59729   0.00000  Uiso   1.00
N364   N     0.31529   0.46317   0.54348   0.00000  Uiso   1.00
N365   N     0.71243   0.76846   0.82216   0.00000  Uiso   1.00
N366   N     0.35496   0.88608   0.67064   0.00000  Uiso   1.00
N367   N     0.26612   0.46171   0.61683   0.00000  Uiso   1.00
N368   N     0.66326   0.76700   0.89551   0.00000  Uiso   1.00
C369   C     0.80471   0.43641   0.86030   0.00000  Uiso   1.00
C370   C     0.77396   0.40125   0.90451   0.00000  Uiso   1.00
C371   C     0.76141   0.43082   0.95642   0.00000  Uiso   1.00
C372   C     0.73301   0.39014   0.99086   0.00000  Uiso   1.00
C373   C     0.68755   0.34586   0.06205   0.00000  Uiso   1.00
C374   C     0.75192   0.39984   0.79393   0.00000  Uiso   1.00
C375   C     0.72086   0.42823   0.75288   0.00000  Uiso   1.00
C376   C     0.67391   0.38636   0.69423   0.00000  Uiso   1.00
C377   C     0.59427   0.33990   0.59373   0.00000  Uiso   1.00
C378   C     0.86897   0.42258   0.86112   0.00000  Uiso   1.00
C379   C     0.93633   0.47009   0.87654   0.00000  Uiso   1.00
C380   C     0.98794   0.44736   0.87444   0.00000  Uiso   1.00
C381   C     0.09005   0.43621   0.87826   0.00000  Uiso   1.00
C382   C     0.77658   0.31158   0.82914   0.00000  Uiso   1.00
C383   C     0.75867   0.33345   0.88758   0.00000  Uiso   1.00
C384   C     0.73029   0.29272   0.92195   0.00000  Uiso   1.00
C385   C     0.71771   0.32222   0.97391   0.00000  Uiso   1.00
C386   C     0.73664   0.33205   0.77700   0.00000  Uiso   1.00
C387   C     0.68973   0.29012   0.71840   0.00000  Uiso   1.00
C388   C     0.65860   0.31844   0.67727   0.00000  Uiso   1.00
C389   C     0.85370   0.35478   0.84419   0.00000  Uiso   1.00
C390   C     0.90521   0.33198   0.84207   0.00000  Uiso   1.00
C391   C     0.97263   0.37944   0.85749   0.00000  Uiso   1.00
H392   H     0.81660   0.48919   0.87348   0.00000  Uiso   1.00
H393   H     0.77324   0.48329   0.96950   0.00000  Uiso   1.00
H394   H     0.73270   0.48070   0.76599   0.00000  Uiso   1.00
H395   H     0.94814   0.52255   0.88963   0.00000  Uiso   1.00
H396   H     0.71840   0.44685   0.06849   0.00000  Uiso   1.00
H397   H     0.63293   0.44138   0.63936   0.00000  Uiso   1.00
H398   H     0.08723   0.52963   0.90009   0.00000  Uiso   1.00
H399   H     0.76468   0.25880   0.81596   0.00000  Uiso   1.00
H400   H     0.71847   0.24025   0.90884   0.00000  Uiso   1.00
H401   H     0.67792   0.23766   0.70532   0.00000  Uiso   1.00
H402   H     0.89336   0.27951   0.82897   0.00000  Uiso   1.00
H403   H     0.67394   0.24959   0.01925   0.00000  Uiso   1.00
H404   H     0.58847   0.24412   0.59011   0.00000  Uiso   1.00
H405   H     0.04277   0.33237   0.85085   0.00000  Uiso   1.00
O406   O     0.66668   0.34017   0.10599   0.00000  Uiso   1.00
O407   O     0.55456   0.33300   0.54298   0.00000  Uiso   1.00
O408   O     0.15059   0.44879   0.88506   0.00000  Uiso   1.00
N409   N     0.71429   0.40297   0.04416   0.00000  Uiso   1.00
N410   N     0.63437   0.39786   0.64295   0.00000  Uiso   1.00
N411   N     0.05910   0.48037   0.88670   0.00000  Uiso   1.00
N412   N     0.69037   0.29682   0.01767   0.00000  Uiso   1.00
N413   N     0.61045   0.29171   0.61646   0.00000  Uiso   1.00
N414   N     0.03518   0.37422   0.86020   0.00000  Uiso   1.00
C415   C     0.35634   0.05186   0.32345   0.00000  Uiso   1.00
C416   C     0.39767   0.01522   0.30136   0.00000  Uiso   1.00
C417   C     0.44246   0.03561   0.26762   0.00000  Uiso   1.00
C418   C     0.47536   0.99515   0.25185   0.00000  Uiso   1.00
C419   C     0.54127   0.94717   0.21488   0.00000  Uiso   1.00
C420   C     0.27997   0.00274   0.29601   0.00000  Uiso   1.00
C421   C     0.22579   0.01264   0.25779   0.00000  Uiso   1.00
C422   C     0.15961   0.96168   0.23754   0.00000  Uiso   1.00
C423   C     0.04277   0.89434   0.19231   0.00000  Uiso   1.00
C424   C     0.37685   0.06354   0.39489   0.00000  Uiso   1.00
C425   C     0.40411   0.12458   0.43981   0.00000  Uiso   1.00
C426   C     0.41948   0.12481   0.50280   0.00000  Uiso   1.00
C427   C     0.45306   0.15188   0.61109   0.00000  Uiso   1.00
C428   C     0.33515   0.94376   0.35544   0.00000  Uiso   1.00
C429   C     0.38616   0.95650   0.31873   0.00000  Uiso   1.00
C430   C     0.41901   0.91600   0.30301   0.00000  Uiso   1.00
C431   C     0.46384   0.93633   0.26926   0.00000  Uiso   1.00
C432   C     0.26846   0.94402   0.31339   0.00000  Uiso   1.00
C433   C     0.20234   0.89303   0.29318   0.00000  Uiso   1.00
C434   C     0.14808   0.90286   0.25494   0.00000  Uiso   1.00
C435   C     0.36534   0.00483   0.41226   0.00000  Uiso   1.00
C436   C     0.38067   0.00496   0.47520   0.00000  Uiso   1.00
C437   C     0.40795   0.06598   0.52021   0.00000  Uiso   1.00
H438   H     0.36530   0.09758   0.30992   0.00000  Uiso   1.00
H439   H     0.45135   0.08105   0.25418   0.00000  Uiso   1.00
H440   H     0.23471   0.05809   0.24436   0.00000  Uiso   1.00
H441   H     0.41301   0.17000   0.42634   0.00000  Uiso   1.00
H442   H     0.54165   0.03682   0.20002   0.00000  Uiso   1.00
H443   H     0.08486   0.98842   0.17934   0.00000  Uiso   1.00
H444   H     0.46084   0.22441   0.56309   0.00000  Uiso   1.00
H445   H     0.32619   0.89804   0.36896   0.00000  Uiso   1.00
H446   H     0.41009   0.87056   0.31646   0.00000  Uiso   1.00
H447   H     0.19345   0.84760   0.30664   0.00000  Uiso   1.00
H448   H     0.37175   0.95952   0.48863   0.00000  Uiso   1.00
H449   H     0.50816   0.86598   0.25057   0.00000  Uiso   1.00
H450   H     0.05137   0.81758   0.22989   0.00000  Uiso   1.00
H451   H     0.42735   0.05357   0.61364   0.00000  Uiso   1.00
O452   O     0.58079   0.93692   0.18968   0.00000  Uiso   1.00
O453   O     0.98150   0.87342   0.16255   0.00000  Uiso   1.00
O454   O     0.47477   0.18304   0.66602   0.00000  Uiso   1.00
N455   N     0.52227   0.00039   0.21914   0.00000  Uiso   1.00
N456   N     0.09519   0.95513   0.19979   0.00000  Uiso   1.00
N457   N     0.44668   0.17577   0.55856   0.00000  Uiso   1.00
N458   N     0.50425   0.90846   0.24634   0.00000  Uiso   1.00
N459   N     0.07718   0.86320   0.22699   0.00000  Uiso   1.00
N460   N     0.42867   0.08384   0.58576   0.00000  Uiso   1.00
C461   C     0.87067   0.24845   0.37662   0.00000  Uiso   1.00
C462   C     0.82824   0.25092   0.42059   0.00000  Uiso   1.00
C463   C     0.81026   0.20688   0.45557   0.00000  Uiso   1.00
C464   C     0.77120   0.21760   0.49294   0.00000  Uiso   1.00
C465   C     0.70836   0.21338   0.56084   0.00000  Uiso   1.00
C466   C     0.82548   0.24548   0.31214   0.00000  Uiso   1.00
C467   C     0.80520   0.19686   0.25595   0.00000  Uiso   1.00
C468   C     0.76383   0.20301   0.20204   0.00000  Uiso   1.00
C469   C     0.69677   0.19036   0.10157   0.00000  Uiso   1.00
C470   C     0.93267   0.31566   0.39998   0.00000  Uiso   1.00
C471   C     0.00252   0.32606   0.41763   0.00000  Uiso   1.00
C472   C     0.05139   0.39129   0.43766   0.00000  Uiso   1.00
C473   C     0.15075   0.48761   0.47358   0.00000  Uiso   1.00
C474   C     0.83328   0.34581   0.38080   0.00000  Uiso   1.00
C475   C     0.80792   0.30381   0.42285   0.00000  Uiso   1.00
C476   C     0.76888   0.31460   0.46019   0.00000  Uiso   1.00
C477   C     0.75085   0.27058   0.49522   0.00000  Uiso   1.00
C478   C     0.80517   0.29836   0.31441   0.00000  Uiso   1.00
C479   C     0.76383   0.30458   0.26057   0.00000  Uiso   1.00
C480   C     0.74349   0.25599   0.20431   0.00000  Uiso   1.00
C481   C     0.91236   0.36854   0.40226   0.00000  Uiso   1.00
C482   C     0.96114   0.43377   0.42226   0.00000  Uiso   1.00
C483   C     0.03104   0.44427   0.43993   0.00000  Uiso   1.00
H484   H     0.88649   0.20728   0.37485   0.00000  Uiso   1.00
H485   H     0.82598   0.16596   0.45379   0.00000  Uiso   1.00
H486   H     0.82094   0.15595   0.25421   0.00000  Uiso   1.00
H487   H     0.01821   0.28512   0.41587   0.00000  Uiso   1.00
H488   H     0.74992   0.14346   0.54230   0.00000  Uiso   1.00
H489   H     0.73930   0.12236   0.12146   0.00000  Uiso   1.00
H490   H     0.15531   0.39475   0.46235   0.00000  Uiso   1.00
H491   H     0.81746   0.38698   0.38256   0.00000  Uiso   1.00
H492   H     0.75317   0.35553   0.46194   0.00000  Uiso   1.00
H493   H     0.74812   0.34551   0.26235   0.00000  Uiso   1.00
H494   H     0.94540   0.47469   0.42401   0.00000  Uiso   1.00
H495   H     0.69082   0.29732   0.54891   0.00000  Uiso   1.00
H496   H     0.68020   0.27622   0.12806   0.00000  Uiso   1.00
H497   H     0.09621   0.54861   0.46896   0.00000  Uiso   1.00
O498   O     0.67930   0.19644   0.59766   0.00000  Uiso   1.00
O499   O     0.66538   0.16877   0.04553   0.00000  Uiso   1.00
O500   O     0.21117   0.52613   0.49277   0.00000  Uiso   1.00
N501   N     0.74485   0.18399   0.53297   0.00000  Uiso   1.00
N502   N     0.73491   0.16426   0.13951   0.00000  Uiso   1.00
N503   N     0.12384   0.41892   0.45820   0.00000  Uiso   1.00
N504   N     0.71305   0.26678   0.53653   0.00000  Uiso   1.00
N505   N     0.70311   0.24705   0.14307   0.00000  Uiso   1.00
N506   N     0.09204   0.50171   0.46175   0.00000  Uiso   1.00
C507   C     0.29460   0.29902   0.96210   0.00000  Uiso   1.00
C508   C     0.29293   0.33171   0.90871   0.00000  Uiso   1.00
C509   C     0.24160   0.35196   0.88198   0.00000  Uiso   1.00
C510   C     0.24955   0.38082   0.83362   0.00000  Uiso   1.00
C511   C     0.23823   0.43027   0.75387   0.00000  Uiso   1.00
C512   C     0.29885   0.23360   0.93693   0.00000  Uiso   1.00
C513   C     0.25249   0.17137   0.93394   0.00000  Uiso   1.00
C514   C     0.26543   0.11764   0.90935   0.00000  Uiso   1.00
C515   C     0.26333   0.01479   0.87346   0.00000  Uiso   1.00
C516   C     0.36425   0.34220   0.01437   0.00000  Uiso   1.00
C517   C     0.37288   0.37127   0.07649   0.00000  Uiso   1.00
C518   C     0.44088   0.40896   0.11710   0.00000  Uiso   1.00
C519   C     0.54032   0.47474   0.20144   0.00000  Uiso   1.00
C520   C     0.40000   0.31426   0.92376   0.00000  Uiso   1.00
C521   C     0.35018   0.33998   0.88789   0.00000  Uiso   1.00
C522   C     0.35821   0.36882   0.83956   0.00000  Uiso   1.00
C523   C     0.30690   0.38911   0.81276   0.00000  Uiso   1.00
C524   C     0.35610   0.24187   0.91611   0.00000  Uiso   1.00
C525   C     0.36911   0.18823   0.89153   0.00000  Uiso   1.00
C526   C     0.32279   0.12593   0.88849   0.00000  Uiso   1.00
C527   C     0.42150   0.35048   0.99355   0.00000  Uiso   1.00
C528   C     0.48950   0.38813   0.03407   0.00000  Uiso   1.00
C529   C     0.49824   0.41725   0.09624   0.00000  Uiso   1.00
H530   H     0.25003   0.29258   0.97831   0.00000  Uiso   1.00
H531   H     0.19730   0.34554   0.89810   0.00000  Uiso   1.00
H532   H     0.20820   0.16498   0.95006   0.00000  Uiso   1.00
H533   H     0.32857   0.36485   0.09259   0.00000  Uiso   1.00
H534   H     0.16407   0.40789   0.79998   0.00000  Uiso   1.00
H535   H     0.18707   0.02717   0.90956   0.00000  Uiso   1.00
H536   H     0.44089   0.44864   0.21010   0.00000  Uiso   1.00
H537   H     0.44457   0.32070   0.90755   0.00000  Uiso   1.00
H538   H     0.40252   0.37521   0.82346   0.00000  Uiso   1.00
H539   H     0.41342   0.19465   0.87542   0.00000  Uiso   1.00
H540   H     0.53379   0.39452   0.01794   0.00000  Uiso   1.00
H541   H     0.33064   0.43197   0.73939   0.00000  Uiso   1.00
H542   H     0.35363   0.05125   0.84898   0.00000  Uiso   1.00
H543   H     0.60746   0.47272   0.14952   0.00000  Uiso   1.00
O544   O     0.21617   0.45526   0.71563   0.00000  Uiso   1.00
O545   O     0.24635   0.95577   0.85941   0.00000  Uiso   1.00
O546   O     0.57935   0.50873   0.25371   0.00000  Uiso   1.00
N547   N     0.20905   0.40609   0.79727   0.00000  Uiso   1.00
N548   N     0.23055   0.05014   0.89971   0.00000  Uiso   1.00
N549   N     0.46785   0.44416   0.18070   0.00000  Uiso   1.00
N550   N     0.29868   0.41904   0.76467   0.00000  Uiso   1.00
N551   N     0.32017   0.06310   0.86711   0.00000  Uiso   1.00
N552   N     0.55748   0.45712   0.14810   0.00000  Uiso   1.00
