data_job_01336
_audit_creation_date              2018-12-19
_audit_creation_method            'Materials Studio'
_symmetry_space_group_name_H-M    'P1'
_symmetry_Int_Tables_number       1
_symmetry_cell_setting            triclinic
loop_
_symmetry_equiv_pos_as_xyz
  x,y,z
_cell_length_a                    32.5970
_cell_length_b                    11.5917
_cell_length_c                    13.8627
_cell_angle_alpha                 90.0000
_cell_angle_beta                  68.7178
_cell_angle_gamma                 90.0000
loop_
_atom_site_label
_atom_site_type_symbol
_atom_site_fract_x
_atom_site_fract_y
_atom_site_fract_z
_atom_site_U_iso_or_equiv
_atom_site_adp_type
_atom_site_occupancy
C1     C     0.64703   0.76129   0.93307   0.00000  Uiso   1.00
C2     C     0.65744   0.69850   0.01812   0.00000  Uiso   1.00
C3     C     0.69338   0.62707   0.00341   0.00000  Uiso   1.00
C4     C     0.69704   0.57768   0.09117   0.00000  Uiso   1.00
C5     C     0.71794   0.47689   0.20818   0.00000  Uiso   1.00
C6     C     0.60075   0.72348   0.94394   0.00000  Uiso   1.00
C7     C     0.58903   0.67306   0.86685   0.00000  Uiso   1.00
C8     C     0.54497   0.64472   0.89216   0.00000  Uiso   1.00
C9     C     0.47785   0.58278   0.89398   0.00000  Uiso   1.00
C10    C     0.64356   0.88883   0.96189   0.00000  Uiso   1.00
C11    C     0.66782   0.97746   0.89988   0.00000  Uiso   1.00
C12    C     0.65980   0.08833   0.94030   0.00000  Uiso   1.00
C13    C     0.65915   0.28313   0.97000   0.00000  Uiso   1.00
C14    C     0.58964   0.80061   0.11508   0.00000  Uiso   1.00
C15    C     0.62627   0.71986   0.11698   0.00000  Uiso   1.00
C16    C     0.62988   0.67057   0.20479   0.00000  Uiso   1.00
C17    C     0.66581   0.59908   0.19021   0.00000  Uiso   1.00
C18    C     0.56958   0.74483   0.04279   0.00000  Uiso   1.00
C19    C     0.52553   0.71656   0.06823   0.00000  Uiso   1.00
C20    C     0.51374   0.66611   0.99120   0.00000  Uiso   1.00
C21    C     0.61239   0.91019   0.06075   0.00000  Uiso   1.00
C22    C     0.60432   0.02095   0.10127   0.00000  Uiso   1.00
C23    C     0.62857   0.10973   0.03935   0.00000  Uiso   1.00
H24    H     0.67130   0.74466   0.85610   0.00000  Uiso   1.00
H25    H     0.71749   0.61056   0.92688   0.00000  Uiso   1.00
H26    H     0.61316   0.65656   0.79035   0.00000  Uiso   1.00
H27    H     0.69194   0.96090   0.82338   0.00000  Uiso   1.00
H28    H     0.75495   0.47126   0.04896   0.00000  Uiso   1.00
H29    H     0.53495   0.56829   0.76105   0.00000  Uiso   1.00
H30    H     0.70108   0.21005   0.83071   0.00000  Uiso   1.00
H31    H     0.56537   0.81724   0.19206   0.00000  Uiso   1.00
H32    H     0.60575   0.68711   0.28128   0.00000  Uiso   1.00
H33    H     0.50141   0.73311   0.14474   0.00000  Uiso   1.00
H34    H     0.58020   0.03745   0.17778   0.00000  Uiso   1.00
H35    H     0.66426   0.53339   0.33660   0.00000  Uiso   1.00
H36    H     0.44426   0.63042   0.04869   0.00000  Uiso   1.00
H37    H     0.61039   0.27218   0.11835   0.00000  Uiso   1.00
O38    O     0.73807   0.41538   0.24541   0.00000  Uiso   1.00
O39    O     0.44944   0.54270   0.86768   0.00000  Uiso   1.00
O40    O     0.66740   0.38467   0.95907   0.00000  Uiso   1.00
N41    N     0.72807   0.50376   0.10442   0.00000  Uiso   1.00
N42    N     0.52238   0.59446   0.83524   0.00000  Uiso   1.00
N43    N     0.67769   0.19445   0.90036   0.00000  Uiso   1.00
N44    N     0.67927   0.53719   0.25919   0.00000  Uiso   1.00
N45    N     0.47358   0.62789   0.99002   0.00000  Uiso   1.00
N46    N     0.62889   0.22789   0.05513   0.00000  Uiso   1.00
C47    C     0.14703   0.26129   0.93307   0.00000  Uiso   1.00
C48    C     0.15744   0.19850   0.01812   0.00000  Uiso   1.00
C49    C     0.19338   0.12707   0.00341   0.00000  Uiso   1.00
C50    C     0.19704   0.07768   0.09117   0.00000  Uiso   1.00
C51    C     0.21794   0.97689   0.20818   0.00000  Uiso   1.00
C52    C     0.10075   0.22348   0.94394   0.00000  Uiso   1.00
C53    C     0.08903   0.17306   0.86685   0.00000  Uiso   1.00
C54    C     0.04497   0.14472   0.89216   0.00000  Uiso   1.00
C55    C     0.97785   0.08278   0.89398   0.00000  Uiso   1.00
C56    C     0.14356   0.38883   0.96189   0.00000  Uiso   1.00
C57    C     0.16782   0.47746   0.89988   0.00000  Uiso   1.00
C58    C     0.15980   0.58833   0.94030   0.00000  Uiso   1.00
C59    C     0.15915   0.78313   0.97000   0.00000  Uiso   1.00
C60    C     0.08964   0.30061   0.11508   0.00000  Uiso   1.00
C61    C     0.12627   0.21986   0.11698   0.00000  Uiso   1.00
C62    C     0.12988   0.17057   0.20479   0.00000  Uiso   1.00
C63    C     0.16581   0.09908   0.19021   0.00000  Uiso   1.00
C64    C     0.06958   0.24483   0.04279   0.00000  Uiso   1.00
C65    C     0.02553   0.21656   0.06823   0.00000  Uiso   1.00
C66    C     0.01374   0.16611   0.99120   0.00000  Uiso   1.00
C67    C     0.11239   0.41019   0.06075   0.00000  Uiso   1.00
C68    C     0.10432   0.52095   0.10127   0.00000  Uiso   1.00
C69    C     0.12857   0.60973   0.03935   0.00000  Uiso   1.00
H70    H     0.17130   0.24466   0.85610   0.00000  Uiso   1.00
H71    H     0.21749   0.11056   0.92688   0.00000  Uiso   1.00
H72    H     0.11316   0.15656   0.79035   0.00000  Uiso   1.00
H73    H     0.19194   0.46090   0.82338   0.00000  Uiso   1.00
H74    H     0.25495   0.97126   0.04896   0.00000  Uiso   1.00
H75    H     0.03495   0.06829   0.76105   0.00000  Uiso   1.00
H76    H     0.20108   0.71005   0.83071   0.00000  Uiso   1.00
H77    H     0.06537   0.31724   0.19206   0.00000  Uiso   1.00
H78    H     0.10575   0.18711   0.28128   0.00000  Uiso   1.00
H79    H     0.00141   0.23311   0.14474   0.00000  Uiso   1.00
H80    H     0.08020   0.53745   0.17778   0.00000  Uiso   1.00
H81    H     0.16426   0.03339   0.33660   0.00000  Uiso   1.00
H82    H     0.94426   0.13042   0.04869   0.00000  Uiso   1.00
H83    H     0.11039   0.77218   0.11835   0.00000  Uiso   1.00
O84    O     0.23807   0.91538   0.24541   0.00000  Uiso   1.00
O85    O     0.94944   0.04270   0.86768   0.00000  Uiso   1.00
O86    O     0.16740   0.88467   0.95907   0.00000  Uiso   1.00
N87    N     0.22807   0.00376   0.10442   0.00000  Uiso   1.00
N88    N     0.02238   0.09446   0.83524   0.00000  Uiso   1.00
N89    N     0.17769   0.69445   0.90036   0.00000  Uiso   1.00
N90    N     0.17927   0.03719   0.25919   0.00000  Uiso   1.00
N91    N     0.97358   0.12789   0.99002   0.00000  Uiso   1.00
N92    N     0.12889   0.72789   0.05513   0.00000  Uiso   1.00
C93    C     0.35297   0.76129   0.56693   0.00000  Uiso   1.00
C94    C     0.34256   0.69850   0.48188   0.00000  Uiso   1.00
C95    C     0.30662   0.62707   0.49659   0.00000  Uiso   1.00
C96    C     0.30296   0.57768   0.40883   0.00000  Uiso   1.00
C97    C     0.28206   0.47689   0.29182   0.00000  Uiso   1.00
C98    C     0.39925   0.72348   0.55606   0.00000  Uiso   1.00
C99    C     0.41097   0.67306   0.63315   0.00000  Uiso   1.00
C100   C     0.45503   0.64472   0.60784   0.00000  Uiso   1.00
C101   C     0.52215   0.58278   0.60602   0.00000  Uiso   1.00
C102   C     0.35644   0.88883   0.53811   0.00000  Uiso   1.00
C103   C     0.33218   0.97746   0.60012   0.00000  Uiso   1.00
C104   C     0.34020   0.08833   0.55970   0.00000  Uiso   1.00
C105   C     0.34085   0.28313   0.53000   0.00000  Uiso   1.00
C106   C     0.41036   0.80061   0.38492   0.00000  Uiso   1.00
C107   C     0.37373   0.71986   0.38302   0.00000  Uiso   1.00
C108   C     0.37012   0.67057   0.29521   0.00000  Uiso   1.00
C109   C     0.33419   0.59908   0.30979   0.00000  Uiso   1.00
C110   C     0.43042   0.74483   0.45721   0.00000  Uiso   1.00
C111   C     0.47447   0.71656   0.43177   0.00000  Uiso   1.00
C112   C     0.48626   0.66611   0.50880   0.00000  Uiso   1.00
C113   C     0.38761   0.91019   0.43925   0.00000  Uiso   1.00
C114   C     0.39568   0.02095   0.39873   0.00000  Uiso   1.00
C115   C     0.37143   0.10973   0.46065   0.00000  Uiso   1.00
H116   H     0.32870   0.74466   0.64390   0.00000  Uiso   1.00
H117   H     0.28251   0.61056   0.57312   0.00000  Uiso   1.00
H118   H     0.38684   0.65656   0.70965   0.00000  Uiso   1.00
H119   H     0.30806   0.96090   0.67662   0.00000  Uiso   1.00
H120   H     0.24505   0.47126   0.45104   0.00000  Uiso   1.00
H121   H     0.46505   0.56829   0.73895   0.00000  Uiso   1.00
H122   H     0.29892   0.21005   0.66929   0.00000  Uiso   1.00
H123   H     0.43463   0.81724   0.30794   0.00000  Uiso   1.00
H124   H     0.39425   0.68711   0.21872   0.00000  Uiso   1.00
H125   H     0.49859   0.73311   0.35526   0.00000  Uiso   1.00
H126   H     0.41980   0.03745   0.32222   0.00000  Uiso   1.00
H127   H     0.33574   0.53339   0.16340   0.00000  Uiso   1.00
H128   H     0.55574   0.63042   0.45131   0.00000  Uiso   1.00
H129   H     0.38961   0.27218   0.38165   0.00000  Uiso   1.00
O130   O     0.26193   0.41538   0.25459   0.00000  Uiso   1.00
O131   O     0.55056   0.54270   0.63232   0.00000  Uiso   1.00
O132   O     0.33260   0.38467   0.54093   0.00000  Uiso   1.00
N133   N     0.27193   0.50376   0.39558   0.00000  Uiso   1.00
N134   N     0.47762   0.59446   0.66476   0.00000  Uiso   1.00
N135   N     0.32231   0.19445   0.59964   0.00000  Uiso   1.00
N136   N     0.32073   0.53719   0.24081   0.00000  Uiso   1.00
N137   N     0.52642   0.62789   0.50998   0.00000  Uiso   1.00
N138   N     0.37111   0.22789   0.44487   0.00000  Uiso   1.00
C139   C     0.85297   0.26129   0.56693   0.00000  Uiso   1.00
C140   C     0.84256   0.19850   0.48188   0.00000  Uiso   1.00
C141   C     0.80662   0.12707   0.49659   0.00000  Uiso   1.00
C142   C     0.80296   0.07768   0.40883   0.00000  Uiso   1.00
C143   C     0.78206   0.97689   0.29182   0.00000  Uiso   1.00
C144   C     0.89925   0.22348   0.55606   0.00000  Uiso   1.00
C145   C     0.91097   0.17306   0.63315   0.00000  Uiso   1.00
C146   C     0.95503   0.14472   0.60784   0.00000  Uiso   1.00
C147   C     0.02215   0.08278   0.60602   0.00000  Uiso   1.00
C148   C     0.85644   0.38883   0.53811   0.00000  Uiso   1.00
C149   C     0.83218   0.47746   0.60012   0.00000  Uiso   1.00
C150   C     0.84020   0.58833   0.55970   0.00000  Uiso   1.00
C151   C     0.84085   0.78313   0.53000   0.00000  Uiso   1.00
C152   C     0.91036   0.30061   0.38492   0.00000  Uiso   1.00
C153   C     0.87373   0.21986   0.38302   0.00000  Uiso   1.00
C154   C     0.87012   0.17057   0.29521   0.00000  Uiso   1.00
C155   C     0.83419   0.09908   0.30979   0.00000  Uiso   1.00
C156   C     0.93042   0.24483   0.45721   0.00000  Uiso   1.00
C157   C     0.97447   0.21656   0.43177   0.00000  Uiso   1.00
C158   C     0.98626   0.16611   0.50880   0.00000  Uiso   1.00
C159   C     0.88761   0.41019   0.43925   0.00000  Uiso   1.00
C160   C     0.89568   0.52095   0.39873   0.00000  Uiso   1.00
C161   C     0.87143   0.60973   0.46065   0.00000  Uiso   1.00
H162   H     0.82870   0.24466   0.64390   0.00000  Uiso   1.00
H163   H     0.78251   0.11056   0.57312   0.00000  Uiso   1.00
H164   H     0.88684   0.15656   0.70965   0.00000  Uiso   1.00
H165   H     0.80806   0.46090   0.67662   0.00000  Uiso   1.00
H166   H     0.74505   0.97126   0.45104   0.00000  Uiso   1.00
H167   H     0.96505   0.06829   0.73895   0.00000  Uiso   1.00
H168   H     0.79892   0.71005   0.66929   0.00000  Uiso   1.00
H169   H     0.93463   0.31724   0.30794   0.00000  Uiso   1.00
H170   H     0.89425   0.18711   0.21872   0.00000  Uiso   1.00
H171   H     0.99859   0.23311   0.35526   0.00000  Uiso   1.00
H172   H     0.91980   0.53745   0.32222   0.00000  Uiso   1.00
H173   H     0.83574   0.03339   0.16340   0.00000  Uiso   1.00
H174   H     0.05574   0.13042   0.45131   0.00000  Uiso   1.00
H175   H     0.88961   0.77218   0.38165   0.00000  Uiso   1.00
O176   O     0.76193   0.91538   0.25459   0.00000  Uiso   1.00
O177   O     0.05056   0.04270   0.63232   0.00000  Uiso   1.00
O178   O     0.83260   0.88467   0.54093   0.00000  Uiso   1.00
N179   N     0.77193   0.00376   0.39558   0.00000  Uiso   1.00
N180   N     0.97762   0.09446   0.66476   0.00000  Uiso   1.00
N181   N     0.82231   0.69445   0.59964   0.00000  Uiso   1.00
N182   N     0.82073   0.03719   0.24081   0.00000  Uiso   1.00
N183   N     0.02642   0.12789   0.50998   0.00000  Uiso   1.00
N184   N     0.87111   0.72789   0.44487   0.00000  Uiso   1.00
C185   C     0.35297   0.23871   0.06693   0.00000  Uiso   1.00
C186   C     0.34256   0.30150   0.98188   0.00000  Uiso   1.00
C187   C     0.30662   0.37293   0.99659   0.00000  Uiso   1.00
C188   C     0.30296   0.42232   0.90883   0.00000  Uiso   1.00
C189   C     0.28206   0.52311   0.79182   0.00000  Uiso   1.00
C190   C     0.39925   0.27652   0.05606   0.00000  Uiso   1.00
C191   C     0.41097   0.32694   0.13315   0.00000  Uiso   1.00
C192   C     0.45503   0.35528   0.10784   0.00000  Uiso   1.00
C193   C     0.52215   0.41722   0.10602   0.00000  Uiso   1.00
C194   C     0.35644   0.11117   0.03811   0.00000  Uiso   1.00
C195   C     0.33218   0.02254   0.10012   0.00000  Uiso   1.00
C196   C     0.34020   0.91167   0.05970   0.00000  Uiso   1.00
C197   C     0.34085   0.71687   0.03000   0.00000  Uiso   1.00
C198   C     0.41036   0.19939   0.88492   0.00000  Uiso   1.00
C199   C     0.37373   0.28014   0.88302   0.00000  Uiso   1.00
C200   C     0.37012   0.32943   0.79521   0.00000  Uiso   1.00
C201   C     0.33419   0.40092   0.80979   0.00000  Uiso   1.00
C202   C     0.43042   0.25517   0.95721   0.00000  Uiso   1.00
C203   C     0.47447   0.28344   0.93177   0.00000  Uiso   1.00
C204   C     0.48626   0.33389   0.00880   0.00000  Uiso   1.00
C205   C     0.38761   0.08981   0.93925   0.00000  Uiso   1.00
C206   C     0.39568   0.97905   0.89873   0.00000  Uiso   1.00
C207   C     0.37143   0.89027   0.96065   0.00000  Uiso   1.00
H208   H     0.32870   0.25534   0.14390   0.00000  Uiso   1.00
H209   H     0.28251   0.38944   0.07312   0.00000  Uiso   1.00
H210   H     0.38684   0.34344   0.20965   0.00000  Uiso   1.00
H211   H     0.30806   0.03910   0.17662   0.00000  Uiso   1.00
H212   H     0.24505   0.52874   0.95104   0.00000  Uiso   1.00
H213   H     0.46505   0.43171   0.23895   0.00000  Uiso   1.00
H214   H     0.29892   0.78995   0.16929   0.00000  Uiso   1.00
H215   H     0.43463   0.18276   0.80794   0.00000  Uiso   1.00
H216   H     0.39425   0.31289   0.71872   0.00000  Uiso   1.00
H217   H     0.49859   0.26689   0.85526   0.00000  Uiso   1.00
H218   H     0.41980   0.96255   0.82222   0.00000  Uiso   1.00
H219   H     0.33574   0.46661   0.66340   0.00000  Uiso   1.00
H220   H     0.55574   0.36958   0.95131   0.00000  Uiso   1.00
H221   H     0.38961   0.72782   0.88165   0.00000  Uiso   1.00
O222   O     0.26193   0.58462   0.75459   0.00000  Uiso   1.00
O223   O     0.55056   0.45730   0.13232   0.00000  Uiso   1.00
O224   O     0.33260   0.61533   0.04093   0.00000  Uiso   1.00
N225   N     0.27193   0.49624   0.89558   0.00000  Uiso   1.00
N226   N     0.47762   0.40554   0.16476   0.00000  Uiso   1.00
N227   N     0.32231   0.80555   0.09964   0.00000  Uiso   1.00
N228   N     0.32073   0.46281   0.74081   0.00000  Uiso   1.00
N229   N     0.52642   0.37211   0.00998   0.00000  Uiso   1.00
N230   N     0.37111   0.77211   0.94487   0.00000  Uiso   1.00
C231   C     0.85297   0.73871   0.06693   0.00000  Uiso   1.00
C232   C     0.84256   0.80150   0.98188   0.00000  Uiso   1.00
C233   C     0.80662   0.87293   0.99659   0.00000  Uiso   1.00
C234   C     0.80296   0.92232   0.90883   0.00000  Uiso   1.00
C235   C     0.78206   0.02311   0.79182   0.00000  Uiso   1.00
C236   C     0.89925   0.77652   0.05606   0.00000  Uiso   1.00
C237   C     0.91097   0.82694   0.13315   0.00000  Uiso   1.00
C238   C     0.95503   0.85528   0.10784   0.00000  Uiso   1.00
C239   C     0.02215   0.91722   0.10602   0.00000  Uiso   1.00
C240   C     0.85644   0.61117   0.03811   0.00000  Uiso   1.00
C241   C     0.83218   0.52254   0.10012   0.00000  Uiso   1.00
C242   C     0.84020   0.41167   0.05970   0.00000  Uiso   1.00
C243   C     0.84085   0.21687   0.03000   0.00000  Uiso   1.00
C244   C     0.91036   0.69939   0.88492   0.00000  Uiso   1.00
C245   C     0.87373   0.78014   0.88302   0.00000  Uiso   1.00
C246   C     0.87012   0.82943   0.79521   0.00000  Uiso   1.00
C247   C     0.83419   0.90092   0.80979   0.00000  Uiso   1.00
C248   C     0.93042   0.75517   0.95721   0.00000  Uiso   1.00
C249   C     0.97447   0.78344   0.93177   0.00000  Uiso   1.00
C250   C     0.98626   0.83389   0.00880   0.00000  Uiso   1.00
C251   C     0.88761   0.58981   0.93925   0.00000  Uiso   1.00
C252   C     0.89568   0.47905   0.89873   0.00000  Uiso   1.00
C253   C     0.87143   0.39027   0.96065   0.00000  Uiso   1.00
H254   H     0.82870   0.75534   0.14390   0.00000  Uiso   1.00
H255   H     0.78251   0.88944   0.07312   0.00000  Uiso   1.00
H256   H     0.88684   0.84344   0.20965   0.00000  Uiso   1.00
H257   H     0.80806   0.53910   0.17662   0.00000  Uiso   1.00
H258   H     0.74505   0.02874   0.95104   0.00000  Uiso   1.00
H259   H     0.96505   0.93171   0.23895   0.00000  Uiso   1.00
H260   H     0.79892   0.28995   0.16929   0.00000  Uiso   1.00
H261   H     0.93463   0.68276   0.80794   0.00000  Uiso   1.00
H262   H     0.89425   0.81289   0.71872   0.00000  Uiso   1.00
H263   H     0.99859   0.76689   0.85526   0.00000  Uiso   1.00
H264   H     0.91980   0.46255   0.82222   0.00000  Uiso   1.00
H265   H     0.83574   0.96661   0.66340   0.00000  Uiso   1.00
H266   H     0.05574   0.86958   0.95131   0.00000  Uiso   1.00
H267   H     0.88961   0.22782   0.88165   0.00000  Uiso   1.00
O268   O     0.76193   0.08462   0.75459   0.00000  Uiso   1.00
O269   O     0.05056   0.95730   0.13232   0.00000  Uiso   1.00
O270   O     0.83260   0.11533   0.04093   0.00000  Uiso   1.00
N271   N     0.77193   0.99624   0.89558   0.00000  Uiso   1.00
N272   N     0.97762   0.90554   0.16476   0.00000  Uiso   1.00
N273   N     0.82231   0.30555   0.09964   0.00000  Uiso   1.00
N274   N     0.82073   0.96281   0.74081   0.00000  Uiso   1.00
N275   N     0.02642   0.87211   0.00998   0.00000  Uiso   1.00
N276   N     0.87111   0.27211   0.94487   0.00000  Uiso   1.00
C277   C     0.64703   0.23871   0.43307   0.00000  Uiso   1.00
C278   C     0.65744   0.30150   0.51812   0.00000  Uiso   1.00
C279   C     0.69338   0.37293   0.50341   0.00000  Uiso   1.00
C280   C     0.69704   0.42232   0.59117   0.00000  Uiso   1.00
C281   C     0.71794   0.52311   0.70818   0.00000  Uiso   1.00
C282   C     0.60075   0.27652   0.44394   0.00000  Uiso   1.00
C283   C     0.58903   0.32694   0.36685   0.00000  Uiso   1.00
C284   C     0.54497   0.35528   0.39216   0.00000  Uiso   1.00
C285   C     0.47785   0.41722   0.39398   0.00000  Uiso   1.00
C286   C     0.64356   0.11117   0.46189   0.00000  Uiso   1.00
C287   C     0.66782   0.02254   0.39988   0.00000  Uiso   1.00
C288   C     0.65980   0.91167   0.44030   0.00000  Uiso   1.00
C289   C     0.65915   0.71687   0.47000   0.00000  Uiso   1.00
C290   C     0.58964   0.19939   0.61508   0.00000  Uiso   1.00
C291   C     0.62627   0.28014   0.61698   0.00000  Uiso   1.00
C292   C     0.62988   0.32943   0.70479   0.00000  Uiso   1.00
C293   C     0.66581   0.40092   0.69021   0.00000  Uiso   1.00
C294   C     0.56958   0.25517   0.54279   0.00000  Uiso   1.00
C295   C     0.52553   0.28344   0.56823   0.00000  Uiso   1.00
C296   C     0.51374   0.33389   0.49120   0.00000  Uiso   1.00
C297   C     0.61239   0.08981   0.56075   0.00000  Uiso   1.00
C298   C     0.60432   0.97905   0.60127   0.00000  Uiso   1.00
C299   C     0.62857   0.89027   0.53935   0.00000  Uiso   1.00
H300   H     0.67130   0.25534   0.35610   0.00000  Uiso   1.00
H301   H     0.71749   0.38944   0.42688   0.00000  Uiso   1.00
H302   H     0.61316   0.34344   0.29035   0.00000  Uiso   1.00
H303   H     0.69194   0.03910   0.32338   0.00000  Uiso   1.00
H304   H     0.75495   0.52874   0.54896   0.00000  Uiso   1.00
H305   H     0.53495   0.43171   0.26105   0.00000  Uiso   1.00
H306   H     0.70108   0.78995   0.33071   0.00000  Uiso   1.00
H307   H     0.56537   0.18276   0.69206   0.00000  Uiso   1.00
H308   H     0.60575   0.31289   0.78128   0.00000  Uiso   1.00
H309   H     0.50141   0.26689   0.64474   0.00000  Uiso   1.00
H310   H     0.58020   0.96255   0.67778   0.00000  Uiso   1.00
H311   H     0.66426   0.46661   0.83660   0.00000  Uiso   1.00
H312   H     0.44426   0.36958   0.54869   0.00000  Uiso   1.00
H313   H     0.61039   0.72782   0.61835   0.00000  Uiso   1.00
O314   O     0.73807   0.58462   0.74541   0.00000  Uiso   1.00
O315   O     0.44944   0.45730   0.36768   0.00000  Uiso   1.00
O316   O     0.66740   0.61533   0.45907   0.00000  Uiso   1.00
N317   N     0.72807   0.49624   0.60442   0.00000  Uiso   1.00
N318   N     0.52238   0.40554   0.33524   0.00000  Uiso   1.00
N319   N     0.67769   0.80555   0.40036   0.00000  Uiso   1.00
N320   N     0.67927   0.46281   0.75919   0.00000  Uiso   1.00
N321   N     0.47358   0.37211   0.49002   0.00000  Uiso   1.00
N322   N     0.62889   0.77211   0.55513   0.00000  Uiso   1.00
C323   C     0.14703   0.73871   0.43307   0.00000  Uiso   1.00
C324   C     0.15744   0.80150   0.51812   0.00000  Uiso   1.00
C325   C     0.19338   0.87293   0.50341   0.00000  Uiso   1.00
C326   C     0.19704   0.92232   0.59117   0.00000  Uiso   1.00
C327   C     0.21794   0.02311   0.70818   0.00000  Uiso   1.00
C328   C     0.10075   0.77652   0.44394   0.00000  Uiso   1.00
C329   C     0.08903   0.82694   0.36685   0.00000  Uiso   1.00
C330   C     0.04497   0.85528   0.39216   0.00000  Uiso   1.00
C331   C     0.97785   0.91722   0.39398   0.00000  Uiso   1.00
C332   C     0.14356   0.61117   0.46189   0.00000  Uiso   1.00
C333   C     0.16782   0.52254   0.39988   0.00000  Uiso   1.00
C334   C     0.15980   0.41167   0.44030   0.00000  Uiso   1.00
C335   C     0.15915   0.21687   0.47000   0.00000  Uiso   1.00
C336   C     0.08964   0.69939   0.61508   0.00000  Uiso   1.00
C337   C     0.12627   0.78014   0.61698   0.00000  Uiso   1.00
C338   C     0.12988   0.82943   0.70479   0.00000  Uiso   1.00
C339   C     0.16581   0.90092   0.69021   0.00000  Uiso   1.00
C340   C     0.06958   0.75517   0.54279   0.00000  Uiso   1.00
C341   C     0.02553   0.78344   0.56823   0.00000  Uiso   1.00
C342   C     0.01374   0.83389   0.49120   0.00000  Uiso   1.00
C343   C     0.11239   0.58981   0.56075   0.00000  Uiso   1.00
C344   C     0.10432   0.47905   0.60127   0.00000  Uiso   1.00
C345   C     0.12857   0.39027   0.53935   0.00000  Uiso   1.00
H346   H     0.17130   0.75534   0.35610   0.00000  Uiso   1.00
H347   H     0.21749   0.88944   0.42688   0.00000  Uiso   1.00
H348   H     0.11316   0.84344   0.29035   0.00000  Uiso   1.00
H349   H     0.19194   0.53910   0.32338   0.00000  Uiso   1.00
H350   H     0.25495   0.02874   0.54896   0.00000  Uiso   1.00
H351   H     0.03495   0.93171   0.26105   0.00000  Uiso   1.00
H352   H     0.20108   0.28995   0.33071   0.00000  Uiso   1.00
H353   H     0.06537   0.68276   0.69206   0.00000  Uiso   1.00
H354   H     0.10575   0.81289   0.78128   0.00000  Uiso   1.00
H355   H     0.00141   0.76689   0.64474   0.00000  Uiso   1.00
H356   H     0.08020   0.46255   0.67778   0.00000  Uiso   1.00
H357   H     0.16426   0.96661   0.83660   0.00000  Uiso   1.00
H358   H     0.94426   0.86958   0.54869   0.00000  Uiso   1.00
H359   H     0.11039   0.22782   0.61835   0.00000  Uiso   1.00
O360   O     0.23807   0.08462   0.74541   0.00000  Uiso   1.00
O361   O     0.94944   0.95730   0.36768   0.00000  Uiso   1.00
O362   O     0.16740   0.11533   0.45907   0.00000  Uiso   1.00
N363   N     0.22807   0.99624   0.60442   0.00000  Uiso   1.00
N364   N     0.02238   0.90554   0.33524   0.00000  Uiso   1.00
N365   N     0.17769   0.30555   0.40036   0.00000  Uiso   1.00
N366   N     0.17927   0.96281   0.75919   0.00000  Uiso   1.00
N367   N     0.97358   0.87211   0.49002   0.00000  Uiso   1.00
N368   N     0.12889   0.27211   0.55513   0.00000  Uiso   1.00
