data_job_05285
_audit_creation_date              2018-12-19
_audit_creation_method            'Materials Studio'
_symmetry_space_group_name_H-M    'P1'
_symmetry_Int_Tables_number       1
_symmetry_cell_setting            triclinic
loop_
_symmetry_equiv_pos_as_xyz
  x,y,z
_cell_length_a                    32.8091
_cell_length_b                    12.1442
_cell_length_c                    24.3075
_cell_angle_alpha                 90.0000
_cell_angle_beta                  136.6134
_cell_angle_gamma                 90.0000
loop_
_atom_site_label
_atom_site_type_symbol
_atom_site_fract_x
_atom_site_fract_y
_atom_site_fract_z
_atom_site_U_iso_or_equiv
_atom_site_adp_type
_atom_site_occupancy
C1     C     0.39645   0.80158   0.00265   0.00000  Uiso   1.00
C2     C     0.41979   0.68578   0.01457   0.00000  Uiso   1.00
C3     C     0.40329   0.61849   0.95486   0.00000  Uiso   1.00
C4     C     0.42971   0.51536   0.97796   0.00000  Uiso   1.00
C5     C     0.45963   0.34078   0.98430   0.00000  Uiso   1.00
C6     C     0.37094   0.79942   0.03573   0.00000  Uiso   1.00
C7     C     0.31337   0.82768   0.99380   0.00000  Uiso   1.00
C8     C     0.29867   0.82022   0.03472   0.00000  Uiso   1.00
C9     C     0.25276   0.82215   0.07392   0.00000  Uiso   1.00
C10    C     0.45087   0.87602   0.05855   0.00000  Uiso   1.00
C11    C     0.46050   0.96872   0.03582   0.00000  Uiso   1.00
C12    C     0.51308   0.02578   0.09596   0.00000  Uiso   1.00
C13    C     0.59127   0.14664   0.17060   0.00000  Uiso   1.00
C14    C     0.47270   0.73810   0.14988   0.00000  Uiso   1.00
C15    C     0.46121   0.65130   0.09455   0.00000  Uiso   1.00
C16    C     0.48766   0.54825   0.11775   0.00000  Uiso   1.00
C17    C     0.47120   0.48081   0.05808   0.00000  Uiso   1.00
C18    C     0.41236   0.76494   0.11570   0.00000  Uiso   1.00
C19    C     0.39774   0.75744   0.15669   0.00000  Uiso   1.00
C20    C     0.34016   0.78568   0.11483   0.00000  Uiso   1.00
C21    C     0.49229   0.84155   0.13852   0.00000  Uiso   1.00
C22    C     0.54486   0.89848   0.19871   0.00000  Uiso   1.00
C23    C     0.55457   0.99124   0.17608   0.00000  Uiso   1.00
H24    H     0.36420   0.82842   0.94040   0.00000  Uiso   1.00
H25    H     0.37123   0.64520   0.89297   0.00000  Uiso   1.00
H26    H     0.28133   0.85437   0.93192   0.00000  Uiso   1.00
H27    H     0.42843   0.99538   0.97393   0.00000  Uiso   1.00
H28    H     0.39728   0.42684   0.87566   0.00000  Uiso   1.00
H29    H     0.20772   0.86792   0.95778   0.00000  Uiso   1.00
H30    H     0.51791   0.16527   0.04637   0.00000  Uiso   1.00
H31    H     0.50495   0.71125   0.21215   0.00000  Uiso   1.00
H32    H     0.51971   0.52159   0.17964   0.00000  Uiso   1.00
H33    H     0.42980   0.73076   0.21858   0.00000  Uiso   1.00
H34    H     0.57690   0.87177   0.26059   0.00000  Uiso   1.00
H35    H     0.51778   0.32651   0.10833   0.00000  Uiso   1.00
H36    H     0.32822   0.76760   0.19044   0.00000  Uiso   1.00
H37    H     0.63842   0.06495   0.27904   0.00000  Uiso   1.00
O38    O     0.46469   0.25401   0.96571   0.00000  Uiso   1.00
O39    O     0.21599   0.83272   0.07344   0.00000  Uiso   1.00
O40    O     0.62296   0.22283   0.18967   0.00000  Uiso   1.00
N41    N     0.42362   0.42926   0.93489   0.00000  Uiso   1.00
N42    N     0.24639   0.84163   0.01165   0.00000  Uiso   1.00
N43    N     0.53639   0.11965   0.09449   0.00000  Uiso   1.00
N44    N     0.48847   0.37528   0.06008   0.00000  Uiso   1.00
N45    N     0.31124   0.78765   0.13685   0.00000  Uiso   1.00
N46    N     0.60123   0.06566   0.21968   0.00000  Uiso   1.00
C47    C     0.89033   0.07677   0.77579   0.00000  Uiso   1.00
C48    C     0.91238   0.19355   0.80807   0.00000  Uiso   1.00
C49    C     0.89405   0.26169   0.83264   0.00000  Uiso   1.00
C50    C     0.91952   0.36565   0.86028   0.00000  Uiso   1.00
C51    C     0.94730   0.54177   0.90991   0.00000  Uiso   1.00
C52    C     0.86655   0.07639   0.69373   0.00000  Uiso   1.00
C53    C     0.80967   0.04601   0.62217   0.00000  Uiso   1.00
C54    C     0.79656   0.05133   0.55356   0.00000  Uiso   1.00
C55    C     0.75319   0.04547   0.42569   0.00000  Uiso   1.00
C56    C     0.94541   0.00384   0.82927   0.00000  Uiso   1.00
C57    C     0.95484   0.91244   0.87166   0.00000  Uiso   1.00
C58    C     0.00812   0.85667   0.91714   0.00000  Uiso   1.00
C59    C     0.08720   0.73817   0.99971   0.00000  Uiso   1.00
C60    C     0.96818   0.14022   0.78119   0.00000  Uiso   1.00
C61    C     0.95467   0.22801   0.81100   0.00000  Uiso   1.00
C62    C     0.98017   0.33190   0.83861   0.00000  Uiso   1.00
C63    C     0.96188   0.40018   0.86322   0.00000  Uiso   1.00
C64    C     0.90883   0.11085   0.69666   0.00000  Uiso   1.00
C65    C     0.89580   0.11621   0.62814   0.00000  Uiso   1.00
C66    C     0.83891   0.08586   0.55649   0.00000  Uiso   1.00
C67    C     0.98769   0.03831   0.83220   0.00000  Uiso   1.00
C68    C     0.04097   0.98266   0.87762   0.00000  Uiso   1.00
C69    C     0.05048   0.89119   0.92008   0.00000  Uiso   1.00
H70    H     0.85741   0.04993   0.77351   0.00000  Uiso   1.00
H71    H     0.86132   0.23499   0.83036   0.00000  Uiso   1.00
H72    H     0.77696   0.01933   0.61993   0.00000  Uiso   1.00
H73    H     0.92211   0.88580   0.86937   0.00000  Uiso   1.00
H74    H     0.88428   0.45538   0.89465   0.00000  Uiso   1.00
H75    H     0.70641   0.00061   0.45095   0.00000  Uiso   1.00
H76    H     0.01249   0.71902   0.97695   0.00000  Uiso   1.00
H77    H     0.00110   0.16705   0.78346   0.00000  Uiso   1.00
H78    H     0.01289   0.35855   0.84087   0.00000  Uiso   1.00
H79    H     0.92853   0.14288   0.63043   0.00000  Uiso   1.00
H80    H     0.07368   0.00935   0.87988   0.00000  Uiso   1.00
H81    H     0.00730   0.55567   0.90318   0.00000  Uiso   1.00
H82    H     0.82943   0.10089   0.45947   0.00000  Uiso   1.00
H83    H     0.13551   0.81930   0.98548   0.00000  Uiso   1.00
O84    O     0.95094   0.62939   0.93647   0.00000  Uiso   1.00
O85    O     0.71758   0.03273   0.35435   0.00000  Uiso   1.00
O86    O     0.11915   0.66330   0.04446   0.00000  Uiso   1.00
N87    N     0.91162   0.45270   0.88880   0.00000  Uiso   1.00
N88    N     0.74532   0.02753   0.47395   0.00000  Uiso   1.00
N89    N     0.03147   0.76425   0.96571   0.00000  Uiso   1.00
N90    N     0.97782   0.50666   0.89338   0.00000  Uiso   1.00
N91    N     0.81152   0.08149   0.47854   0.00000  Uiso   1.00
N92    N     0.09767   0.81821   0.97030   0.00000  Uiso   1.00
C93    C     0.60355   0.30158   0.49735   0.00000  Uiso   1.00
C94    C     0.58021   0.18578   0.48543   0.00000  Uiso   1.00
C95    C     0.59671   0.11849   0.54514   0.00000  Uiso   1.00
C96    C     0.57029   0.01536   0.52204   0.00000  Uiso   1.00
C97    C     0.54037   0.84078   0.51570   0.00000  Uiso   1.00
C98    C     0.62906   0.29942   0.46427   0.00000  Uiso   1.00
C99    C     0.68663   0.32768   0.50620   0.00000  Uiso   1.00
C100   C     0.70133   0.32022   0.46528   0.00000  Uiso   1.00
C101   C     0.74724   0.32215   0.42608   0.00000  Uiso   1.00
C102   C     0.54913   0.37602   0.44145   0.00000  Uiso   1.00
C103   C     0.53950   0.46872   0.46418   0.00000  Uiso   1.00
C104   C     0.48692   0.52578   0.40404   0.00000  Uiso   1.00
C105   C     0.40873   0.64664   0.32940   0.00000  Uiso   1.00
C106   C     0.52730   0.23810   0.35012   0.00000  Uiso   1.00
C107   C     0.53879   0.15130   0.40545   0.00000  Uiso   1.00
C108   C     0.51234   0.04825   0.38225   0.00000  Uiso   1.00
C109   C     0.52880   0.98081   0.44192   0.00000  Uiso   1.00
C110   C     0.58764   0.26494   0.38430   0.00000  Uiso   1.00
C111   C     0.60226   0.25744   0.34331   0.00000  Uiso   1.00
C112   C     0.65984   0.28568   0.38517   0.00000  Uiso   1.00
C113   C     0.50771   0.34155   0.36148   0.00000  Uiso   1.00
C114   C     0.45514   0.39848   0.30129   0.00000  Uiso   1.00
C115   C     0.44543   0.49124   0.32392   0.00000  Uiso   1.00
H116   H     0.63580   0.32842   0.55960   0.00000  Uiso   1.00
H117   H     0.62877   0.14520   0.60703   0.00000  Uiso   1.00
H118   H     0.71867   0.35437   0.56808   0.00000  Uiso   1.00
H119   H     0.57157   0.49538   0.52607   0.00000  Uiso   1.00
H120   H     0.60272   0.92684   0.62434   0.00000  Uiso   1.00
H121   H     0.79228   0.36792   0.54222   0.00000  Uiso   1.00
H122   H     0.48209   0.66527   0.45363   0.00000  Uiso   1.00
H123   H     0.49505   0.21125   0.28785   0.00000  Uiso   1.00
H124   H     0.48029   0.02159   0.32036   0.00000  Uiso   1.00
H125   H     0.57020   0.23076   0.28142   0.00000  Uiso   1.00
H126   H     0.42310   0.37177   0.23941   0.00000  Uiso   1.00
H127   H     0.48222   0.82651   0.39167   0.00000  Uiso   1.00
H128   H     0.67178   0.26760   0.30956   0.00000  Uiso   1.00
H129   H     0.36158   0.56495   0.22096   0.00000  Uiso   1.00
O130   O     0.53531   0.75401   0.53429   0.00000  Uiso   1.00
O131   O     0.78401   0.33272   0.42656   0.00000  Uiso   1.00
O132   O     0.37704   0.72283   0.31033   0.00000  Uiso   1.00
N133   N     0.57638   0.92926   0.56511   0.00000  Uiso   1.00
N134   N     0.75361   0.34163   0.48835   0.00000  Uiso   1.00
N135   N     0.46361   0.61965   0.40551   0.00000  Uiso   1.00
N136   N     0.51153   0.87528   0.43992   0.00000  Uiso   1.00
N137   N     0.68876   0.28765   0.36315   0.00000  Uiso   1.00
N138   N     0.39877   0.56566   0.28032   0.00000  Uiso   1.00
C139   C     0.10967   0.57677   0.72421   0.00000  Uiso   1.00
C140   C     0.08762   0.69355   0.69193   0.00000  Uiso   1.00
C141   C     0.10595   0.76169   0.66736   0.00000  Uiso   1.00
C142   C     0.08048   0.86565   0.63972   0.00000  Uiso   1.00
C143   C     0.05270   0.04177   0.59009   0.00000  Uiso   1.00
C144   C     0.13345   0.57639   0.80627   0.00000  Uiso   1.00
C145   C     0.19033   0.54601   0.87783   0.00000  Uiso   1.00
C146   C     0.20344   0.55133   0.94644   0.00000  Uiso   1.00
C147   C     0.24681   0.54547   0.07431   0.00000  Uiso   1.00
C148   C     0.05459   0.50384   0.67073   0.00000  Uiso   1.00
C149   C     0.04516   0.41244   0.62834   0.00000  Uiso   1.00
C150   C     0.99188   0.35667   0.58286   0.00000  Uiso   1.00
C151   C     0.91280   0.23817   0.50029   0.00000  Uiso   1.00
C152   C     0.03182   0.64022   0.71881   0.00000  Uiso   1.00
C153   C     0.04533   0.72801   0.68900   0.00000  Uiso   1.00
C154   C     0.01983   0.83190   0.66139   0.00000  Uiso   1.00
C155   C     0.03812   0.90018   0.63678   0.00000  Uiso   1.00
C156   C     0.09117   0.61085   0.80334   0.00000  Uiso   1.00
C157   C     0.10420   0.61621   0.87186   0.00000  Uiso   1.00
C158   C     0.16109   0.58586   0.94351   0.00000  Uiso   1.00
C159   C     0.01231   0.53831   0.66780   0.00000  Uiso   1.00
C160   C     0.95903   0.48266   0.62238   0.00000  Uiso   1.00
C161   C     0.94952   0.39119   0.57992   0.00000  Uiso   1.00
H162   H     0.14259   0.54993   0.72649   0.00000  Uiso   1.00
H163   H     0.13868   0.73499   0.66964   0.00000  Uiso   1.00
H164   H     0.22304   0.51933   0.88007   0.00000  Uiso   1.00
H165   H     0.07789   0.38580   0.63063   0.00000  Uiso   1.00
H166   H     0.11572   0.95538   0.60535   0.00000  Uiso   1.00
H167   H     0.29359   0.50061   0.04905   0.00000  Uiso   1.00
H168   H     0.98751   0.21902   0.52305   0.00000  Uiso   1.00
H169   H     0.99890   0.66705   0.71654   0.00000  Uiso   1.00
H170   H     0.98711   0.85855   0.65913   0.00000  Uiso   1.00
H171   H     0.07147   0.64288   0.86957   0.00000  Uiso   1.00
H172   H     0.92632   0.50935   0.62012   0.00000  Uiso   1.00
H173   H     0.99270   0.05567   0.59682   0.00000  Uiso   1.00
H174   H     0.17057   0.60089   0.04053   0.00000  Uiso   1.00
H175   H     0.86449   0.31930   0.51452   0.00000  Uiso   1.00
O176   O     0.04906   0.12939   0.56353   0.00000  Uiso   1.00
O177   O     0.28242   0.53273   0.14565   0.00000  Uiso   1.00
O178   O     0.88085   0.16330   0.45554   0.00000  Uiso   1.00
N179   N     0.08838   0.95270   0.61120   0.00000  Uiso   1.00
N180   N     0.25468   0.52753   0.02605   0.00000  Uiso   1.00
N181   N     0.96853   0.26425   0.53429   0.00000  Uiso   1.00
N182   N     0.02218   0.00666   0.60662   0.00000  Uiso   1.00
N183   N     0.18848   0.58149   0.02146   0.00000  Uiso   1.00
N184   N     0.90233   0.31821   0.52970   0.00000  Uiso   1.00
C185   C     0.60355   0.19842   0.99735   0.00000  Uiso   1.00
C186   C     0.58021   0.31422   0.98543   0.00000  Uiso   1.00
C187   C     0.59671   0.38151   0.04514   0.00000  Uiso   1.00
C188   C     0.57029   0.48464   0.02204   0.00000  Uiso   1.00
C189   C     0.54037   0.65922   0.01570   0.00000  Uiso   1.00
C190   C     0.62906   0.20058   0.96427   0.00000  Uiso   1.00
C191   C     0.68663   0.17232   0.00620   0.00000  Uiso   1.00
C192   C     0.70133   0.17978   0.96528   0.00000  Uiso   1.00
C193   C     0.74724   0.17785   0.92608   0.00000  Uiso   1.00
C194   C     0.54913   0.12398   0.94145   0.00000  Uiso   1.00
C195   C     0.53950   0.03128   0.96418   0.00000  Uiso   1.00
C196   C     0.48692   0.97422   0.90404   0.00000  Uiso   1.00
C197   C     0.40873   0.85336   0.82940   0.00000  Uiso   1.00
C198   C     0.52730   0.26190   0.85012   0.00000  Uiso   1.00
C199   C     0.53879   0.34870   0.90545   0.00000  Uiso   1.00
C200   C     0.51234   0.45175   0.88225   0.00000  Uiso   1.00
C201   C     0.52880   0.51919   0.94192   0.00000  Uiso   1.00
C202   C     0.58764   0.23506   0.88430   0.00000  Uiso   1.00
C203   C     0.60226   0.24256   0.84331   0.00000  Uiso   1.00
C204   C     0.65984   0.21432   0.88517   0.00000  Uiso   1.00
C205   C     0.50771   0.15845   0.86148   0.00000  Uiso   1.00
C206   C     0.45514   0.10152   0.80129   0.00000  Uiso   1.00
C207   C     0.44543   0.00876   0.82392   0.00000  Uiso   1.00
H208   H     0.63580   0.17158   0.05960   0.00000  Uiso   1.00
H209   H     0.62877   0.35480   0.10703   0.00000  Uiso   1.00
H210   H     0.71867   0.14563   0.06808   0.00000  Uiso   1.00
H211   H     0.57157   0.00462   0.02607   0.00000  Uiso   1.00
H212   H     0.60272   0.57316   0.12434   0.00000  Uiso   1.00
H213   H     0.79228   0.13208   0.04222   0.00000  Uiso   1.00
H214   H     0.48209   0.83473   0.95363   0.00000  Uiso   1.00
H215   H     0.49505   0.28875   0.78785   0.00000  Uiso   1.00
H216   H     0.48029   0.47841   0.82036   0.00000  Uiso   1.00
H217   H     0.57020   0.26924   0.78142   0.00000  Uiso   1.00
H218   H     0.42310   0.12823   0.73941   0.00000  Uiso   1.00
H219   H     0.48222   0.67349   0.89167   0.00000  Uiso   1.00
H220   H     0.67178   0.23240   0.80956   0.00000  Uiso   1.00
H221   H     0.36158   0.93505   0.72096   0.00000  Uiso   1.00
O222   O     0.53531   0.74599   0.03429   0.00000  Uiso   1.00
O223   O     0.78401   0.16728   0.92656   0.00000  Uiso   1.00
O224   O     0.37704   0.77717   0.81033   0.00000  Uiso   1.00
N225   N     0.57638   0.57074   0.06511   0.00000  Uiso   1.00
N226   N     0.75361   0.15837   0.98835   0.00000  Uiso   1.00
N227   N     0.46361   0.88035   0.90551   0.00000  Uiso   1.00
N228   N     0.51153   0.62472   0.93992   0.00000  Uiso   1.00
N229   N     0.68876   0.21235   0.86315   0.00000  Uiso   1.00
N230   N     0.39877   0.93434   0.78032   0.00000  Uiso   1.00
C231   C     0.10967   0.92323   0.22421   0.00000  Uiso   1.00
C232   C     0.08762   0.80645   0.19193   0.00000  Uiso   1.00
C233   C     0.10595   0.73831   0.16736   0.00000  Uiso   1.00
C234   C     0.08048   0.63435   0.13972   0.00000  Uiso   1.00
C235   C     0.05270   0.45823   0.09009   0.00000  Uiso   1.00
C236   C     0.13345   0.92361   0.30627   0.00000  Uiso   1.00
C237   C     0.19033   0.95399   0.37783   0.00000  Uiso   1.00
C238   C     0.20344   0.94867   0.44644   0.00000  Uiso   1.00
C239   C     0.24681   0.95453   0.57431   0.00000  Uiso   1.00
C240   C     0.05459   0.99616   0.17073   0.00000  Uiso   1.00
C241   C     0.04516   0.08756   0.12834   0.00000  Uiso   1.00
C242   C     0.99188   0.14333   0.08286   0.00000  Uiso   1.00
C243   C     0.91280   0.26183   0.00029   0.00000  Uiso   1.00
C244   C     0.03182   0.85978   0.21881   0.00000  Uiso   1.00
C245   C     0.04533   0.77199   0.18900   0.00000  Uiso   1.00
C246   C     0.01983   0.66810   0.16139   0.00000  Uiso   1.00
C247   C     0.03812   0.59982   0.13678   0.00000  Uiso   1.00
C248   C     0.09117   0.88915   0.30334   0.00000  Uiso   1.00
C249   C     0.10420   0.88379   0.37186   0.00000  Uiso   1.00
C250   C     0.16109   0.91414   0.44351   0.00000  Uiso   1.00
C251   C     0.01231   0.96169   0.16780   0.00000  Uiso   1.00
C252   C     0.95903   0.01734   0.12238   0.00000  Uiso   1.00
C253   C     0.94952   0.10881   0.07992   0.00000  Uiso   1.00
H254   H     0.14259   0.95007   0.22649   0.00000  Uiso   1.00
H255   H     0.13868   0.76501   0.16964   0.00000  Uiso   1.00
H256   H     0.22304   0.98067   0.38007   0.00000  Uiso   1.00
H257   H     0.07789   0.11420   0.13063   0.00000  Uiso   1.00
H258   H     0.11572   0.54462   0.10535   0.00000  Uiso   1.00
H259   H     0.29359   0.99939   0.54905   0.00000  Uiso   1.00
H260   H     0.98751   0.28098   0.02305   0.00000  Uiso   1.00
H261   H     0.99890   0.83295   0.21654   0.00000  Uiso   1.00
H262   H     0.98711   0.64145   0.15913   0.00000  Uiso   1.00
H263   H     0.07147   0.85712   0.36957   0.00000  Uiso   1.00
H264   H     0.92632   0.99065   0.12012   0.00000  Uiso   1.00
H265   H     0.99270   0.44433   0.09682   0.00000  Uiso   1.00
H266   H     0.17057   0.89911   0.54053   0.00000  Uiso   1.00
H267   H     0.86449   0.18070   0.01452   0.00000  Uiso   1.00
O268   O     0.04906   0.37061   0.06353   0.00000  Uiso   1.00
O269   O     0.28242   0.96727   0.64565   0.00000  Uiso   1.00
O270   O     0.88085   0.33670   0.95554   0.00000  Uiso   1.00
N271   N     0.08838   0.54730   0.11120   0.00000  Uiso   1.00
N272   N     0.25468   0.97247   0.52605   0.00000  Uiso   1.00
N273   N     0.96853   0.23575   0.03429   0.00000  Uiso   1.00
N274   N     0.02218   0.49334   0.10662   0.00000  Uiso   1.00
N275   N     0.18848   0.91851   0.52146   0.00000  Uiso   1.00
N276   N     0.90233   0.18179   0.02970   0.00000  Uiso   1.00
C277   C     0.39645   0.69842   0.50265   0.00000  Uiso   1.00
C278   C     0.41979   0.81422   0.51457   0.00000  Uiso   1.00
C279   C     0.40329   0.88151   0.45486   0.00000  Uiso   1.00
C280   C     0.42971   0.98464   0.47796   0.00000  Uiso   1.00
C281   C     0.45963   0.15922   0.48430   0.00000  Uiso   1.00
C282   C     0.37094   0.70058   0.53573   0.00000  Uiso   1.00
C283   C     0.31337   0.67232   0.49380   0.00000  Uiso   1.00
C284   C     0.29867   0.67978   0.53472   0.00000  Uiso   1.00
C285   C     0.25276   0.67785   0.57392   0.00000  Uiso   1.00
C286   C     0.45087   0.62398   0.55855   0.00000  Uiso   1.00
C287   C     0.46050   0.53128   0.53582   0.00000  Uiso   1.00
C288   C     0.51308   0.47422   0.59596   0.00000  Uiso   1.00
C289   C     0.59127   0.35336   0.67060   0.00000  Uiso   1.00
C290   C     0.47270   0.76190   0.64988   0.00000  Uiso   1.00
C291   C     0.46121   0.84870   0.59455   0.00000  Uiso   1.00
C292   C     0.48766   0.95175   0.61775   0.00000  Uiso   1.00
C293   C     0.47120   0.01919   0.55808   0.00000  Uiso   1.00
C294   C     0.41236   0.73506   0.61570   0.00000  Uiso   1.00
C295   C     0.39774   0.74256   0.65669   0.00000  Uiso   1.00
C296   C     0.34016   0.71432   0.61483   0.00000  Uiso   1.00
C297   C     0.49229   0.65845   0.63852   0.00000  Uiso   1.00
C298   C     0.54486   0.60152   0.69871   0.00000  Uiso   1.00
C299   C     0.55457   0.50876   0.67608   0.00000  Uiso   1.00
H300   H     0.36420   0.67158   0.44040   0.00000  Uiso   1.00
H301   H     0.37123   0.85480   0.39297   0.00000  Uiso   1.00
H302   H     0.28133   0.64563   0.43192   0.00000  Uiso   1.00
H303   H     0.42843   0.50462   0.47393   0.00000  Uiso   1.00
H304   H     0.39728   0.07316   0.37566   0.00000  Uiso   1.00
H305   H     0.20772   0.63208   0.45778   0.00000  Uiso   1.00
H306   H     0.51791   0.33473   0.54637   0.00000  Uiso   1.00
H307   H     0.50495   0.78875   0.71215   0.00000  Uiso   1.00
H308   H     0.51971   0.97841   0.67964   0.00000  Uiso   1.00
H309   H     0.42980   0.76924   0.71858   0.00000  Uiso   1.00
H310   H     0.57690   0.62823   0.76059   0.00000  Uiso   1.00
H311   H     0.51778   0.17349   0.60833   0.00000  Uiso   1.00
H312   H     0.32822   0.73240   0.69044   0.00000  Uiso   1.00
H313   H     0.63842   0.43505   0.77904   0.00000  Uiso   1.00
O314   O     0.46469   0.24599   0.46571   0.00000  Uiso   1.00
O315   O     0.21599   0.66728   0.57344   0.00000  Uiso   1.00
O316   O     0.62296   0.27717   0.68967   0.00000  Uiso   1.00
N317   N     0.42362   0.07074   0.43489   0.00000  Uiso   1.00
N318   N     0.24639   0.65837   0.51165   0.00000  Uiso   1.00
N319   N     0.53639   0.38035   0.59449   0.00000  Uiso   1.00
N320   N     0.48847   0.12472   0.56008   0.00000  Uiso   1.00
N321   N     0.31124   0.71235   0.63685   0.00000  Uiso   1.00
N322   N     0.60123   0.43434   0.71968   0.00000  Uiso   1.00
C323   C     0.89033   0.42323   0.27579   0.00000  Uiso   1.00
C324   C     0.91238   0.30645   0.30807   0.00000  Uiso   1.00
C325   C     0.89405   0.23831   0.33264   0.00000  Uiso   1.00
C326   C     0.91952   0.13435   0.36028   0.00000  Uiso   1.00
C327   C     0.94730   0.95823   0.40991   0.00000  Uiso   1.00
C328   C     0.86655   0.42361   0.19373   0.00000  Uiso   1.00
C329   C     0.80967   0.45399   0.12217   0.00000  Uiso   1.00
C330   C     0.79656   0.44867   0.05356   0.00000  Uiso   1.00
C331   C     0.75319   0.45453   0.92569   0.00000  Uiso   1.00
C332   C     0.94541   0.49616   0.32927   0.00000  Uiso   1.00
C333   C     0.95484   0.58756   0.37166   0.00000  Uiso   1.00
C334   C     0.00812   0.64333   0.41714   0.00000  Uiso   1.00
C335   C     0.08720   0.76183   0.49971   0.00000  Uiso   1.00
C336   C     0.96818   0.35978   0.28119   0.00000  Uiso   1.00
C337   C     0.95467   0.27199   0.31100   0.00000  Uiso   1.00
C338   C     0.98017   0.16810   0.33861   0.00000  Uiso   1.00
C339   C     0.96188   0.09982   0.36322   0.00000  Uiso   1.00
C340   C     0.90883   0.38915   0.19666   0.00000  Uiso   1.00
C341   C     0.89580   0.38379   0.12814   0.00000  Uiso   1.00
C342   C     0.83891   0.41414   0.05649   0.00000  Uiso   1.00
C343   C     0.98769   0.46169   0.33220   0.00000  Uiso   1.00
C344   C     0.04097   0.51734   0.37762   0.00000  Uiso   1.00
C345   C     0.05048   0.60881   0.42008   0.00000  Uiso   1.00
H346   H     0.85741   0.45007   0.27351   0.00000  Uiso   1.00
H347   H     0.86132   0.26501   0.33036   0.00000  Uiso   1.00
H348   H     0.77696   0.48067   0.11993   0.00000  Uiso   1.00
H349   H     0.92211   0.61420   0.36937   0.00000  Uiso   1.00
H350   H     0.88428   0.04462   0.39465   0.00000  Uiso   1.00
H351   H     0.70641   0.49939   0.95095   0.00000  Uiso   1.00
H352   H     0.01249   0.78098   0.47695   0.00000  Uiso   1.00
H353   H     0.00110   0.33295   0.28346   0.00000  Uiso   1.00
H354   H     0.01289   0.14145   0.34087   0.00000  Uiso   1.00
H355   H     0.92853   0.35712   0.13043   0.00000  Uiso   1.00
H356   H     0.07368   0.49065   0.37988   0.00000  Uiso   1.00
H357   H     0.00730   0.94433   0.40318   0.00000  Uiso   1.00
H358   H     0.82943   0.39911   0.95947   0.00000  Uiso   1.00
H359   H     0.13551   0.68070   0.48548   0.00000  Uiso   1.00
O360   O     0.95094   0.87061   0.43647   0.00000  Uiso   1.00
O361   O     0.71758   0.46727   0.85435   0.00000  Uiso   1.00
O362   O     0.11915   0.83670   0.54446   0.00000  Uiso   1.00
N363   N     0.91162   0.04730   0.38880   0.00000  Uiso   1.00
N364   N     0.74532   0.47247   0.97395   0.00000  Uiso   1.00
N365   N     0.03147   0.73575   0.46571   0.00000  Uiso   1.00
N366   N     0.97782   0.99334   0.39338   0.00000  Uiso   1.00
N367   N     0.81152   0.41851   0.97854   0.00000  Uiso   1.00
N368   N     0.09767   0.68179   0.47030   0.00000  Uiso   1.00
