data_job_02851
_audit_creation_date              2018-12-19
_audit_creation_method            'Materials Studio'
_symmetry_space_group_name_H-M    'P1'
_symmetry_Int_Tables_number       1
_symmetry_cell_setting            triclinic
loop_
_symmetry_equiv_pos_as_xyz
  x,y,z
_cell_length_a                    30.4145
_cell_length_b                    9.3701
_cell_length_c                    23.3215
_cell_angle_alpha                 90.0000
_cell_angle_beta                  90.0000
_cell_angle_gamma                 90.0000
loop_
_atom_site_label
_atom_site_type_symbol
_atom_site_fract_x
_atom_site_fract_y
_atom_site_fract_z
_atom_site_U_iso_or_equiv
_atom_site_adp_type
_atom_site_occupancy
C1     C     0.66770   0.01125   0.51033   0.00000  Uiso   1.00
C2     C     0.62413   0.93990   0.52536   0.00000  Uiso   1.00
C3     C     0.61723   0.79413   0.53082   0.00000  Uiso   1.00
C4     C     0.57498   0.75014   0.54482   0.00000  Uiso   1.00
C5     C     0.51252   0.62439   0.56688   0.00000  Uiso   1.00
C6     C     0.65879   0.10175   0.45724   0.00000  Uiso   1.00
C7     C     0.68104   0.09208   0.40542   0.00000  Uiso   1.00
C8     C     0.66797   0.18435   0.36207   0.00000  Uiso   1.00
C9     C     0.65934   0.30995   0.27839   0.00000  Uiso   1.00
C10    C     0.67716   0.11620   0.55875   0.00000  Uiso   1.00
C11    C     0.71484   0.11870   0.59228   0.00000  Uiso   1.00
C12    C     0.71724   0.22316   0.63439   0.00000  Uiso   1.00
C13    C     0.73712   0.37119   0.70833   0.00000  Uiso   1.00
C14    C     0.60494   0.19235   0.52547   0.00000  Uiso   1.00
C15    C     0.59005   0.03827   0.53359   0.00000  Uiso   1.00
C16    C     0.54780   0.99449   0.54758   0.00000  Uiso   1.00
C17    C     0.54083   0.84868   0.55306   0.00000  Uiso   1.00
C18    C     0.62471   0.20012   0.46546   0.00000  Uiso   1.00
C19    C     0.61160   0.29244   0.42218   0.00000  Uiso   1.00
C20    C     0.63382   0.28290   0.37031   0.00000  Uiso   1.00
C21    C     0.64307   0.21456   0.56698   0.00000  Uiso   1.00
C22    C     0.64541   0.31905   0.60904   0.00000  Uiso   1.00
C23    C     0.68309   0.32171   0.64263   0.00000  Uiso   1.00
H24    H     0.69424   0.93467   0.50392   0.00000  Uiso   1.00
H25    H     0.64362   0.71804   0.52445   0.00000  Uiso   1.00
H26    H     0.70742   0.01595   0.39907   0.00000  Uiso   1.00
H27    H     0.74122   0.04256   0.58591   0.00000  Uiso   1.00
H28    H     0.57246   0.52124   0.55081   0.00000  Uiso   1.00
H29    H     0.70700   0.14944   0.28646   0.00000  Uiso   1.00
H30    H     0.77827   0.20555   0.68043   0.00000  Uiso   1.00
H31    H     0.57840   0.26894   0.53187   0.00000  Uiso   1.00
H32    H     0.52142   0.07064   0.55394   0.00000  Uiso   1.00
H33    H     0.58522   0.36855   0.42856   0.00000  Uiso   1.00
H34    H     0.61902   0.39516   0.61540   0.00000  Uiso   1.00
H35    H     0.47329   0.80742   0.57475   0.00000  Uiso   1.00
H36    H     0.60782   0.43562   0.31039   0.00000  Uiso   1.00
H37    H     0.67909   0.49173   0.70437   0.00000  Uiso   1.00
O38    O     0.48748   0.52785   0.57677   0.00000  Uiso   1.00
O39    O     0.66399   0.35204   0.22996   0.00000  Uiso   1.00
O40    O     0.75750   0.42565   0.74684   0.00000  Uiso   1.00
N41    N     0.55694   0.61581   0.55343   0.00000  Uiso   1.00
N42    N     0.68272   0.20312   0.30627   0.00000  Uiso   1.00
N43    N     0.74936   0.25560   0.67459   0.00000  Uiso   1.00
N44    N     0.50358   0.76980   0.56631   0.00000  Uiso   1.00
N45    N     0.62935   0.35711   0.31915   0.00000  Uiso   1.00
N46    N     0.69599   0.40959   0.68747   0.00000  Uiso   1.00
C47    C     0.83230   0.48875   0.01033   0.00000  Uiso   1.00
C48    C     0.87587   0.56010   0.02536   0.00000  Uiso   1.00
C49    C     0.88277   0.70587   0.03082   0.00000  Uiso   1.00
C50    C     0.92502   0.74986   0.04482   0.00000  Uiso   1.00
C51    C     0.98748   0.87561   0.06688   0.00000  Uiso   1.00
C52    C     0.84121   0.39825   0.95724   0.00000  Uiso   1.00
C53    C     0.81896   0.40792   0.90542   0.00000  Uiso   1.00
C54    C     0.83203   0.31565   0.86207   0.00000  Uiso   1.00
C55    C     0.84066   0.19005   0.77839   0.00000  Uiso   1.00
C56    C     0.82284   0.38380   0.05875   0.00000  Uiso   1.00
C57    C     0.78516   0.38130   0.09228   0.00000  Uiso   1.00
C58    C     0.78276   0.27684   0.13439   0.00000  Uiso   1.00
C59    C     0.76288   0.12881   0.20833   0.00000  Uiso   1.00
C60    C     0.89506   0.30765   0.02547   0.00000  Uiso   1.00
C61    C     0.90995   0.46173   0.03359   0.00000  Uiso   1.00
C62    C     0.95220   0.50551   0.04758   0.00000  Uiso   1.00
C63    C     0.95917   0.65132   0.05306   0.00000  Uiso   1.00
C64    C     0.87529   0.29988   0.96546   0.00000  Uiso   1.00
C65    C     0.88840   0.20756   0.92218   0.00000  Uiso   1.00
C66    C     0.86618   0.21710   0.87031   0.00000  Uiso   1.00
C67    C     0.85693   0.28544   0.06698   0.00000  Uiso   1.00
C68    C     0.85459   0.18095   0.10904   0.00000  Uiso   1.00
C69    C     0.81691   0.17829   0.14263   0.00000  Uiso   1.00
H70    H     0.80576   0.56533   0.00392   0.00000  Uiso   1.00
H71    H     0.85638   0.78196   0.02445   0.00000  Uiso   1.00
H72    H     0.79258   0.48405   0.89907   0.00000  Uiso   1.00
H73    H     0.75878   0.45744   0.08591   0.00000  Uiso   1.00
H74    H     0.92754   0.97876   0.05081   0.00000  Uiso   1.00
H75    H     0.79300   0.35056   0.78646   0.00000  Uiso   1.00
H76    H     0.72173   0.29445   0.18043   0.00000  Uiso   1.00
H77    H     0.92160   0.23106   0.03187   0.00000  Uiso   1.00
H78    H     0.97858   0.42936   0.05394   0.00000  Uiso   1.00
H79    H     0.91478   0.13145   0.92856   0.00000  Uiso   1.00
H80    H     0.88098   0.10484   0.11540   0.00000  Uiso   1.00
H81    H     0.02671   0.69258   0.07475   0.00000  Uiso   1.00
H82    H     0.89218   0.06438   0.81039   0.00000  Uiso   1.00
H83    H     0.82091   0.00827   0.20437   0.00000  Uiso   1.00
O84    O     0.01252   0.97215   0.07677   0.00000  Uiso   1.00
O85    O     0.83601   0.14796   0.72996   0.00000  Uiso   1.00
O86    O     0.74250   0.07435   0.24684   0.00000  Uiso   1.00
N87    N     0.94306   0.88419   0.05343   0.00000  Uiso   1.00
N88    N     0.81728   0.29688   0.80627   0.00000  Uiso   1.00
N89    N     0.75064   0.24440   0.17459   0.00000  Uiso   1.00
N90    N     0.99642   0.73020   0.06631   0.00000  Uiso   1.00
N91    N     0.87065   0.14289   0.81915   0.00000  Uiso   1.00
N92    N     0.80401   0.09041   0.18747   0.00000  Uiso   1.00
C93    C     0.33230   0.01125   0.98967   0.00000  Uiso   1.00
C94    C     0.37587   0.93990   0.97464   0.00000  Uiso   1.00
C95    C     0.38277   0.79413   0.96918   0.00000  Uiso   1.00
C96    C     0.42502   0.75014   0.95518   0.00000  Uiso   1.00
C97    C     0.48748   0.62439   0.93312   0.00000  Uiso   1.00
C98    C     0.34121   0.10175   0.04276   0.00000  Uiso   1.00
C99    C     0.31896   0.09208   0.09458   0.00000  Uiso   1.00
C100   C     0.33203   0.18435   0.13793   0.00000  Uiso   1.00
C101   C     0.34066   0.30995   0.22161   0.00000  Uiso   1.00
C102   C     0.32284   0.11620   0.94125   0.00000  Uiso   1.00
C103   C     0.28516   0.11870   0.90772   0.00000  Uiso   1.00
C104   C     0.28276   0.22316   0.86561   0.00000  Uiso   1.00
C105   C     0.26288   0.37119   0.79167   0.00000  Uiso   1.00
C106   C     0.39506   0.19235   0.97453   0.00000  Uiso   1.00
C107   C     0.40995   0.03827   0.96641   0.00000  Uiso   1.00
C108   C     0.45220   0.99449   0.95242   0.00000  Uiso   1.00
C109   C     0.45917   0.84868   0.94694   0.00000  Uiso   1.00
C110   C     0.37529   0.20012   0.03454   0.00000  Uiso   1.00
C111   C     0.38840   0.29244   0.07782   0.00000  Uiso   1.00
C112   C     0.36618   0.28290   0.12969   0.00000  Uiso   1.00
C113   C     0.35693   0.21456   0.93302   0.00000  Uiso   1.00
C114   C     0.35459   0.31905   0.89096   0.00000  Uiso   1.00
C115   C     0.31691   0.32171   0.85737   0.00000  Uiso   1.00
H116   H     0.30576   0.93467   0.99608   0.00000  Uiso   1.00
H117   H     0.35638   0.71804   0.97555   0.00000  Uiso   1.00
H118   H     0.29258   0.01595   0.10093   0.00000  Uiso   1.00
H119   H     0.25878   0.04256   0.91409   0.00000  Uiso   1.00
H120   H     0.42754   0.52124   0.94919   0.00000  Uiso   1.00
H121   H     0.29300   0.14944   0.21354   0.00000  Uiso   1.00
H122   H     0.22173   0.20555   0.81957   0.00000  Uiso   1.00
H123   H     0.42160   0.26894   0.96813   0.00000  Uiso   1.00
H124   H     0.47858   0.07064   0.94606   0.00000  Uiso   1.00
H125   H     0.41478   0.36855   0.07144   0.00000  Uiso   1.00
H126   H     0.38098   0.39516   0.88460   0.00000  Uiso   1.00
H127   H     0.52671   0.80742   0.92525   0.00000  Uiso   1.00
H128   H     0.39218   0.43562   0.18961   0.00000  Uiso   1.00
H129   H     0.32091   0.49173   0.79563   0.00000  Uiso   1.00
O130   O     0.51252   0.52785   0.92323   0.00000  Uiso   1.00
O131   O     0.33601   0.35204   0.27004   0.00000  Uiso   1.00
O132   O     0.24250   0.42565   0.75316   0.00000  Uiso   1.00
N133   N     0.44306   0.61581   0.94657   0.00000  Uiso   1.00
N134   N     0.31728   0.20312   0.19373   0.00000  Uiso   1.00
N135   N     0.25064   0.25560   0.82541   0.00000  Uiso   1.00
N136   N     0.49642   0.76980   0.93369   0.00000  Uiso   1.00
N137   N     0.37065   0.35711   0.18085   0.00000  Uiso   1.00
N138   N     0.30401   0.40959   0.81253   0.00000  Uiso   1.00
C139   C     0.16770   0.48875   0.48967   0.00000  Uiso   1.00
C140   C     0.12413   0.56010   0.47464   0.00000  Uiso   1.00
C141   C     0.11723   0.70587   0.46918   0.00000  Uiso   1.00
C142   C     0.07498   0.74986   0.45518   0.00000  Uiso   1.00
C143   C     0.01252   0.87561   0.43312   0.00000  Uiso   1.00
C144   C     0.15879   0.39825   0.54276   0.00000  Uiso   1.00
C145   C     0.18104   0.40792   0.59458   0.00000  Uiso   1.00
C146   C     0.16797   0.31565   0.63793   0.00000  Uiso   1.00
C147   C     0.15934   0.19005   0.72161   0.00000  Uiso   1.00
C148   C     0.17716   0.38380   0.44125   0.00000  Uiso   1.00
C149   C     0.21484   0.38130   0.40772   0.00000  Uiso   1.00
C150   C     0.21724   0.27684   0.36561   0.00000  Uiso   1.00
C151   C     0.23712   0.12881   0.29167   0.00000  Uiso   1.00
C152   C     0.10494   0.30765   0.47453   0.00000  Uiso   1.00
C153   C     0.09005   0.46173   0.46641   0.00000  Uiso   1.00
C154   C     0.04780   0.50551   0.45242   0.00000  Uiso   1.00
C155   C     0.04083   0.65132   0.44694   0.00000  Uiso   1.00
C156   C     0.12471   0.29988   0.53454   0.00000  Uiso   1.00
C157   C     0.11160   0.20756   0.57782   0.00000  Uiso   1.00
C158   C     0.13382   0.21710   0.62969   0.00000  Uiso   1.00
C159   C     0.14307   0.28544   0.43302   0.00000  Uiso   1.00
C160   C     0.14541   0.18095   0.39096   0.00000  Uiso   1.00
C161   C     0.18309   0.17829   0.35737   0.00000  Uiso   1.00
H162   H     0.19424   0.56533   0.49608   0.00000  Uiso   1.00
H163   H     0.14362   0.78196   0.47555   0.00000  Uiso   1.00
H164   H     0.20742   0.48405   0.60093   0.00000  Uiso   1.00
H165   H     0.24122   0.45744   0.41409   0.00000  Uiso   1.00
H166   H     0.07246   0.97876   0.44919   0.00000  Uiso   1.00
H167   H     0.20700   0.35056   0.71354   0.00000  Uiso   1.00
H168   H     0.27827   0.29445   0.31957   0.00000  Uiso   1.00
H169   H     0.07840   0.23106   0.46813   0.00000  Uiso   1.00
H170   H     0.02142   0.42936   0.44606   0.00000  Uiso   1.00
H171   H     0.08522   0.13145   0.57144   0.00000  Uiso   1.00
H172   H     0.11902   0.10484   0.38460   0.00000  Uiso   1.00
H173   H     0.97329   0.69258   0.42525   0.00000  Uiso   1.00
H174   H     0.10782   0.06438   0.68961   0.00000  Uiso   1.00
H175   H     0.17909   0.00827   0.29563   0.00000  Uiso   1.00
O176   O     0.98748   0.97215   0.42323   0.00000  Uiso   1.00
O177   O     0.16399   0.14796   0.77004   0.00000  Uiso   1.00
O178   O     0.25750   0.07435   0.25316   0.00000  Uiso   1.00
N179   N     0.05694   0.88419   0.44657   0.00000  Uiso   1.00
N180   N     0.18272   0.29688   0.69373   0.00000  Uiso   1.00
N181   N     0.24936   0.24440   0.32541   0.00000  Uiso   1.00
N182   N     0.00358   0.73020   0.43369   0.00000  Uiso   1.00
N183   N     0.12935   0.14289   0.68085   0.00000  Uiso   1.00
N184   N     0.19599   0.09041   0.31253   0.00000  Uiso   1.00
C185   C     0.33230   0.98875   0.48967   0.00000  Uiso   1.00
C186   C     0.37587   0.06010   0.47464   0.00000  Uiso   1.00
C187   C     0.38277   0.20587   0.46918   0.00000  Uiso   1.00
C188   C     0.42502   0.24986   0.45518   0.00000  Uiso   1.00
C189   C     0.48748   0.37561   0.43312   0.00000  Uiso   1.00
C190   C     0.34121   0.89825   0.54276   0.00000  Uiso   1.00
C191   C     0.31896   0.90792   0.59458   0.00000  Uiso   1.00
C192   C     0.33203   0.81565   0.63793   0.00000  Uiso   1.00
C193   C     0.34066   0.69005   0.72161   0.00000  Uiso   1.00
C194   C     0.32284   0.88380   0.44125   0.00000  Uiso   1.00
C195   C     0.28516   0.88130   0.40772   0.00000  Uiso   1.00
C196   C     0.28276   0.77684   0.36561   0.00000  Uiso   1.00
C197   C     0.26288   0.62881   0.29167   0.00000  Uiso   1.00
C198   C     0.39506   0.80765   0.47453   0.00000  Uiso   1.00
C199   C     0.40995   0.96173   0.46641   0.00000  Uiso   1.00
C200   C     0.45220   0.00551   0.45242   0.00000  Uiso   1.00
C201   C     0.45917   0.15132   0.44694   0.00000  Uiso   1.00
C202   C     0.37529   0.79988   0.53454   0.00000  Uiso   1.00
C203   C     0.38840   0.70756   0.57782   0.00000  Uiso   1.00
C204   C     0.36618   0.71710   0.62969   0.00000  Uiso   1.00
C205   C     0.35693   0.78544   0.43302   0.00000  Uiso   1.00
C206   C     0.35459   0.68095   0.39096   0.00000  Uiso   1.00
C207   C     0.31691   0.67829   0.35737   0.00000  Uiso   1.00
H208   H     0.30576   0.06533   0.49608   0.00000  Uiso   1.00
H209   H     0.35638   0.28196   0.47555   0.00000  Uiso   1.00
H210   H     0.29258   0.98405   0.60093   0.00000  Uiso   1.00
H211   H     0.25878   0.95744   0.41409   0.00000  Uiso   1.00
H212   H     0.42754   0.47876   0.44919   0.00000  Uiso   1.00
H213   H     0.29300   0.85056   0.71354   0.00000  Uiso   1.00
H214   H     0.22173   0.79445   0.31957   0.00000  Uiso   1.00
H215   H     0.42160   0.73106   0.46813   0.00000  Uiso   1.00
H216   H     0.47858   0.92936   0.44606   0.00000  Uiso   1.00
H217   H     0.41478   0.63145   0.57144   0.00000  Uiso   1.00
H218   H     0.38098   0.60484   0.38460   0.00000  Uiso   1.00
H219   H     0.52671   0.19258   0.42525   0.00000  Uiso   1.00
H220   H     0.39218   0.56438   0.68961   0.00000  Uiso   1.00
H221   H     0.32091   0.50827   0.29563   0.00000  Uiso   1.00
O222   O     0.51252   0.47215   0.42323   0.00000  Uiso   1.00
O223   O     0.33601   0.64796   0.77004   0.00000  Uiso   1.00
O224   O     0.24250   0.57435   0.25316   0.00000  Uiso   1.00
N225   N     0.44306   0.38419   0.44657   0.00000  Uiso   1.00
N226   N     0.31728   0.79688   0.69373   0.00000  Uiso   1.00
N227   N     0.25064   0.74440   0.32541   0.00000  Uiso   1.00
N228   N     0.49642   0.23020   0.43369   0.00000  Uiso   1.00
N229   N     0.37065   0.64289   0.68085   0.00000  Uiso   1.00
N230   N     0.30401   0.59041   0.31253   0.00000  Uiso   1.00
C231   C     0.16770   0.51125   0.98967   0.00000  Uiso   1.00
C232   C     0.12413   0.43990   0.97464   0.00000  Uiso   1.00
C233   C     0.11723   0.29413   0.96918   0.00000  Uiso   1.00
C234   C     0.07498   0.25014   0.95518   0.00000  Uiso   1.00
C235   C     0.01252   0.12439   0.93312   0.00000  Uiso   1.00
C236   C     0.15879   0.60175   0.04276   0.00000  Uiso   1.00
C237   C     0.18104   0.59208   0.09458   0.00000  Uiso   1.00
C238   C     0.16797   0.68435   0.13793   0.00000  Uiso   1.00
C239   C     0.15934   0.80995   0.22161   0.00000  Uiso   1.00
C240   C     0.17716   0.61620   0.94125   0.00000  Uiso   1.00
C241   C     0.21484   0.61870   0.90772   0.00000  Uiso   1.00
C242   C     0.21724   0.72316   0.86561   0.00000  Uiso   1.00
C243   C     0.23712   0.87119   0.79167   0.00000  Uiso   1.00
C244   C     0.10494   0.69235   0.97453   0.00000  Uiso   1.00
C245   C     0.09005   0.53827   0.96641   0.00000  Uiso   1.00
C246   C     0.04780   0.49449   0.95242   0.00000  Uiso   1.00
C247   C     0.04083   0.34868   0.94694   0.00000  Uiso   1.00
C248   C     0.12471   0.70012   0.03454   0.00000  Uiso   1.00
C249   C     0.11160   0.79244   0.07782   0.00000  Uiso   1.00
C250   C     0.13382   0.78290   0.12969   0.00000  Uiso   1.00
C251   C     0.14307   0.71456   0.93302   0.00000  Uiso   1.00
C252   C     0.14541   0.81905   0.89096   0.00000  Uiso   1.00
C253   C     0.18309   0.82171   0.85737   0.00000  Uiso   1.00
H254   H     0.19424   0.43467   0.99608   0.00000  Uiso   1.00
H255   H     0.14362   0.21804   0.97555   0.00000  Uiso   1.00
H256   H     0.20742   0.51595   0.10093   0.00000  Uiso   1.00
H257   H     0.24122   0.54256   0.91409   0.00000  Uiso   1.00
H258   H     0.07246   0.02124   0.94919   0.00000  Uiso   1.00
H259   H     0.20700   0.64944   0.21354   0.00000  Uiso   1.00
H260   H     0.27827   0.70555   0.81957   0.00000  Uiso   1.00
H261   H     0.07840   0.76894   0.96813   0.00000  Uiso   1.00
H262   H     0.02142   0.57064   0.94606   0.00000  Uiso   1.00
H263   H     0.08522   0.86855   0.07144   0.00000  Uiso   1.00
H264   H     0.11902   0.89516   0.88460   0.00000  Uiso   1.00
H265   H     0.97329   0.30742   0.92525   0.00000  Uiso   1.00
H266   H     0.10782   0.93562   0.18961   0.00000  Uiso   1.00
H267   H     0.17909   0.99173   0.79563   0.00000  Uiso   1.00
O268   O     0.98748   0.02785   0.92323   0.00000  Uiso   1.00
O269   O     0.16399   0.85204   0.27004   0.00000  Uiso   1.00
O270   O     0.25750   0.92565   0.75316   0.00000  Uiso   1.00
N271   N     0.05694   0.11581   0.94657   0.00000  Uiso   1.00
N272   N     0.18272   0.70312   0.19373   0.00000  Uiso   1.00
N273   N     0.24936   0.75560   0.82541   0.00000  Uiso   1.00
N274   N     0.00358   0.26980   0.93369   0.00000  Uiso   1.00
N275   N     0.12935   0.85711   0.18085   0.00000  Uiso   1.00
N276   N     0.19599   0.90959   0.81253   0.00000  Uiso   1.00
C277   C     0.66770   0.98875   0.01033   0.00000  Uiso   1.00
C278   C     0.62413   0.06010   0.02536   0.00000  Uiso   1.00
C279   C     0.61723   0.20587   0.03082   0.00000  Uiso   1.00
C280   C     0.57498   0.24986   0.04482   0.00000  Uiso   1.00
C281   C     0.51252   0.37561   0.06688   0.00000  Uiso   1.00
C282   C     0.65879   0.89825   0.95724   0.00000  Uiso   1.00
C283   C     0.68104   0.90792   0.90542   0.00000  Uiso   1.00
C284   C     0.66797   0.81565   0.86207   0.00000  Uiso   1.00
C285   C     0.65934   0.69005   0.77839   0.00000  Uiso   1.00
C286   C     0.67716   0.88380   0.05875   0.00000  Uiso   1.00
C287   C     0.71484   0.88130   0.09228   0.00000  Uiso   1.00
C288   C     0.71724   0.77684   0.13439   0.00000  Uiso   1.00
C289   C     0.73712   0.62881   0.20833   0.00000  Uiso   1.00
C290   C     0.60494   0.80765   0.02547   0.00000  Uiso   1.00
C291   C     0.59005   0.96173   0.03359   0.00000  Uiso   1.00
C292   C     0.54780   0.00551   0.04758   0.00000  Uiso   1.00
C293   C     0.54083   0.15132   0.05306   0.00000  Uiso   1.00
C294   C     0.62471   0.79988   0.96546   0.00000  Uiso   1.00
C295   C     0.61160   0.70756   0.92218   0.00000  Uiso   1.00
C296   C     0.63382   0.71710   0.87031   0.00000  Uiso   1.00
C297   C     0.64307   0.78544   0.06698   0.00000  Uiso   1.00
C298   C     0.64541   0.68095   0.10904   0.00000  Uiso   1.00
C299   C     0.68309   0.67829   0.14263   0.00000  Uiso   1.00
H300   H     0.69424   0.06533   0.00392   0.00000  Uiso   1.00
H301   H     0.64362   0.28196   0.02445   0.00000  Uiso   1.00
H302   H     0.70742   0.98405   0.89907   0.00000  Uiso   1.00
H303   H     0.74122   0.95744   0.08591   0.00000  Uiso   1.00
H304   H     0.57246   0.47876   0.05081   0.00000  Uiso   1.00
H305   H     0.70700   0.85056   0.78646   0.00000  Uiso   1.00
H306   H     0.77827   0.79445   0.18043   0.00000  Uiso   1.00
H307   H     0.57840   0.73106   0.03187   0.00000  Uiso   1.00
H308   H     0.52142   0.92936   0.05394   0.00000  Uiso   1.00
H309   H     0.58522   0.63145   0.92856   0.00000  Uiso   1.00
H310   H     0.61902   0.60484   0.11540   0.00000  Uiso   1.00
H311   H     0.47329   0.19258   0.07475   0.00000  Uiso   1.00
H312   H     0.60782   0.56438   0.81039   0.00000  Uiso   1.00
H313   H     0.67909   0.50827   0.20437   0.00000  Uiso   1.00
O314   O     0.48748   0.47215   0.07677   0.00000  Uiso   1.00
O315   O     0.66399   0.64796   0.72996   0.00000  Uiso   1.00
O316   O     0.75750   0.57435   0.24684   0.00000  Uiso   1.00
N317   N     0.55694   0.38419   0.05343   0.00000  Uiso   1.00
N318   N     0.68272   0.79688   0.80627   0.00000  Uiso   1.00
N319   N     0.74936   0.74440   0.17459   0.00000  Uiso   1.00
N320   N     0.50358   0.23020   0.06631   0.00000  Uiso   1.00
N321   N     0.62935   0.64289   0.81915   0.00000  Uiso   1.00
N322   N     0.69599   0.59041   0.18747   0.00000  Uiso   1.00
C323   C     0.83230   0.51125   0.51033   0.00000  Uiso   1.00
C324   C     0.87587   0.43990   0.52536   0.00000  Uiso   1.00
C325   C     0.88277   0.29413   0.53082   0.00000  Uiso   1.00
C326   C     0.92502   0.25014   0.54482   0.00000  Uiso   1.00
C327   C     0.98748   0.12439   0.56688   0.00000  Uiso   1.00
C328   C     0.84121   0.60175   0.45724   0.00000  Uiso   1.00
C329   C     0.81896   0.59208   0.40542   0.00000  Uiso   1.00
C330   C     0.83203   0.68435   0.36207   0.00000  Uiso   1.00
C331   C     0.84066   0.80995   0.27839   0.00000  Uiso   1.00
C332   C     0.82284   0.61620   0.55875   0.00000  Uiso   1.00
C333   C     0.78516   0.61870   0.59228   0.00000  Uiso   1.00
C334   C     0.78276   0.72316   0.63439   0.00000  Uiso   1.00
C335   C     0.76288   0.87119   0.70833   0.00000  Uiso   1.00
C336   C     0.89506   0.69235   0.52547   0.00000  Uiso   1.00
C337   C     0.90995   0.53827   0.53359   0.00000  Uiso   1.00
C338   C     0.95220   0.49449   0.54758   0.00000  Uiso   1.00
C339   C     0.95917   0.34868   0.55306   0.00000  Uiso   1.00
C340   C     0.87529   0.70012   0.46546   0.00000  Uiso   1.00
C341   C     0.88840   0.79244   0.42218   0.00000  Uiso   1.00
C342   C     0.86618   0.78290   0.37031   0.00000  Uiso   1.00
C343   C     0.85693   0.71456   0.56698   0.00000  Uiso   1.00
C344   C     0.85459   0.81905   0.60904   0.00000  Uiso   1.00
C345   C     0.81691   0.82171   0.64263   0.00000  Uiso   1.00
H346   H     0.80576   0.43467   0.50392   0.00000  Uiso   1.00
H347   H     0.85638   0.21804   0.52445   0.00000  Uiso   1.00
H348   H     0.79258   0.51595   0.39907   0.00000  Uiso   1.00
H349   H     0.75878   0.54256   0.58591   0.00000  Uiso   1.00
H350   H     0.92754   0.02124   0.55081   0.00000  Uiso   1.00
H351   H     0.79300   0.64944   0.28646   0.00000  Uiso   1.00
H352   H     0.72173   0.70555   0.68043   0.00000  Uiso   1.00
H353   H     0.92160   0.76894   0.53187   0.00000  Uiso   1.00
H354   H     0.97858   0.57064   0.55394   0.00000  Uiso   1.00
H355   H     0.91478   0.86855   0.42856   0.00000  Uiso   1.00
H356   H     0.88098   0.89516   0.61540   0.00000  Uiso   1.00
H357   H     0.02671   0.30742   0.57475   0.00000  Uiso   1.00
H358   H     0.89218   0.93562   0.31039   0.00000  Uiso   1.00
H359   H     0.82091   0.99173   0.70437   0.00000  Uiso   1.00
O360   O     0.01252   0.02785   0.57677   0.00000  Uiso   1.00
O361   O     0.83601   0.85204   0.22996   0.00000  Uiso   1.00
O362   O     0.74250   0.92565   0.74684   0.00000  Uiso   1.00
N363   N     0.94306   0.11581   0.55343   0.00000  Uiso   1.00
N364   N     0.81728   0.70312   0.30627   0.00000  Uiso   1.00
N365   N     0.75064   0.75560   0.67459   0.00000  Uiso   1.00
N366   N     0.99642   0.26980   0.56631   0.00000  Uiso   1.00
N367   N     0.87065   0.85711   0.31915   0.00000  Uiso   1.00
N368   N     0.80401   0.90959   0.68747   0.00000  Uiso   1.00
