data_job_00763
_audit_creation_date              2018-12-19
_audit_creation_method            'Materials Studio'
_symmetry_space_group_name_H-M    'P1'
_symmetry_Int_Tables_number       1
_symmetry_cell_setting            triclinic
loop_
_symmetry_equiv_pos_as_xyz
  x,y,z
_cell_length_a                    17.9562
_cell_length_b                    10.1162
_cell_length_c                    25.4634
_cell_angle_alpha                 90.0000
_cell_angle_beta                  90.0000
_cell_angle_gamma                 90.0000
loop_
_atom_site_label
_atom_site_type_symbol
_atom_site_fract_x
_atom_site_fract_y
_atom_site_fract_z
_atom_site_U_iso_or_equiv
_atom_site_adp_type
_atom_site_occupancy
C1     C     0.80477   0.22497   0.10266   0.00000  Uiso   1.00
C2     C     0.87196   0.13353   0.10732   0.00000  Uiso   1.00
C3     C     0.87159   0.99794   0.09907   0.00000  Uiso   1.00
C4     C     0.93881   0.93196   0.10528   0.00000  Uiso   1.00
C5     C     0.03322   0.77972   0.11042   0.00000  Uiso   1.00
C6     C     0.79820   0.29542   0.15541   0.00000  Uiso   1.00
C7     C     0.73580   0.29595   0.18757   0.00000  Uiso   1.00
C8     C     0.74093   0.36627   0.23426   0.00000  Uiso   1.00
C9     C     0.72079   0.46545   0.31402   0.00000  Uiso   1.00
C10    C     0.82641   0.33091   0.06289   0.00000  Uiso   1.00
C11    C     0.78773   0.36131   0.01728   0.00000  Uiso   1.00
C12    C     0.81661   0.46153   0.98608   0.00000  Uiso   1.00
C13    C     0.84029   0.61580   0.92220   0.00000  Uiso   1.00
C14    C     0.92481   0.34893   0.12838   0.00000  Uiso   1.00
C15    C     0.93716   0.20086   0.12129   0.00000  Uiso   1.00
C16    C     0.00441   0.13508   0.12752   0.00000  Uiso   1.00
C17    C     0.00414   0.99940   0.11927   0.00000  Uiso   1.00
C18    C     0.86340   0.36275   0.16937   0.00000  Uiso   1.00
C19    C     0.86862   0.43309   0.21602   0.00000  Uiso   1.00
C20    C     0.80625   0.43372   0.24825   0.00000  Uiso   1.00
C21    C     0.89162   0.39824   0.07686   0.00000  Uiso   1.00
C22    C     0.92056   0.49844   0.04573   0.00000  Uiso   1.00
C23    C     0.88193   0.52898   0.00007   0.00000  Uiso   1.00
H24    H     0.75400   0.17256   0.09179   0.00000  Uiso   1.00
H25    H     0.82111   0.94587   0.08827   0.00000  Uiso   1.00
H26    H     0.68535   0.24385   0.17675   0.00000  Uiso   1.00
H27    H     0.73728   0.30918   0.00648   0.00000  Uiso   1.00
H28    H     0.92427   0.72422   0.09053   0.00000  Uiso   1.00
H29    H     0.63799   0.35257   0.27710   0.00000  Uiso   1.00
H30    H     0.74749   0.49034   0.91805   0.00000  Uiso   1.00
H31    H     0.97558   0.40135   0.13926   0.00000  Uiso   1.00
H32    H     0.05486   0.18720   0.13833   0.00000  Uiso   1.00
H33    H     0.91908   0.48519   0.22682   0.00000  Uiso   1.00
H34    H     0.97102   0.55052   0.05655   0.00000  Uiso   1.00
H35    H     0.11398   0.92009   0.13117   0.00000  Uiso   1.00
H36    H     0.82770   0.54845   0.31774   0.00000  Uiso   1.00
H37    H     0.93720   0.68622   0.95869   0.00000  Uiso   1.00
O38    O     0.06728   0.67715   0.10940   0.00000  Uiso   1.00
O39    O     0.69167   0.50154   0.35417   0.00000  Uiso   1.00
O40    O     0.83535   0.68229   0.88310   0.00000  Uiso   1.00
N41    N     0.95805   0.79971   0.10021   0.00000  Uiso   1.00
N42    N     0.69039   0.38716   0.27465   0.00000  Uiso   1.00
N43    N     0.79276   0.51599   0.93897   0.00000  Uiso   1.00
N44    N     0.06013   0.90511   0.12208   0.00000  Uiso   1.00
N45    N     0.79247   0.49256   0.29651   0.00000  Uiso   1.00
N46    N     0.89484   0.62139   0.96084   0.00000  Uiso   1.00
C47    C     0.69523   0.27503   0.60266   0.00000  Uiso   1.00
C48    C     0.62804   0.36647   0.60732   0.00000  Uiso   1.00
C49    C     0.62841   0.50206   0.59907   0.00000  Uiso   1.00
C50    C     0.56119   0.56804   0.60528   0.00000  Uiso   1.00
C51    C     0.46678   0.72028   0.61042   0.00000  Uiso   1.00
C52    C     0.70180   0.20458   0.65541   0.00000  Uiso   1.00
C53    C     0.76420   0.20405   0.68757   0.00000  Uiso   1.00
C54    C     0.75907   0.13373   0.73426   0.00000  Uiso   1.00
C55    C     0.77921   0.03455   0.81402   0.00000  Uiso   1.00
C56    C     0.67359   0.16909   0.56289   0.00000  Uiso   1.00
C57    C     0.71227   0.13869   0.51728   0.00000  Uiso   1.00
C58    C     0.68339   0.03847   0.48608   0.00000  Uiso   1.00
C59    C     0.65971   0.88420   0.42220   0.00000  Uiso   1.00
C60    C     0.57519   0.15107   0.62838   0.00000  Uiso   1.00
C61    C     0.56284   0.29914   0.62129   0.00000  Uiso   1.00
C62    C     0.49559   0.36492   0.62752   0.00000  Uiso   1.00
C63    C     0.49586   0.50060   0.61927   0.00000  Uiso   1.00
C64    C     0.63660   0.13725   0.66937   0.00000  Uiso   1.00
C65    C     0.63138   0.06691   0.71602   0.00000  Uiso   1.00
C66    C     0.69375   0.06628   0.74825   0.00000  Uiso   1.00
C67    C     0.60838   0.10176   0.57686   0.00000  Uiso   1.00
C68    C     0.57944   0.00156   0.54573   0.00000  Uiso   1.00
C69    C     0.61807   0.97102   0.50007   0.00000  Uiso   1.00
H70    H     0.74600   0.32744   0.59179   0.00000  Uiso   1.00
H71    H     0.67889   0.55413   0.58827   0.00000  Uiso   1.00
H72    H     0.81465   0.25615   0.67675   0.00000  Uiso   1.00
H73    H     0.76272   0.19082   0.50648   0.00000  Uiso   1.00
H74    H     0.57573   0.77578   0.59053   0.00000  Uiso   1.00
H75    H     0.86201   0.14743   0.77710   0.00000  Uiso   1.00
H76    H     0.75251   0.00966   0.41805   0.00000  Uiso   1.00
H77    H     0.52442   0.09865   0.63926   0.00000  Uiso   1.00
H78    H     0.44514   0.31280   0.63833   0.00000  Uiso   1.00
H79    H     0.58092   0.01481   0.72682   0.00000  Uiso   1.00
H80    H     0.52898   0.94948   0.55655   0.00000  Uiso   1.00
H81    H     0.38602   0.57991   0.63117   0.00000  Uiso   1.00
H82    H     0.67230   0.95155   0.81774   0.00000  Uiso   1.00
H83    H     0.56280   0.81378   0.45869   0.00000  Uiso   1.00
O84    O     0.43272   0.82285   0.60940   0.00000  Uiso   1.00
O85    O     0.80833   0.99846   0.85417   0.00000  Uiso   1.00
O86    O     0.66465   0.81771   0.38310   0.00000  Uiso   1.00
N87    N     0.54195   0.70029   0.60021   0.00000  Uiso   1.00
N88    N     0.80961   0.11284   0.77465   0.00000  Uiso   1.00
N89    N     0.70724   0.98401   0.43897   0.00000  Uiso   1.00
N90    N     0.43987   0.59489   0.62208   0.00000  Uiso   1.00
N91    N     0.70753   0.00744   0.79651   0.00000  Uiso   1.00
N92    N     0.60516   0.87861   0.46084   0.00000  Uiso   1.00
C93    C     0.19523   0.22497   0.39734   0.00000  Uiso   1.00
C94    C     0.12804   0.13353   0.39268   0.00000  Uiso   1.00
C95    C     0.12841   0.99794   0.40093   0.00000  Uiso   1.00
C96    C     0.06119   0.93196   0.39472   0.00000  Uiso   1.00
C97    C     0.96678   0.77972   0.38958   0.00000  Uiso   1.00
C98    C     0.20180   0.29542   0.34459   0.00000  Uiso   1.00
C99    C     0.26420   0.29595   0.31243   0.00000  Uiso   1.00
C100   C     0.25907   0.36627   0.26574   0.00000  Uiso   1.00
C101   C     0.27921   0.46545   0.18598   0.00000  Uiso   1.00
C102   C     0.17359   0.33091   0.43711   0.00000  Uiso   1.00
C103   C     0.21227   0.36131   0.48272   0.00000  Uiso   1.00
C104   C     0.18339   0.46153   0.51392   0.00000  Uiso   1.00
C105   C     0.15971   0.61580   0.57780   0.00000  Uiso   1.00
C106   C     0.07519   0.34893   0.37162   0.00000  Uiso   1.00
C107   C     0.06284   0.20086   0.37871   0.00000  Uiso   1.00
C108   C     0.99559   0.13508   0.37248   0.00000  Uiso   1.00
C109   C     0.99586   0.99940   0.38073   0.00000  Uiso   1.00
C110   C     0.13660   0.36275   0.33063   0.00000  Uiso   1.00
C111   C     0.13138   0.43309   0.28398   0.00000  Uiso   1.00
C112   C     0.19375   0.43372   0.25175   0.00000  Uiso   1.00
C113   C     0.10838   0.39824   0.42314   0.00000  Uiso   1.00
C114   C     0.07944   0.49844   0.45427   0.00000  Uiso   1.00
C115   C     0.11807   0.52898   0.49993   0.00000  Uiso   1.00
H116   H     0.24600   0.17256   0.40821   0.00000  Uiso   1.00
H117   H     0.17889   0.94587   0.41173   0.00000  Uiso   1.00
H118   H     0.31465   0.24385   0.32325   0.00000  Uiso   1.00
H119   H     0.26272   0.30918   0.49352   0.00000  Uiso   1.00
H120   H     0.07573   0.72422   0.40947   0.00000  Uiso   1.00
H121   H     0.36201   0.35257   0.22290   0.00000  Uiso   1.00
H122   H     0.25251   0.49034   0.58195   0.00000  Uiso   1.00
H123   H     0.02442   0.40135   0.36074   0.00000  Uiso   1.00
H124   H     0.94514   0.18720   0.36167   0.00000  Uiso   1.00
H125   H     0.08092   0.48519   0.27318   0.00000  Uiso   1.00
H126   H     0.02898   0.55052   0.44345   0.00000  Uiso   1.00
H127   H     0.88602   0.92009   0.36883   0.00000  Uiso   1.00
H128   H     0.17230   0.54845   0.18226   0.00000  Uiso   1.00
H129   H     0.06280   0.68622   0.54131   0.00000  Uiso   1.00
O130   O     0.93272   0.67715   0.39060   0.00000  Uiso   1.00
O131   O     0.30833   0.50154   0.14583   0.00000  Uiso   1.00
O132   O     0.16465   0.68229   0.61690   0.00000  Uiso   1.00
N133   N     0.04195   0.79971   0.39979   0.00000  Uiso   1.00
N134   N     0.30961   0.38716   0.22535   0.00000  Uiso   1.00
N135   N     0.20724   0.51599   0.56103   0.00000  Uiso   1.00
N136   N     0.93987   0.90511   0.37792   0.00000  Uiso   1.00
N137   N     0.20753   0.49256   0.20349   0.00000  Uiso   1.00
N138   N     0.10516   0.62139   0.53916   0.00000  Uiso   1.00
C139   C     0.30477   0.27503   0.89734   0.00000  Uiso   1.00
C140   C     0.37196   0.36647   0.89268   0.00000  Uiso   1.00
C141   C     0.37159   0.50206   0.90093   0.00000  Uiso   1.00
C142   C     0.43881   0.56804   0.89472   0.00000  Uiso   1.00
C143   C     0.53322   0.72028   0.88958   0.00000  Uiso   1.00
C144   C     0.29820   0.20458   0.84459   0.00000  Uiso   1.00
C145   C     0.23580   0.20405   0.81243   0.00000  Uiso   1.00
C146   C     0.24093   0.13373   0.76574   0.00000  Uiso   1.00
C147   C     0.22079   0.03455   0.68598   0.00000  Uiso   1.00
C148   C     0.32641   0.16909   0.93711   0.00000  Uiso   1.00
C149   C     0.28773   0.13869   0.98272   0.00000  Uiso   1.00
C150   C     0.31661   0.03847   0.01392   0.00000  Uiso   1.00
C151   C     0.34029   0.88420   0.07780   0.00000  Uiso   1.00
C152   C     0.42481   0.15107   0.87162   0.00000  Uiso   1.00
C153   C     0.43716   0.29914   0.87871   0.00000  Uiso   1.00
C154   C     0.50441   0.36492   0.87248   0.00000  Uiso   1.00
C155   C     0.50414   0.50060   0.88073   0.00000  Uiso   1.00
C156   C     0.36340   0.13725   0.83063   0.00000  Uiso   1.00
C157   C     0.36862   0.06691   0.78398   0.00000  Uiso   1.00
C158   C     0.30625   0.06628   0.75175   0.00000  Uiso   1.00
C159   C     0.39162   0.10176   0.92314   0.00000  Uiso   1.00
C160   C     0.42056   0.00156   0.95427   0.00000  Uiso   1.00
C161   C     0.38193   0.97102   0.99993   0.00000  Uiso   1.00
H162   H     0.25400   0.32744   0.90821   0.00000  Uiso   1.00
H163   H     0.32111   0.55413   0.91173   0.00000  Uiso   1.00
H164   H     0.18535   0.25615   0.82325   0.00000  Uiso   1.00
H165   H     0.23728   0.19082   0.99352   0.00000  Uiso   1.00
H166   H     0.42427   0.77578   0.90947   0.00000  Uiso   1.00
H167   H     0.13799   0.14743   0.72290   0.00000  Uiso   1.00
H168   H     0.24749   0.00966   0.08195   0.00000  Uiso   1.00
H169   H     0.47558   0.09865   0.86074   0.00000  Uiso   1.00
H170   H     0.55486   0.31280   0.86167   0.00000  Uiso   1.00
H171   H     0.41908   0.01481   0.77318   0.00000  Uiso   1.00
H172   H     0.47102   0.94948   0.94345   0.00000  Uiso   1.00
H173   H     0.61398   0.57991   0.86883   0.00000  Uiso   1.00
H174   H     0.32770   0.95155   0.68226   0.00000  Uiso   1.00
H175   H     0.43720   0.81378   0.04131   0.00000  Uiso   1.00
O176   O     0.56728   0.82285   0.89060   0.00000  Uiso   1.00
O177   O     0.19167   0.99846   0.64583   0.00000  Uiso   1.00
O178   O     0.33535   0.81771   0.11690   0.00000  Uiso   1.00
N179   N     0.45805   0.70029   0.89979   0.00000  Uiso   1.00
N180   N     0.19039   0.11284   0.72535   0.00000  Uiso   1.00
N181   N     0.29276   0.98401   0.06103   0.00000  Uiso   1.00
N182   N     0.56013   0.59489   0.87792   0.00000  Uiso   1.00
N183   N     0.29247   0.00744   0.70349   0.00000  Uiso   1.00
N184   N     0.39484   0.87861   0.03916   0.00000  Uiso   1.00
C185   C     0.19523   0.77503   0.89734   0.00000  Uiso   1.00
C186   C     0.12804   0.86647   0.89268   0.00000  Uiso   1.00
C187   C     0.12841   0.00206   0.90093   0.00000  Uiso   1.00
C188   C     0.06119   0.06804   0.89472   0.00000  Uiso   1.00
C189   C     0.96678   0.22028   0.88958   0.00000  Uiso   1.00
C190   C     0.20180   0.70458   0.84459   0.00000  Uiso   1.00
C191   C     0.26420   0.70405   0.81243   0.00000  Uiso   1.00
C192   C     0.25907   0.63373   0.76574   0.00000  Uiso   1.00
C193   C     0.27921   0.53455   0.68598   0.00000  Uiso   1.00
C194   C     0.17359   0.66909   0.93711   0.00000  Uiso   1.00
C195   C     0.21227   0.63869   0.98272   0.00000  Uiso   1.00
C196   C     0.18339   0.53847   0.01392   0.00000  Uiso   1.00
C197   C     0.15971   0.38420   0.07780   0.00000  Uiso   1.00
C198   C     0.07519   0.65107   0.87162   0.00000  Uiso   1.00
C199   C     0.06284   0.79914   0.87871   0.00000  Uiso   1.00
C200   C     0.99559   0.86492   0.87248   0.00000  Uiso   1.00
C201   C     0.99586   0.00060   0.88073   0.00000  Uiso   1.00
C202   C     0.13660   0.63725   0.83063   0.00000  Uiso   1.00
C203   C     0.13138   0.56691   0.78398   0.00000  Uiso   1.00
C204   C     0.19375   0.56628   0.75175   0.00000  Uiso   1.00
C205   C     0.10838   0.60176   0.92314   0.00000  Uiso   1.00
C206   C     0.07944   0.50156   0.95427   0.00000  Uiso   1.00
C207   C     0.11807   0.47102   0.99993   0.00000  Uiso   1.00
H208   H     0.24600   0.82744   0.90821   0.00000  Uiso   1.00
H209   H     0.17889   0.05413   0.91173   0.00000  Uiso   1.00
H210   H     0.31465   0.75615   0.82325   0.00000  Uiso   1.00
H211   H     0.26272   0.69082   0.99352   0.00000  Uiso   1.00
H212   H     0.07573   0.27578   0.90947   0.00000  Uiso   1.00
H213   H     0.36201   0.64743   0.72290   0.00000  Uiso   1.00
H214   H     0.25251   0.50966   0.08195   0.00000  Uiso   1.00
H215   H     0.02442   0.59865   0.86074   0.00000  Uiso   1.00
H216   H     0.94514   0.81280   0.86167   0.00000  Uiso   1.00
H217   H     0.08092   0.51481   0.77318   0.00000  Uiso   1.00
H218   H     0.02898   0.44948   0.94345   0.00000  Uiso   1.00
H219   H     0.88602   0.07991   0.86883   0.00000  Uiso   1.00
H220   H     0.17230   0.45155   0.68226   0.00000  Uiso   1.00
H221   H     0.06280   0.31378   0.04131   0.00000  Uiso   1.00
O222   O     0.93272   0.32285   0.89060   0.00000  Uiso   1.00
O223   O     0.30833   0.49846   0.64583   0.00000  Uiso   1.00
O224   O     0.16465   0.31771   0.11690   0.00000  Uiso   1.00
N225   N     0.04195   0.20029   0.89979   0.00000  Uiso   1.00
N226   N     0.30961   0.61284   0.72535   0.00000  Uiso   1.00
N227   N     0.20724   0.48401   0.06103   0.00000  Uiso   1.00
N228   N     0.93987   0.09489   0.87792   0.00000  Uiso   1.00
N229   N     0.20753   0.50744   0.70349   0.00000  Uiso   1.00
N230   N     0.10516   0.37861   0.03916   0.00000  Uiso   1.00
C231   C     0.30477   0.72497   0.39734   0.00000  Uiso   1.00
C232   C     0.37196   0.63353   0.39268   0.00000  Uiso   1.00
C233   C     0.37159   0.49794   0.40093   0.00000  Uiso   1.00
C234   C     0.43881   0.43196   0.39472   0.00000  Uiso   1.00
C235   C     0.53322   0.27972   0.38958   0.00000  Uiso   1.00
C236   C     0.29820   0.79542   0.34459   0.00000  Uiso   1.00
C237   C     0.23580   0.79595   0.31243   0.00000  Uiso   1.00
C238   C     0.24093   0.86627   0.26574   0.00000  Uiso   1.00
C239   C     0.22079   0.96545   0.18598   0.00000  Uiso   1.00
C240   C     0.32641   0.83091   0.43711   0.00000  Uiso   1.00
C241   C     0.28773   0.86131   0.48272   0.00000  Uiso   1.00
C242   C     0.31661   0.96153   0.51392   0.00000  Uiso   1.00
C243   C     0.34029   0.11580   0.57780   0.00000  Uiso   1.00
C244   C     0.42481   0.84893   0.37162   0.00000  Uiso   1.00
C245   C     0.43716   0.70086   0.37871   0.00000  Uiso   1.00
C246   C     0.50441   0.63508   0.37248   0.00000  Uiso   1.00
C247   C     0.50414   0.49940   0.38073   0.00000  Uiso   1.00
C248   C     0.36340   0.86275   0.33063   0.00000  Uiso   1.00
C249   C     0.36862   0.93309   0.28398   0.00000  Uiso   1.00
C250   C     0.30625   0.93372   0.25175   0.00000  Uiso   1.00
C251   C     0.39162   0.89824   0.42314   0.00000  Uiso   1.00
C252   C     0.42056   0.99844   0.45427   0.00000  Uiso   1.00
C253   C     0.38193   0.02898   0.49993   0.00000  Uiso   1.00
H254   H     0.25400   0.67256   0.40821   0.00000  Uiso   1.00
H255   H     0.32111   0.44587   0.41173   0.00000  Uiso   1.00
H256   H     0.18535   0.74385   0.32325   0.00000  Uiso   1.00
H257   H     0.23728   0.80918   0.49352   0.00000  Uiso   1.00
H258   H     0.42427   0.22422   0.40947   0.00000  Uiso   1.00
H259   H     0.13799   0.85257   0.22290   0.00000  Uiso   1.00
H260   H     0.24749   0.99034   0.58195   0.00000  Uiso   1.00
H261   H     0.47558   0.90135   0.36074   0.00000  Uiso   1.00
H262   H     0.55486   0.68720   0.36167   0.00000  Uiso   1.00
H263   H     0.41908   0.98519   0.27318   0.00000  Uiso   1.00
H264   H     0.47102   0.05052   0.44345   0.00000  Uiso   1.00
H265   H     0.61398   0.42009   0.36883   0.00000  Uiso   1.00
H266   H     0.32770   0.04845   0.18226   0.00000  Uiso   1.00
H267   H     0.43720   0.18622   0.54131   0.00000  Uiso   1.00
O268   O     0.56728   0.17715   0.39060   0.00000  Uiso   1.00
O269   O     0.19167   0.00154   0.14583   0.00000  Uiso   1.00
O270   O     0.33535   0.18229   0.61690   0.00000  Uiso   1.00
N271   N     0.45805   0.29971   0.39979   0.00000  Uiso   1.00
N272   N     0.19039   0.88716   0.22535   0.00000  Uiso   1.00
N273   N     0.29276   0.01599   0.56103   0.00000  Uiso   1.00
N274   N     0.56013   0.40511   0.37792   0.00000  Uiso   1.00
N275   N     0.29247   0.99256   0.20349   0.00000  Uiso   1.00
N276   N     0.39484   0.12139   0.53916   0.00000  Uiso   1.00
C277   C     0.80477   0.77503   0.60266   0.00000  Uiso   1.00
C278   C     0.87196   0.86647   0.60732   0.00000  Uiso   1.00
C279   C     0.87159   0.00206   0.59907   0.00000  Uiso   1.00
C280   C     0.93881   0.06804   0.60528   0.00000  Uiso   1.00
C281   C     0.03322   0.22028   0.61042   0.00000  Uiso   1.00
C282   C     0.79820   0.70458   0.65541   0.00000  Uiso   1.00
C283   C     0.73580   0.70405   0.68757   0.00000  Uiso   1.00
C284   C     0.74093   0.63373   0.73426   0.00000  Uiso   1.00
C285   C     0.72079   0.53455   0.81402   0.00000  Uiso   1.00
C286   C     0.82641   0.66909   0.56289   0.00000  Uiso   1.00
C287   C     0.78773   0.63869   0.51728   0.00000  Uiso   1.00
C288   C     0.81661   0.53847   0.48608   0.00000  Uiso   1.00
C289   C     0.84029   0.38420   0.42220   0.00000  Uiso   1.00
C290   C     0.92481   0.65107   0.62838   0.00000  Uiso   1.00
C291   C     0.93716   0.79914   0.62129   0.00000  Uiso   1.00
C292   C     0.00441   0.86492   0.62752   0.00000  Uiso   1.00
C293   C     0.00414   0.00060   0.61927   0.00000  Uiso   1.00
C294   C     0.86340   0.63725   0.66937   0.00000  Uiso   1.00
C295   C     0.86862   0.56691   0.71602   0.00000  Uiso   1.00
C296   C     0.80625   0.56628   0.74825   0.00000  Uiso   1.00
C297   C     0.89162   0.60176   0.57686   0.00000  Uiso   1.00
C298   C     0.92056   0.50156   0.54573   0.00000  Uiso   1.00
C299   C     0.88193   0.47102   0.50007   0.00000  Uiso   1.00
H300   H     0.75400   0.82744   0.59179   0.00000  Uiso   1.00
H301   H     0.82111   0.05413   0.58827   0.00000  Uiso   1.00
H302   H     0.68535   0.75615   0.67675   0.00000  Uiso   1.00
H303   H     0.73728   0.69082   0.50648   0.00000  Uiso   1.00
H304   H     0.92427   0.27578   0.59053   0.00000  Uiso   1.00
H305   H     0.63799   0.64743   0.77710   0.00000  Uiso   1.00
H306   H     0.74749   0.50966   0.41805   0.00000  Uiso   1.00
H307   H     0.97558   0.59865   0.63926   0.00000  Uiso   1.00
H308   H     0.05486   0.81280   0.63833   0.00000  Uiso   1.00
H309   H     0.91908   0.51481   0.72682   0.00000  Uiso   1.00
H310   H     0.97102   0.44948   0.55655   0.00000  Uiso   1.00
H311   H     0.11398   0.07991   0.63117   0.00000  Uiso   1.00
H312   H     0.82770   0.45155   0.81774   0.00000  Uiso   1.00
H313   H     0.93720   0.31378   0.45869   0.00000  Uiso   1.00
O314   O     0.06728   0.32285   0.60940   0.00000  Uiso   1.00
O315   O     0.69167   0.49846   0.85417   0.00000  Uiso   1.00
O316   O     0.83535   0.31771   0.38310   0.00000  Uiso   1.00
N317   N     0.95805   0.20029   0.60021   0.00000  Uiso   1.00
N318   N     0.69039   0.61284   0.77465   0.00000  Uiso   1.00
N319   N     0.79276   0.48401   0.43897   0.00000  Uiso   1.00
N320   N     0.06013   0.09489   0.62208   0.00000  Uiso   1.00
N321   N     0.79247   0.50744   0.79651   0.00000  Uiso   1.00
N322   N     0.89484   0.37861   0.46084   0.00000  Uiso   1.00
C323   C     0.69523   0.72497   0.10266   0.00000  Uiso   1.00
C324   C     0.62804   0.63353   0.10732   0.00000  Uiso   1.00
C325   C     0.62841   0.49794   0.09907   0.00000  Uiso   1.00
C326   C     0.56119   0.43196   0.10528   0.00000  Uiso   1.00
C327   C     0.46678   0.27972   0.11042   0.00000  Uiso   1.00
C328   C     0.70180   0.79542   0.15541   0.00000  Uiso   1.00
C329   C     0.76420   0.79595   0.18757   0.00000  Uiso   1.00
C330   C     0.75907   0.86627   0.23426   0.00000  Uiso   1.00
C331   C     0.77921   0.96545   0.31402   0.00000  Uiso   1.00
C332   C     0.67359   0.83091   0.06289   0.00000  Uiso   1.00
C333   C     0.71227   0.86131   0.01728   0.00000  Uiso   1.00
C334   C     0.68339   0.96153   0.98608   0.00000  Uiso   1.00
C335   C     0.65971   0.11580   0.92220   0.00000  Uiso   1.00
C336   C     0.57519   0.84893   0.12838   0.00000  Uiso   1.00
C337   C     0.56284   0.70086   0.12129   0.00000  Uiso   1.00
C338   C     0.49559   0.63508   0.12752   0.00000  Uiso   1.00
C339   C     0.49586   0.49940   0.11927   0.00000  Uiso   1.00
C340   C     0.63660   0.86275   0.16937   0.00000  Uiso   1.00
C341   C     0.63138   0.93309   0.21602   0.00000  Uiso   1.00
C342   C     0.69375   0.93372   0.24825   0.00000  Uiso   1.00
C343   C     0.60838   0.89824   0.07686   0.00000  Uiso   1.00
C344   C     0.57944   0.99844   0.04573   0.00000  Uiso   1.00
C345   C     0.61807   0.02898   0.00007   0.00000  Uiso   1.00
H346   H     0.74600   0.67256   0.09179   0.00000  Uiso   1.00
H347   H     0.67889   0.44587   0.08827   0.00000  Uiso   1.00
H348   H     0.81465   0.74385   0.17675   0.00000  Uiso   1.00
H349   H     0.76272   0.80918   0.00648   0.00000  Uiso   1.00
H350   H     0.57573   0.22422   0.09053   0.00000  Uiso   1.00
H351   H     0.86201   0.85257   0.27710   0.00000  Uiso   1.00
H352   H     0.75251   0.99034   0.91805   0.00000  Uiso   1.00
H353   H     0.52442   0.90135   0.13926   0.00000  Uiso   1.00
H354   H     0.44514   0.68720   0.13833   0.00000  Uiso   1.00
H355   H     0.58092   0.98519   0.22682   0.00000  Uiso   1.00
H356   H     0.52898   0.05052   0.05655   0.00000  Uiso   1.00
H357   H     0.38602   0.42009   0.13117   0.00000  Uiso   1.00
H358   H     0.67230   0.04845   0.31774   0.00000  Uiso   1.00
H359   H     0.56280   0.18622   0.95869   0.00000  Uiso   1.00
O360   O     0.43272   0.17715   0.10940   0.00000  Uiso   1.00
O361   O     0.80833   0.00154   0.35417   0.00000  Uiso   1.00
O362   O     0.66465   0.18229   0.88310   0.00000  Uiso   1.00
N363   N     0.54195   0.29971   0.10021   0.00000  Uiso   1.00
N364   N     0.80961   0.88716   0.27465   0.00000  Uiso   1.00
N365   N     0.70724   0.01599   0.93897   0.00000  Uiso   1.00
N366   N     0.43987   0.40511   0.12208   0.00000  Uiso   1.00
N367   N     0.70753   0.99256   0.29651   0.00000  Uiso   1.00
N368   N     0.60516   0.12139   0.96084   0.00000  Uiso   1.00
