data_job_00623
_audit_creation_date              2018-12-19
_audit_creation_method            'Materials Studio'
_symmetry_space_group_name_H-M    'P1'
_symmetry_Int_Tables_number       1
_symmetry_cell_setting            triclinic
loop_
_symmetry_equiv_pos_as_xyz
  x,y,z
_cell_length_a                    21.3218
_cell_length_b                    10.0339
_cell_length_c                    30.4054
_cell_angle_alpha                 90.0000
_cell_angle_beta                  128.4503
_cell_angle_gamma                 90.0000
loop_
_atom_site_label
_atom_site_type_symbol
_atom_site_fract_x
_atom_site_fract_y
_atom_site_fract_z
_atom_site_U_iso_or_equiv
_atom_site_adp_type
_atom_site_occupancy
C1     C     0.00603   0.60112   0.16872   0.00000  Uiso   1.00
C2     C     0.00950   0.65055   0.12285   0.00000  Uiso   1.00
C3     C     0.06005   0.74921   0.12900   0.00000  Uiso   1.00
C4     C     0.05404   0.78013   0.08200   0.00000  Uiso   1.00
C5     C     0.06771   0.86688   0.01856   0.00000  Uiso   1.00
C6     C     0.91943   0.61910   0.14575   0.00000  Uiso   1.00
C7     C     0.89426   0.69131   0.17117   0.00000  Uiso   1.00
C8     C     0.81243   0.69573   0.14344   0.00000  Uiso   1.00
C9     C     0.68628   0.73358   0.11558   0.00000  Uiso   1.00
C10    C     0.02022   0.45112   0.17285   0.00000  Uiso   1.00
C11    C     0.07977   0.38209   0.22107   0.00000  Uiso   1.00
C12    C     0.08278   0.24509   0.21616   0.00000  Uiso   1.00
C13    C     0.11312   0.02213   0.23039   0.00000  Uiso   1.00
C14    C     0.90546   0.48058   0.07429   0.00000  Uiso   1.00
C15    C     0.95487   0.58507   0.07156   0.00000  Uiso   1.00
C16    C     0.94878   0.61585   0.02453   0.00000  Uiso   1.00
C17    C     0.99932   0.71454   0.03062   0.00000  Uiso   1.00
C18    C     0.86481   0.55363   0.09446   0.00000  Uiso   1.00
C19    C     0.78299   0.55794   0.06669   0.00000  Uiso   1.00
C20    C     0.75770   0.63014   0.09206   0.00000  Uiso   1.00
C21    C     0.96560   0.38565   0.12156   0.00000  Uiso   1.00
C22    C     0.96851   0.24873   0.11659   0.00000  Uiso   1.00
C23    C     0.02806   0.17950   0.16478   0.00000  Uiso   1.00
H24    H     0.04855   0.65210   0.20865   0.00000  Uiso   1.00
H25    H     0.10231   0.79987   0.16870   0.00000  Uiso   1.00
H26    H     0.93655   0.74195   0.21086   0.00000  Uiso   1.00
H27    H     0.12203   0.43279   0.26075   0.00000  Uiso   1.00
H28    H     0.13780   0.93486   0.10179   0.00000  Uiso   1.00
H29    H     0.78829   0.81271   0.19069   0.00000  Uiso   1.00
H30    H     0.17942   0.16077   0.29589   0.00000  Uiso   1.00
H31    H     0.86293   0.42960   0.03436   0.00000  Uiso   1.00
H32    H     0.90650   0.56516   0.98484   0.00000  Uiso   1.00
H33    H     0.74074   0.50725   0.02700   0.00000  Uiso   1.00
H34    H     0.92623   0.19809   0.07689   0.00000  Uiso   1.00
H35    H     0.97888   0.74437   0.95256   0.00000  Uiso   1.00
H36    H     0.62936   0.62222   0.04146   0.00000  Uiso   1.00
H37    H     0.02049   0.97028   0.14666   0.00000  Uiso   1.00
O38    O     0.09034   0.93283   0.99774   0.00000  Uiso   1.00
O39    O     0.63179   0.77256   0.11438   0.00000  Uiso   1.00
O40    O     0.14495   0.91724   0.25240   0.00000  Uiso   1.00
N41    N     0.09443   0.87140   0.07346   0.00000  Uiso   1.00
N42    N     0.76765   0.75722   0.15658   0.00000  Uiso   1.00
N43    N     0.13332   0.14771   0.25493   0.00000  Uiso   1.00
N44    N     0.00892   0.76890   0.99317   0.00000  Uiso   1.00
N45    N     0.68214   0.65472   0.07628   0.00000  Uiso   1.00
N46    N     0.04780   0.04521   0.17464   0.00000  Uiso   1.00
C47    C     0.50603   0.10112   0.16872   0.00000  Uiso   1.00
C48    C     0.50950   0.15055   0.12285   0.00000  Uiso   1.00
C49    C     0.56005   0.24921   0.12900   0.00000  Uiso   1.00
C50    C     0.55404   0.28013   0.08200   0.00000  Uiso   1.00
C51    C     0.56771   0.36688   0.01856   0.00000  Uiso   1.00
C52    C     0.41943   0.11910   0.14575   0.00000  Uiso   1.00
C53    C     0.39426   0.19131   0.17117   0.00000  Uiso   1.00
C54    C     0.31243   0.19573   0.14344   0.00000  Uiso   1.00
C55    C     0.18628   0.23358   0.11558   0.00000  Uiso   1.00
C56    C     0.52022   0.95112   0.17285   0.00000  Uiso   1.00
C57    C     0.57977   0.88209   0.22107   0.00000  Uiso   1.00
C58    C     0.58278   0.74509   0.21616   0.00000  Uiso   1.00
C59    C     0.61312   0.52213   0.23039   0.00000  Uiso   1.00
C60    C     0.40546   0.98058   0.07429   0.00000  Uiso   1.00
C61    C     0.45487   0.08507   0.07156   0.00000  Uiso   1.00
C62    C     0.44878   0.11585   0.02453   0.00000  Uiso   1.00
C63    C     0.49932   0.21454   0.03062   0.00000  Uiso   1.00
C64    C     0.36481   0.05363   0.09446   0.00000  Uiso   1.00
C65    C     0.28299   0.05794   0.06669   0.00000  Uiso   1.00
C66    C     0.25770   0.13014   0.09206   0.00000  Uiso   1.00
C67    C     0.46560   0.88565   0.12156   0.00000  Uiso   1.00
C68    C     0.46851   0.74873   0.11659   0.00000  Uiso   1.00
C69    C     0.52806   0.67950   0.16478   0.00000  Uiso   1.00
H70    H     0.54855   0.15210   0.20865   0.00000  Uiso   1.00
H71    H     0.60231   0.29987   0.16870   0.00000  Uiso   1.00
H72    H     0.43655   0.24195   0.21086   0.00000  Uiso   1.00
H73    H     0.62203   0.93279   0.26075   0.00000  Uiso   1.00
H74    H     0.63780   0.43486   0.10179   0.00000  Uiso   1.00
H75    H     0.28829   0.31271   0.19069   0.00000  Uiso   1.00
H76    H     0.67942   0.66077   0.29589   0.00000  Uiso   1.00
H77    H     0.36293   0.92960   0.03436   0.00000  Uiso   1.00
H78    H     0.40650   0.06516   0.98484   0.00000  Uiso   1.00
H79    H     0.24074   0.00725   0.02700   0.00000  Uiso   1.00
H80    H     0.42623   0.69809   0.07689   0.00000  Uiso   1.00
H81    H     0.47888   0.24437   0.95256   0.00000  Uiso   1.00
H82    H     0.12936   0.12222   0.04146   0.00000  Uiso   1.00
H83    H     0.52049   0.47028   0.14666   0.00000  Uiso   1.00
O84    O     0.59034   0.43283   0.99774   0.00000  Uiso   1.00
O85    O     0.13179   0.27256   0.11438   0.00000  Uiso   1.00
O86    O     0.64495   0.41724   0.25240   0.00000  Uiso   1.00
N87    N     0.59443   0.37140   0.07346   0.00000  Uiso   1.00
N88    N     0.26765   0.25722   0.15658   0.00000  Uiso   1.00
N89    N     0.63332   0.64771   0.25493   0.00000  Uiso   1.00
N90    N     0.50892   0.26890   0.99317   0.00000  Uiso   1.00
N91    N     0.18214   0.15472   0.07628   0.00000  Uiso   1.00
N92    N     0.54780   0.54521   0.17464   0.00000  Uiso   1.00
C93    C     0.99397   0.60112   0.33128   0.00000  Uiso   1.00
C94    C     0.99050   0.65055   0.37715   0.00000  Uiso   1.00
C95    C     0.93995   0.74921   0.37100   0.00000  Uiso   1.00
C96    C     0.94596   0.78013   0.41800   0.00000  Uiso   1.00
C97    C     0.93229   0.86688   0.48144   0.00000  Uiso   1.00
C98    C     0.08057   0.61910   0.35425   0.00000  Uiso   1.00
C99    C     0.10574   0.69131   0.32883   0.00000  Uiso   1.00
C100   C     0.18757   0.69573   0.35656   0.00000  Uiso   1.00
C101   C     0.31372   0.73358   0.38442   0.00000  Uiso   1.00
C102   C     0.97978   0.45112   0.32715   0.00000  Uiso   1.00
C103   C     0.92023   0.38209   0.27893   0.00000  Uiso   1.00
C104   C     0.91722   0.24509   0.28384   0.00000  Uiso   1.00
C105   C     0.88688   0.02213   0.26961   0.00000  Uiso   1.00
C106   C     0.09454   0.48058   0.42571   0.00000  Uiso   1.00
C107   C     0.04513   0.58507   0.42844   0.00000  Uiso   1.00
C108   C     0.05122   0.61585   0.47547   0.00000  Uiso   1.00
C109   C     0.00068   0.71454   0.46938   0.00000  Uiso   1.00
C110   C     0.13519   0.55363   0.40554   0.00000  Uiso   1.00
C111   C     0.21701   0.55794   0.43331   0.00000  Uiso   1.00
C112   C     0.24230   0.63014   0.40794   0.00000  Uiso   1.00
C113   C     0.03440   0.38565   0.37844   0.00000  Uiso   1.00
C114   C     0.03149   0.24873   0.38341   0.00000  Uiso   1.00
C115   C     0.97194   0.17950   0.33522   0.00000  Uiso   1.00
H116   H     0.95145   0.65210   0.29135   0.00000  Uiso   1.00
H117   H     0.89769   0.79987   0.33130   0.00000  Uiso   1.00
H118   H     0.06345   0.74195   0.28914   0.00000  Uiso   1.00
H119   H     0.87797   0.43279   0.23925   0.00000  Uiso   1.00
H120   H     0.86220   0.93486   0.39821   0.00000  Uiso   1.00
H121   H     0.21171   0.81271   0.30931   0.00000  Uiso   1.00
H122   H     0.82058   0.16077   0.20411   0.00000  Uiso   1.00
H123   H     0.13707   0.42960   0.46564   0.00000  Uiso   1.00
H124   H     0.09350   0.56516   0.51516   0.00000  Uiso   1.00
H125   H     0.25926   0.50725   0.47300   0.00000  Uiso   1.00
H126   H     0.07377   0.19809   0.42311   0.00000  Uiso   1.00
H127   H     0.02112   0.74437   0.54744   0.00000  Uiso   1.00
H128   H     0.37064   0.62222   0.45854   0.00000  Uiso   1.00
H129   H     0.97951   0.97028   0.35334   0.00000  Uiso   1.00
O130   O     0.90966   0.93283   0.50226   0.00000  Uiso   1.00
O131   O     0.36821   0.77256   0.38562   0.00000  Uiso   1.00
O132   O     0.85505   0.91724   0.24760   0.00000  Uiso   1.00
N133   N     0.90557   0.87140   0.42654   0.00000  Uiso   1.00
N134   N     0.23235   0.75722   0.34342   0.00000  Uiso   1.00
N135   N     0.86668   0.14771   0.24507   0.00000  Uiso   1.00
N136   N     0.99108   0.76890   0.50683   0.00000  Uiso   1.00
N137   N     0.31786   0.65472   0.42372   0.00000  Uiso   1.00
N138   N     0.95220   0.04521   0.32536   0.00000  Uiso   1.00
C139   C     0.49397   0.10112   0.33128   0.00000  Uiso   1.00
C140   C     0.49050   0.15055   0.37715   0.00000  Uiso   1.00
C141   C     0.43995   0.24921   0.37100   0.00000  Uiso   1.00
C142   C     0.44596   0.28013   0.41800   0.00000  Uiso   1.00
C143   C     0.43229   0.36688   0.48144   0.00000  Uiso   1.00
C144   C     0.58057   0.11910   0.35425   0.00000  Uiso   1.00
C145   C     0.60574   0.19131   0.32883   0.00000  Uiso   1.00
C146   C     0.68757   0.19573   0.35656   0.00000  Uiso   1.00
C147   C     0.81372   0.23358   0.38442   0.00000  Uiso   1.00
C148   C     0.47978   0.95112   0.32715   0.00000  Uiso   1.00
C149   C     0.42023   0.88209   0.27893   0.00000  Uiso   1.00
C150   C     0.41722   0.74509   0.28384   0.00000  Uiso   1.00
C151   C     0.38688   0.52213   0.26961   0.00000  Uiso   1.00
C152   C     0.59454   0.98058   0.42571   0.00000  Uiso   1.00
C153   C     0.54513   0.08507   0.42844   0.00000  Uiso   1.00
C154   C     0.55122   0.11585   0.47547   0.00000  Uiso   1.00
C155   C     0.50068   0.21454   0.46938   0.00000  Uiso   1.00
C156   C     0.63519   0.05363   0.40554   0.00000  Uiso   1.00
C157   C     0.71701   0.05794   0.43331   0.00000  Uiso   1.00
C158   C     0.74230   0.13014   0.40794   0.00000  Uiso   1.00
C159   C     0.53440   0.88565   0.37844   0.00000  Uiso   1.00
C160   C     0.53149   0.74873   0.38341   0.00000  Uiso   1.00
C161   C     0.47194   0.67950   0.33522   0.00000  Uiso   1.00
H162   H     0.45145   0.15210   0.29135   0.00000  Uiso   1.00
H163   H     0.39769   0.29987   0.33130   0.00000  Uiso   1.00
H164   H     0.56345   0.24195   0.28914   0.00000  Uiso   1.00
H165   H     0.37797   0.93279   0.23925   0.00000  Uiso   1.00
H166   H     0.36220   0.43486   0.39821   0.00000  Uiso   1.00
H167   H     0.71171   0.31271   0.30931   0.00000  Uiso   1.00
H168   H     0.32058   0.66077   0.20411   0.00000  Uiso   1.00
H169   H     0.63707   0.92960   0.46564   0.00000  Uiso   1.00
H170   H     0.59350   0.06516   0.51516   0.00000  Uiso   1.00
H171   H     0.75926   0.00725   0.47300   0.00000  Uiso   1.00
H172   H     0.57377   0.69809   0.42311   0.00000  Uiso   1.00
H173   H     0.52112   0.24437   0.54744   0.00000  Uiso   1.00
H174   H     0.87064   0.12222   0.45854   0.00000  Uiso   1.00
H175   H     0.47951   0.47028   0.35334   0.00000  Uiso   1.00
O176   O     0.40966   0.43283   0.50226   0.00000  Uiso   1.00
O177   O     0.86821   0.27256   0.38562   0.00000  Uiso   1.00
O178   O     0.35505   0.41724   0.24760   0.00000  Uiso   1.00
N179   N     0.40557   0.37140   0.42654   0.00000  Uiso   1.00
N180   N     0.73235   0.25722   0.34342   0.00000  Uiso   1.00
N181   N     0.36668   0.64771   0.24507   0.00000  Uiso   1.00
N182   N     0.49108   0.26890   0.50683   0.00000  Uiso   1.00
N183   N     0.81786   0.15472   0.42372   0.00000  Uiso   1.00
N184   N     0.45220   0.54521   0.32536   0.00000  Uiso   1.00
C185   C     0.99397   0.39888   0.83128   0.00000  Uiso   1.00
C186   C     0.99050   0.34945   0.87715   0.00000  Uiso   1.00
C187   C     0.93995   0.25079   0.87100   0.00000  Uiso   1.00
C188   C     0.94596   0.21987   0.91800   0.00000  Uiso   1.00
C189   C     0.93229   0.13312   0.98144   0.00000  Uiso   1.00
C190   C     0.08057   0.38090   0.85425   0.00000  Uiso   1.00
C191   C     0.10574   0.30869   0.82883   0.00000  Uiso   1.00
C192   C     0.18757   0.30427   0.85656   0.00000  Uiso   1.00
C193   C     0.31372   0.26642   0.88442   0.00000  Uiso   1.00
C194   C     0.97978   0.54888   0.82715   0.00000  Uiso   1.00
C195   C     0.92023   0.61791   0.77893   0.00000  Uiso   1.00
C196   C     0.91722   0.75491   0.78384   0.00000  Uiso   1.00
C197   C     0.88688   0.97787   0.76961   0.00000  Uiso   1.00
C198   C     0.09454   0.51942   0.92571   0.00000  Uiso   1.00
C199   C     0.04513   0.41493   0.92844   0.00000  Uiso   1.00
C200   C     0.05122   0.38415   0.97547   0.00000  Uiso   1.00
C201   C     0.00068   0.28546   0.96938   0.00000  Uiso   1.00
C202   C     0.13519   0.44637   0.90554   0.00000  Uiso   1.00
C203   C     0.21701   0.44206   0.93331   0.00000  Uiso   1.00
C204   C     0.24230   0.36986   0.90794   0.00000  Uiso   1.00
C205   C     0.03440   0.61435   0.87844   0.00000  Uiso   1.00
C206   C     0.03149   0.75127   0.88341   0.00000  Uiso   1.00
C207   C     0.97194   0.82050   0.83522   0.00000  Uiso   1.00
H208   H     0.95145   0.34790   0.79135   0.00000  Uiso   1.00
H209   H     0.89769   0.20013   0.83130   0.00000  Uiso   1.00
H210   H     0.06345   0.25805   0.78914   0.00000  Uiso   1.00
H211   H     0.87797   0.56721   0.73925   0.00000  Uiso   1.00
H212   H     0.86220   0.06514   0.89821   0.00000  Uiso   1.00
H213   H     0.21171   0.18729   0.80931   0.00000  Uiso   1.00
H214   H     0.82058   0.83923   0.70411   0.00000  Uiso   1.00
H215   H     0.13707   0.57040   0.96564   0.00000  Uiso   1.00
H216   H     0.09350   0.43484   0.01516   0.00000  Uiso   1.00
H217   H     0.25926   0.49275   0.97300   0.00000  Uiso   1.00
H218   H     0.07377   0.80191   0.92311   0.00000  Uiso   1.00
H219   H     0.02112   0.25563   0.04744   0.00000  Uiso   1.00
H220   H     0.37064   0.37778   0.95854   0.00000  Uiso   1.00
H221   H     0.97951   0.02972   0.85334   0.00000  Uiso   1.00
O222   O     0.90966   0.06717   0.00226   0.00000  Uiso   1.00
O223   O     0.36821   0.22744   0.88562   0.00000  Uiso   1.00
O224   O     0.85505   0.08276   0.74760   0.00000  Uiso   1.00
N225   N     0.90557   0.12860   0.92654   0.00000  Uiso   1.00
N226   N     0.23235   0.24278   0.84342   0.00000  Uiso   1.00
N227   N     0.86668   0.85229   0.74507   0.00000  Uiso   1.00
N228   N     0.99108   0.23110   0.00683   0.00000  Uiso   1.00
N229   N     0.31786   0.34528   0.92372   0.00000  Uiso   1.00
N230   N     0.95220   0.95479   0.82536   0.00000  Uiso   1.00
C231   C     0.49397   0.89888   0.83128   0.00000  Uiso   1.00
C232   C     0.49050   0.84945   0.87715   0.00000  Uiso   1.00
C233   C     0.43995   0.75079   0.87100   0.00000  Uiso   1.00
C234   C     0.44596   0.71987   0.91800   0.00000  Uiso   1.00
C235   C     0.43229   0.63312   0.98144   0.00000  Uiso   1.00
C236   C     0.58057   0.88090   0.85425   0.00000  Uiso   1.00
C237   C     0.60574   0.80869   0.82883   0.00000  Uiso   1.00
C238   C     0.68757   0.80427   0.85656   0.00000  Uiso   1.00
C239   C     0.81372   0.76642   0.88442   0.00000  Uiso   1.00
C240   C     0.47978   0.04888   0.82715   0.00000  Uiso   1.00
C241   C     0.42023   0.11791   0.77893   0.00000  Uiso   1.00
C242   C     0.41722   0.25491   0.78384   0.00000  Uiso   1.00
C243   C     0.38688   0.47787   0.76961   0.00000  Uiso   1.00
C244   C     0.59454   0.01942   0.92571   0.00000  Uiso   1.00
C245   C     0.54513   0.91493   0.92844   0.00000  Uiso   1.00
C246   C     0.55122   0.88415   0.97547   0.00000  Uiso   1.00
C247   C     0.50068   0.78546   0.96938   0.00000  Uiso   1.00
C248   C     0.63519   0.94637   0.90554   0.00000  Uiso   1.00
C249   C     0.71701   0.94206   0.93331   0.00000  Uiso   1.00
C250   C     0.74230   0.86986   0.90794   0.00000  Uiso   1.00
C251   C     0.53440   0.11435   0.87844   0.00000  Uiso   1.00
C252   C     0.53149   0.25127   0.88341   0.00000  Uiso   1.00
C253   C     0.47194   0.32050   0.83522   0.00000  Uiso   1.00
H254   H     0.45145   0.84790   0.79135   0.00000  Uiso   1.00
H255   H     0.39769   0.70013   0.83130   0.00000  Uiso   1.00
H256   H     0.56345   0.75805   0.78914   0.00000  Uiso   1.00
H257   H     0.37797   0.06721   0.73925   0.00000  Uiso   1.00
H258   H     0.36220   0.56514   0.89821   0.00000  Uiso   1.00
H259   H     0.71171   0.68729   0.80931   0.00000  Uiso   1.00
H260   H     0.32058   0.33923   0.70411   0.00000  Uiso   1.00
H261   H     0.63707   0.07040   0.96564   0.00000  Uiso   1.00
H262   H     0.59350   0.93484   0.01516   0.00000  Uiso   1.00
H263   H     0.75926   0.99275   0.97300   0.00000  Uiso   1.00
H264   H     0.57377   0.30191   0.92311   0.00000  Uiso   1.00
H265   H     0.52112   0.75563   0.04744   0.00000  Uiso   1.00
H266   H     0.87064   0.87778   0.95854   0.00000  Uiso   1.00
H267   H     0.47951   0.52972   0.85334   0.00000  Uiso   1.00
O268   O     0.40966   0.56717   0.00226   0.00000  Uiso   1.00
O269   O     0.86821   0.72744   0.88562   0.00000  Uiso   1.00
O270   O     0.35505   0.58276   0.74760   0.00000  Uiso   1.00
N271   N     0.40557   0.62860   0.92654   0.00000  Uiso   1.00
N272   N     0.73235   0.74278   0.84342   0.00000  Uiso   1.00
N273   N     0.36668   0.35229   0.74507   0.00000  Uiso   1.00
N274   N     0.49108   0.73110   0.00683   0.00000  Uiso   1.00
N275   N     0.81786   0.84528   0.92372   0.00000  Uiso   1.00
N276   N     0.45220   0.45479   0.82536   0.00000  Uiso   1.00
C277   C     0.00603   0.39888   0.66872   0.00000  Uiso   1.00
C278   C     0.00950   0.34945   0.62285   0.00000  Uiso   1.00
C279   C     0.06005   0.25079   0.62900   0.00000  Uiso   1.00
C280   C     0.05404   0.21987   0.58200   0.00000  Uiso   1.00
C281   C     0.06771   0.13312   0.51856   0.00000  Uiso   1.00
C282   C     0.91943   0.38090   0.64575   0.00000  Uiso   1.00
C283   C     0.89426   0.30869   0.67117   0.00000  Uiso   1.00
C284   C     0.81243   0.30427   0.64344   0.00000  Uiso   1.00
C285   C     0.68628   0.26642   0.61558   0.00000  Uiso   1.00
C286   C     0.02022   0.54888   0.67285   0.00000  Uiso   1.00
C287   C     0.07977   0.61791   0.72107   0.00000  Uiso   1.00
C288   C     0.08278   0.75491   0.71616   0.00000  Uiso   1.00
C289   C     0.11312   0.97787   0.73039   0.00000  Uiso   1.00
C290   C     0.90546   0.51942   0.57429   0.00000  Uiso   1.00
C291   C     0.95487   0.41493   0.57156   0.00000  Uiso   1.00
C292   C     0.94878   0.38415   0.52453   0.00000  Uiso   1.00
C293   C     0.99932   0.28546   0.53062   0.00000  Uiso   1.00
C294   C     0.86481   0.44637   0.59446   0.00000  Uiso   1.00
C295   C     0.78299   0.44206   0.56669   0.00000  Uiso   1.00
C296   C     0.75770   0.36986   0.59206   0.00000  Uiso   1.00
C297   C     0.96560   0.61435   0.62156   0.00000  Uiso   1.00
C298   C     0.96851   0.75127   0.61659   0.00000  Uiso   1.00
C299   C     0.02806   0.82050   0.66478   0.00000  Uiso   1.00
H300   H     0.04855   0.34790   0.70865   0.00000  Uiso   1.00
H301   H     0.10231   0.20013   0.66870   0.00000  Uiso   1.00
H302   H     0.93655   0.25805   0.71086   0.00000  Uiso   1.00
H303   H     0.12203   0.56721   0.76075   0.00000  Uiso   1.00
H304   H     0.13780   0.06514   0.60179   0.00000  Uiso   1.00
H305   H     0.78829   0.18729   0.69069   0.00000  Uiso   1.00
H306   H     0.17942   0.83923   0.79589   0.00000  Uiso   1.00
H307   H     0.86293   0.57040   0.53436   0.00000  Uiso   1.00
H308   H     0.90650   0.43484   0.48484   0.00000  Uiso   1.00
H309   H     0.74074   0.49275   0.52700   0.00000  Uiso   1.00
H310   H     0.92623   0.80191   0.57689   0.00000  Uiso   1.00
H311   H     0.97888   0.25563   0.45256   0.00000  Uiso   1.00
H312   H     0.62936   0.37778   0.54146   0.00000  Uiso   1.00
H313   H     0.02049   0.02972   0.64666   0.00000  Uiso   1.00
O314   O     0.09034   0.06717   0.49774   0.00000  Uiso   1.00
O315   O     0.63179   0.22744   0.61438   0.00000  Uiso   1.00
O316   O     0.14495   0.08276   0.75240   0.00000  Uiso   1.00
N317   N     0.09443   0.12860   0.57346   0.00000  Uiso   1.00
N318   N     0.76765   0.24278   0.65658   0.00000  Uiso   1.00
N319   N     0.13332   0.85229   0.75493   0.00000  Uiso   1.00
N320   N     0.00892   0.23110   0.49317   0.00000  Uiso   1.00
N321   N     0.68214   0.34528   0.57628   0.00000  Uiso   1.00
N322   N     0.04780   0.95479   0.67464   0.00000  Uiso   1.00
C323   C     0.50603   0.89888   0.66872   0.00000  Uiso   1.00
C324   C     0.50950   0.84945   0.62285   0.00000  Uiso   1.00
C325   C     0.56005   0.75079   0.62900   0.00000  Uiso   1.00
C326   C     0.55404   0.71987   0.58200   0.00000  Uiso   1.00
C327   C     0.56771   0.63312   0.51856   0.00000  Uiso   1.00
C328   C     0.41943   0.88090   0.64575   0.00000  Uiso   1.00
C329   C     0.39426   0.80869   0.67117   0.00000  Uiso   1.00
C330   C     0.31243   0.80427   0.64344   0.00000  Uiso   1.00
C331   C     0.18628   0.76642   0.61558   0.00000  Uiso   1.00
C332   C     0.52022   0.04888   0.67285   0.00000  Uiso   1.00
C333   C     0.57977   0.11791   0.72107   0.00000  Uiso   1.00
C334   C     0.58278   0.25491   0.71616   0.00000  Uiso   1.00
C335   C     0.61312   0.47787   0.73039   0.00000  Uiso   1.00
C336   C     0.40546   0.01942   0.57429   0.00000  Uiso   1.00
C337   C     0.45487   0.91493   0.57156   0.00000  Uiso   1.00
C338   C     0.44878   0.88415   0.52453   0.00000  Uiso   1.00
C339   C     0.49932   0.78546   0.53062   0.00000  Uiso   1.00
C340   C     0.36481   0.94637   0.59446   0.00000  Uiso   1.00
C341   C     0.28299   0.94206   0.56669   0.00000  Uiso   1.00
C342   C     0.25770   0.86986   0.59206   0.00000  Uiso   1.00
C343   C     0.46560   0.11435   0.62156   0.00000  Uiso   1.00
C344   C     0.46851   0.25127   0.61659   0.00000  Uiso   1.00
C345   C     0.52806   0.32050   0.66478   0.00000  Uiso   1.00
H346   H     0.54855   0.84790   0.70865   0.00000  Uiso   1.00
H347   H     0.60231   0.70013   0.66870   0.00000  Uiso   1.00
H348   H     0.43655   0.75805   0.71086   0.00000  Uiso   1.00
H349   H     0.62203   0.06721   0.76075   0.00000  Uiso   1.00
H350   H     0.63780   0.56514   0.60179   0.00000  Uiso   1.00
H351   H     0.28829   0.68729   0.69069   0.00000  Uiso   1.00
H352   H     0.67942   0.33923   0.79589   0.00000  Uiso   1.00
H353   H     0.36293   0.07040   0.53436   0.00000  Uiso   1.00
H354   H     0.40650   0.93484   0.48484   0.00000  Uiso   1.00
H355   H     0.24074   0.99275   0.52700   0.00000  Uiso   1.00
H356   H     0.42623   0.30191   0.57689   0.00000  Uiso   1.00
H357   H     0.47888   0.75563   0.45256   0.00000  Uiso   1.00
H358   H     0.12936   0.87778   0.54146   0.00000  Uiso   1.00
H359   H     0.52049   0.52972   0.64666   0.00000  Uiso   1.00
O360   O     0.59034   0.56717   0.49774   0.00000  Uiso   1.00
O361   O     0.13179   0.72744   0.61438   0.00000  Uiso   1.00
O362   O     0.64495   0.58276   0.75240   0.00000  Uiso   1.00
N363   N     0.59443   0.62860   0.57346   0.00000  Uiso   1.00
N364   N     0.26765   0.74278   0.65658   0.00000  Uiso   1.00
N365   N     0.63332   0.35229   0.75493   0.00000  Uiso   1.00
N366   N     0.50892   0.73110   0.49317   0.00000  Uiso   1.00
N367   N     0.18214   0.84528   0.57628   0.00000  Uiso   1.00
N368   N     0.54780   0.45479   0.67464   0.00000  Uiso   1.00
