data_job_05250
_audit_creation_date              2018-12-19
_audit_creation_method            'Materials Studio'
_symmetry_space_group_name_H-M    'P1'
_symmetry_Int_Tables_number       1
_symmetry_cell_setting            triclinic
loop_
_symmetry_equiv_pos_as_xyz
  x,y,z
_cell_length_a                    14.7071
_cell_length_b                    19.6486
_cell_length_c                    20.9750
_cell_angle_alpha                 90.0000
_cell_angle_beta                  90.0000
_cell_angle_gamma                 90.0000
loop_
_atom_site_label
_atom_site_type_symbol
_atom_site_fract_x
_atom_site_fract_y
_atom_site_fract_z
_atom_site_U_iso_or_equiv
_atom_site_adp_type
_atom_site_occupancy
C1     C     0.21203   0.41890   0.31552   0.00000  Uiso   1.00
C2     C     0.28839   0.39524   0.35942   0.00000  Uiso   1.00
C3     C     0.30840   0.32813   0.37457   0.00000  Uiso   1.00
C4     C     0.38096   0.31706   0.41562   0.00000  Uiso   1.00
C5     C     0.49179   0.27209   0.48002   0.00000  Uiso   1.00
C6     C     0.15439   0.46796   0.35476   0.00000  Uiso   1.00
C7     C     0.06173   0.46201   0.36597   0.00000  Uiso   1.00
C8     C     0.02149   0.51217   0.40309   0.00000  Uiso   1.00
C9     C     0.92427   0.58013   0.46021   0.00000  Uiso   1.00
C10    C     0.25723   0.46180   0.26389   0.00000  Uiso   1.00
C11    C     0.25103   0.45068   0.19869   0.00000  Uiso   1.00
C12    C     0.29736   0.49566   0.15931   0.00000  Uiso   1.00
C13    C     0.35982   0.55405   0.07534   0.00000  Uiso   1.00
C14    C     0.30532   0.51857   0.36150   0.00000  Uiso   1.00
C15    C     0.33906   0.44937   0.38440   0.00000  Uiso   1.00
C16    C     0.41161   0.43840   0.42544   0.00000  Uiso   1.00
C17    C     0.43172   0.37129   0.44064   0.00000  Uiso   1.00
C18    C     0.20506   0.52210   0.37973   0.00000  Uiso   1.00
C19    C     0.16494   0.57228   0.41684   0.00000  Uiso   1.00
C20    C     0.07225   0.56640   0.42811   0.00000  Uiso   1.00
C21    C     0.30791   0.51594   0.28886   0.00000  Uiso   1.00
C22    C     0.35425   0.56095   0.24957   0.00000  Uiso   1.00
C23    C     0.34812   0.54989   0.18433   0.00000  Uiso   1.00
H24    H     0.17258   0.37676   0.29608   0.00000  Uiso   1.00
H25    H     0.26916   0.28625   0.35523   0.00000  Uiso   1.00
H26    H     0.02253   0.42012   0.34663   0.00000  Uiso   1.00
H27    H     0.21181   0.40878   0.17939   0.00000  Uiso   1.00
H28    H     0.39857   0.20979   0.43185   0.00000  Uiso   1.00
H29    H     0.87854   0.49206   0.41370   0.00000  Uiso   1.00
H30    H     0.27765   0.46815   0.06102   0.00000  Uiso   1.00
H31    H     0.34477   0.56072   0.38094   0.00000  Uiso   1.00
H32    H     0.45081   0.48031   0.44476   0.00000  Uiso   1.00
H33    H     0.20418   0.61417   0.43616   0.00000  Uiso   1.00
H34    H     0.39345   0.60283   0.26891   0.00000  Uiso   1.00
H35    H     0.54600   0.36729   0.50452   0.00000  Uiso   1.00
H36    H     0.02596   0.64956   0.48636   0.00000  Uiso   1.00
H37    H     0.42508   0.62566   0.13369   0.00000  Uiso   1.00
O38    O     0.53891   0.23232   0.50865   0.00000  Uiso   1.00
O39    O     0.85665   0.60266   0.48482   0.00000  Uiso   1.00
O40    O     0.38028   0.57129   0.02212   0.00000  Uiso   1.00
N41    N     0.41872   0.25789   0.44019   0.00000  Uiso   1.00
N42    N     0.93253   0.52179   0.42322   0.00000  Uiso   1.00
N43    N     0.30565   0.49945   0.09350   0.00000  Uiso   1.00
N44    N     0.49806   0.34264   0.47928   0.00000  Uiso   1.00
N45    N     0.01186   0.60654   0.46232   0.00000  Uiso   1.00
N46    N     0.38498   0.58420   0.13260   0.00000  Uiso   1.00
C47    C     0.71203   0.91890   0.31552   0.00000  Uiso   1.00
C48    C     0.78839   0.89524   0.35942   0.00000  Uiso   1.00
C49    C     0.80840   0.82813   0.37457   0.00000  Uiso   1.00
C50    C     0.88096   0.81706   0.41562   0.00000  Uiso   1.00
C51    C     0.99179   0.77209   0.48002   0.00000  Uiso   1.00
C52    C     0.65439   0.96796   0.35476   0.00000  Uiso   1.00
C53    C     0.56173   0.96201   0.36597   0.00000  Uiso   1.00
C54    C     0.52149   0.01217   0.40309   0.00000  Uiso   1.00
C55    C     0.42427   0.08013   0.46021   0.00000  Uiso   1.00
C56    C     0.75723   0.96180   0.26389   0.00000  Uiso   1.00
C57    C     0.75103   0.95068   0.19869   0.00000  Uiso   1.00
C58    C     0.79736   0.99566   0.15931   0.00000  Uiso   1.00
C59    C     0.85982   0.05405   0.07534   0.00000  Uiso   1.00
C60    C     0.80532   0.01857   0.36150   0.00000  Uiso   1.00
C61    C     0.83906   0.94937   0.38440   0.00000  Uiso   1.00
C62    C     0.91161   0.93840   0.42544   0.00000  Uiso   1.00
C63    C     0.93172   0.87129   0.44064   0.00000  Uiso   1.00
C64    C     0.70506   0.02210   0.37973   0.00000  Uiso   1.00
C65    C     0.66494   0.07228   0.41684   0.00000  Uiso   1.00
C66    C     0.57225   0.06640   0.42811   0.00000  Uiso   1.00
C67    C     0.80791   0.01594   0.28886   0.00000  Uiso   1.00
C68    C     0.85425   0.06095   0.24957   0.00000  Uiso   1.00
C69    C     0.84812   0.04989   0.18433   0.00000  Uiso   1.00
H70    H     0.67258   0.87676   0.29608   0.00000  Uiso   1.00
H71    H     0.76916   0.78625   0.35523   0.00000  Uiso   1.00
H72    H     0.52253   0.92012   0.34663   0.00000  Uiso   1.00
H73    H     0.71181   0.90878   0.17939   0.00000  Uiso   1.00
H74    H     0.89857   0.70979   0.43185   0.00000  Uiso   1.00
H75    H     0.37854   0.99206   0.41370   0.00000  Uiso   1.00
H76    H     0.77765   0.96815   0.06102   0.00000  Uiso   1.00
H77    H     0.84477   0.06072   0.38094   0.00000  Uiso   1.00
H78    H     0.95081   0.98031   0.44476   0.00000  Uiso   1.00
H79    H     0.70418   0.11417   0.43616   0.00000  Uiso   1.00
H80    H     0.89345   0.10283   0.26891   0.00000  Uiso   1.00
H81    H     0.04600   0.86729   0.50452   0.00000  Uiso   1.00
H82    H     0.52596   0.14956   0.48636   0.00000  Uiso   1.00
H83    H     0.92508   0.12566   0.13369   0.00000  Uiso   1.00
O84    O     0.03891   0.73232   0.50865   0.00000  Uiso   1.00
O85    O     0.35665   0.10266   0.48482   0.00000  Uiso   1.00
O86    O     0.88028   0.07129   0.02212   0.00000  Uiso   1.00
N87    N     0.91872   0.75789   0.44019   0.00000  Uiso   1.00
N88    N     0.43253   0.02179   0.42322   0.00000  Uiso   1.00
N89    N     0.80565   0.99945   0.09350   0.00000  Uiso   1.00
N90    N     0.99806   0.84264   0.47928   0.00000  Uiso   1.00
N91    N     0.51186   0.10654   0.46232   0.00000  Uiso   1.00
N92    N     0.88498   0.08420   0.13260   0.00000  Uiso   1.00
C93    C     0.78797   0.58110   0.81552   0.00000  Uiso   1.00
C94    C     0.71161   0.60476   0.85942   0.00000  Uiso   1.00
C95    C     0.69160   0.67187   0.87457   0.00000  Uiso   1.00
C96    C     0.61904   0.68294   0.91562   0.00000  Uiso   1.00
C97    C     0.50821   0.72791   0.98002   0.00000  Uiso   1.00
C98    C     0.84561   0.53204   0.85476   0.00000  Uiso   1.00
C99    C     0.93827   0.53799   0.86597   0.00000  Uiso   1.00
C100   C     0.97851   0.48783   0.90309   0.00000  Uiso   1.00
C101   C     0.07573   0.41987   0.96021   0.00000  Uiso   1.00
C102   C     0.74277   0.53820   0.76389   0.00000  Uiso   1.00
C103   C     0.74897   0.54932   0.69869   0.00000  Uiso   1.00
C104   C     0.70264   0.50434   0.65931   0.00000  Uiso   1.00
C105   C     0.64018   0.44595   0.57534   0.00000  Uiso   1.00
C106   C     0.69468   0.48143   0.86150   0.00000  Uiso   1.00
C107   C     0.66094   0.55063   0.88440   0.00000  Uiso   1.00
C108   C     0.58839   0.56160   0.92544   0.00000  Uiso   1.00
C109   C     0.56828   0.62871   0.94064   0.00000  Uiso   1.00
C110   C     0.79494   0.47790   0.87973   0.00000  Uiso   1.00
C111   C     0.83506   0.42772   0.91684   0.00000  Uiso   1.00
C112   C     0.92775   0.43360   0.92811   0.00000  Uiso   1.00
C113   C     0.69209   0.48406   0.78886   0.00000  Uiso   1.00
C114   C     0.64575   0.43905   0.74957   0.00000  Uiso   1.00
C115   C     0.65188   0.45011   0.68433   0.00000  Uiso   1.00
H116   H     0.82742   0.62324   0.79608   0.00000  Uiso   1.00
H117   H     0.73084   0.71375   0.85523   0.00000  Uiso   1.00
H118   H     0.97747   0.57988   0.84663   0.00000  Uiso   1.00
H119   H     0.78819   0.59122   0.67939   0.00000  Uiso   1.00
H120   H     0.60143   0.79021   0.93185   0.00000  Uiso   1.00
H121   H     0.12146   0.50794   0.91370   0.00000  Uiso   1.00
H122   H     0.72235   0.53185   0.56102   0.00000  Uiso   1.00
H123   H     0.65523   0.43928   0.88094   0.00000  Uiso   1.00
H124   H     0.54919   0.51969   0.94476   0.00000  Uiso   1.00
H125   H     0.79582   0.38583   0.93616   0.00000  Uiso   1.00
H126   H     0.60655   0.39717   0.76891   0.00000  Uiso   1.00
H127   H     0.45400   0.63271   0.00452   0.00000  Uiso   1.00
H128   H     0.97404   0.35044   0.98636   0.00000  Uiso   1.00
H129   H     0.57492   0.37434   0.63369   0.00000  Uiso   1.00
O130   O     0.46109   0.76768   0.00865   0.00000  Uiso   1.00
O131   O     0.14335   0.39734   0.98482   0.00000  Uiso   1.00
O132   O     0.61972   0.42871   0.52212   0.00000  Uiso   1.00
N133   N     0.58128   0.74211   0.94019   0.00000  Uiso   1.00
N134   N     0.06747   0.47821   0.92322   0.00000  Uiso   1.00
N135   N     0.69435   0.50055   0.59350   0.00000  Uiso   1.00
N136   N     0.50194   0.65736   0.97928   0.00000  Uiso   1.00
N137   N     0.98814   0.39346   0.96232   0.00000  Uiso   1.00
N138   N     0.61502   0.41580   0.63260   0.00000  Uiso   1.00
C139   C     0.28797   0.08110   0.81552   0.00000  Uiso   1.00
C140   C     0.21161   0.10476   0.85942   0.00000  Uiso   1.00
C141   C     0.19160   0.17187   0.87457   0.00000  Uiso   1.00
C142   C     0.11904   0.18294   0.91562   0.00000  Uiso   1.00
C143   C     0.00821   0.22791   0.98002   0.00000  Uiso   1.00
C144   C     0.34561   0.03204   0.85476   0.00000  Uiso   1.00
C145   C     0.43827   0.03799   0.86597   0.00000  Uiso   1.00
C146   C     0.47851   0.98783   0.90309   0.00000  Uiso   1.00
C147   C     0.57573   0.91987   0.96021   0.00000  Uiso   1.00
C148   C     0.24277   0.03820   0.76389   0.00000  Uiso   1.00
C149   C     0.24897   0.04932   0.69869   0.00000  Uiso   1.00
C150   C     0.20264   0.00434   0.65931   0.00000  Uiso   1.00
C151   C     0.14018   0.94595   0.57534   0.00000  Uiso   1.00
C152   C     0.19468   0.98143   0.86150   0.00000  Uiso   1.00
C153   C     0.16094   0.05063   0.88440   0.00000  Uiso   1.00
C154   C     0.08839   0.06160   0.92544   0.00000  Uiso   1.00
C155   C     0.06828   0.12871   0.94064   0.00000  Uiso   1.00
C156   C     0.29494   0.97790   0.87973   0.00000  Uiso   1.00
C157   C     0.33506   0.92772   0.91684   0.00000  Uiso   1.00
C158   C     0.42775   0.93360   0.92811   0.00000  Uiso   1.00
C159   C     0.19209   0.98406   0.78886   0.00000  Uiso   1.00
C160   C     0.14575   0.93905   0.74957   0.00000  Uiso   1.00
C161   C     0.15188   0.95011   0.68433   0.00000  Uiso   1.00
H162   H     0.32742   0.12324   0.79608   0.00000  Uiso   1.00
H163   H     0.23084   0.21375   0.85523   0.00000  Uiso   1.00
H164   H     0.47747   0.07988   0.84663   0.00000  Uiso   1.00
H165   H     0.28819   0.09122   0.67939   0.00000  Uiso   1.00
H166   H     0.10143   0.29021   0.93185   0.00000  Uiso   1.00
H167   H     0.62146   0.00794   0.91370   0.00000  Uiso   1.00
H168   H     0.22235   0.03185   0.56102   0.00000  Uiso   1.00
H169   H     0.15523   0.93928   0.88094   0.00000  Uiso   1.00
H170   H     0.04919   0.01969   0.94476   0.00000  Uiso   1.00
H171   H     0.29582   0.88583   0.93616   0.00000  Uiso   1.00
H172   H     0.10655   0.89717   0.76891   0.00000  Uiso   1.00
H173   H     0.95400   0.13271   0.00452   0.00000  Uiso   1.00
H174   H     0.47404   0.85044   0.98636   0.00000  Uiso   1.00
H175   H     0.07492   0.87434   0.63369   0.00000  Uiso   1.00
O176   O     0.96109   0.26768   0.00865   0.00000  Uiso   1.00
O177   O     0.64335   0.89734   0.98482   0.00000  Uiso   1.00
O178   O     0.11972   0.92871   0.52212   0.00000  Uiso   1.00
N179   N     0.08128   0.24211   0.94019   0.00000  Uiso   1.00
N180   N     0.56747   0.97821   0.92322   0.00000  Uiso   1.00
N181   N     0.19435   0.00055   0.59350   0.00000  Uiso   1.00
N182   N     0.00194   0.15736   0.97928   0.00000  Uiso   1.00
N183   N     0.48814   0.89346   0.96232   0.00000  Uiso   1.00
N184   N     0.11502   0.91580   0.63260   0.00000  Uiso   1.00
C185   C     0.78797   0.41890   0.18448   0.00000  Uiso   1.00
C186   C     0.71161   0.39524   0.14058   0.00000  Uiso   1.00
C187   C     0.69160   0.32813   0.12543   0.00000  Uiso   1.00
C188   C     0.61904   0.31706   0.08438   0.00000  Uiso   1.00
C189   C     0.50821   0.27209   0.01998   0.00000  Uiso   1.00
C190   C     0.84561   0.46796   0.14524   0.00000  Uiso   1.00
C191   C     0.93827   0.46201   0.13403   0.00000  Uiso   1.00
C192   C     0.97851   0.51217   0.09691   0.00000  Uiso   1.00
C193   C     0.07573   0.58013   0.03979   0.00000  Uiso   1.00
C194   C     0.74277   0.46180   0.23611   0.00000  Uiso   1.00
C195   C     0.74897   0.45068   0.30131   0.00000  Uiso   1.00
C196   C     0.70264   0.49566   0.34069   0.00000  Uiso   1.00
C197   C     0.64018   0.55405   0.42466   0.00000  Uiso   1.00
C198   C     0.69468   0.51857   0.13850   0.00000  Uiso   1.00
C199   C     0.66094   0.44937   0.11560   0.00000  Uiso   1.00
C200   C     0.58839   0.43840   0.07456   0.00000  Uiso   1.00
C201   C     0.56828   0.37129   0.05936   0.00000  Uiso   1.00
C202   C     0.79494   0.52210   0.12027   0.00000  Uiso   1.00
C203   C     0.83506   0.57228   0.08316   0.00000  Uiso   1.00
C204   C     0.92775   0.56640   0.07189   0.00000  Uiso   1.00
C205   C     0.69209   0.51594   0.21114   0.00000  Uiso   1.00
C206   C     0.64575   0.56095   0.25043   0.00000  Uiso   1.00
C207   C     0.65188   0.54989   0.31567   0.00000  Uiso   1.00
H208   H     0.82742   0.37676   0.20392   0.00000  Uiso   1.00
H209   H     0.73084   0.28625   0.14477   0.00000  Uiso   1.00
H210   H     0.97747   0.42012   0.15337   0.00000  Uiso   1.00
H211   H     0.78819   0.40878   0.32061   0.00000  Uiso   1.00
H212   H     0.60143   0.20979   0.06815   0.00000  Uiso   1.00
H213   H     0.12146   0.49206   0.08630   0.00000  Uiso   1.00
H214   H     0.72235   0.46815   0.43898   0.00000  Uiso   1.00
H215   H     0.65523   0.56072   0.11906   0.00000  Uiso   1.00
H216   H     0.54919   0.48031   0.05524   0.00000  Uiso   1.00
H217   H     0.79582   0.61417   0.06384   0.00000  Uiso   1.00
H218   H     0.60655   0.60283   0.23109   0.00000  Uiso   1.00
H219   H     0.45400   0.36729   0.99548   0.00000  Uiso   1.00
H220   H     0.97404   0.64956   0.01364   0.00000  Uiso   1.00
H221   H     0.57492   0.62566   0.36631   0.00000  Uiso   1.00
O222   O     0.46109   0.23232   0.99135   0.00000  Uiso   1.00
O223   O     0.14335   0.60266   0.01518   0.00000  Uiso   1.00
O224   O     0.61972   0.57129   0.47788   0.00000  Uiso   1.00
N225   N     0.58128   0.25789   0.05981   0.00000  Uiso   1.00
N226   N     0.06747   0.52179   0.07678   0.00000  Uiso   1.00
N227   N     0.69435   0.49945   0.40650   0.00000  Uiso   1.00
N228   N     0.50194   0.34264   0.02072   0.00000  Uiso   1.00
N229   N     0.98814   0.60654   0.03768   0.00000  Uiso   1.00
N230   N     0.61502   0.58420   0.36740   0.00000  Uiso   1.00
C231   C     0.28797   0.91890   0.18448   0.00000  Uiso   1.00
C232   C     0.21161   0.89524   0.14058   0.00000  Uiso   1.00
C233   C     0.19160   0.82813   0.12543   0.00000  Uiso   1.00
C234   C     0.11904   0.81706   0.08438   0.00000  Uiso   1.00
C235   C     0.00821   0.77209   0.01998   0.00000  Uiso   1.00
C236   C     0.34561   0.96796   0.14524   0.00000  Uiso   1.00
C237   C     0.43827   0.96201   0.13403   0.00000  Uiso   1.00
C238   C     0.47851   0.01217   0.09691   0.00000  Uiso   1.00
C239   C     0.57573   0.08013   0.03979   0.00000  Uiso   1.00
C240   C     0.24277   0.96180   0.23611   0.00000  Uiso   1.00
C241   C     0.24897   0.95068   0.30131   0.00000  Uiso   1.00
C242   C     0.20264   0.99566   0.34069   0.00000  Uiso   1.00
C243   C     0.14018   0.05405   0.42466   0.00000  Uiso   1.00
C244   C     0.19468   0.01857   0.13850   0.00000  Uiso   1.00
C245   C     0.16094   0.94937   0.11560   0.00000  Uiso   1.00
C246   C     0.08839   0.93840   0.07456   0.00000  Uiso   1.00
C247   C     0.06828   0.87129   0.05936   0.00000  Uiso   1.00
C248   C     0.29494   0.02210   0.12027   0.00000  Uiso   1.00
C249   C     0.33506   0.07228   0.08316   0.00000  Uiso   1.00
C250   C     0.42775   0.06640   0.07189   0.00000  Uiso   1.00
C251   C     0.19209   0.01594   0.21114   0.00000  Uiso   1.00
C252   C     0.14575   0.06095   0.25043   0.00000  Uiso   1.00
C253   C     0.15188   0.04989   0.31567   0.00000  Uiso   1.00
H254   H     0.32742   0.87676   0.20392   0.00000  Uiso   1.00
H255   H     0.23084   0.78625   0.14477   0.00000  Uiso   1.00
H256   H     0.47747   0.92012   0.15337   0.00000  Uiso   1.00
H257   H     0.28819   0.90878   0.32061   0.00000  Uiso   1.00
H258   H     0.10143   0.70979   0.06815   0.00000  Uiso   1.00
H259   H     0.62146   0.99206   0.08630   0.00000  Uiso   1.00
H260   H     0.22235   0.96815   0.43898   0.00000  Uiso   1.00
H261   H     0.15523   0.06072   0.11906   0.00000  Uiso   1.00
H262   H     0.04919   0.98031   0.05524   0.00000  Uiso   1.00
H263   H     0.29582   0.11417   0.06384   0.00000  Uiso   1.00
H264   H     0.10655   0.10283   0.23109   0.00000  Uiso   1.00
H265   H     0.95400   0.86729   0.99548   0.00000  Uiso   1.00
H266   H     0.47404   0.14956   0.01364   0.00000  Uiso   1.00
H267   H     0.07492   0.12566   0.36631   0.00000  Uiso   1.00
O268   O     0.96109   0.73232   0.99135   0.00000  Uiso   1.00
O269   O     0.64335   0.10266   0.01518   0.00000  Uiso   1.00
O270   O     0.11972   0.07129   0.47788   0.00000  Uiso   1.00
N271   N     0.08128   0.75789   0.05981   0.00000  Uiso   1.00
N272   N     0.56747   0.02179   0.07678   0.00000  Uiso   1.00
N273   N     0.19435   0.99945   0.40650   0.00000  Uiso   1.00
N274   N     0.00194   0.84264   0.02072   0.00000  Uiso   1.00
N275   N     0.48814   0.10654   0.03768   0.00000  Uiso   1.00
N276   N     0.11502   0.08420   0.36740   0.00000  Uiso   1.00
C277   C     0.21203   0.58110   0.68448   0.00000  Uiso   1.00
C278   C     0.28839   0.60476   0.64058   0.00000  Uiso   1.00
C279   C     0.30840   0.67187   0.62543   0.00000  Uiso   1.00
C280   C     0.38096   0.68294   0.58438   0.00000  Uiso   1.00
C281   C     0.49179   0.72791   0.51998   0.00000  Uiso   1.00
C282   C     0.15439   0.53204   0.64524   0.00000  Uiso   1.00
C283   C     0.06173   0.53799   0.63403   0.00000  Uiso   1.00
C284   C     0.02149   0.48783   0.59691   0.00000  Uiso   1.00
C285   C     0.92427   0.41987   0.53979   0.00000  Uiso   1.00
C286   C     0.25723   0.53820   0.73611   0.00000  Uiso   1.00
C287   C     0.25103   0.54932   0.80131   0.00000  Uiso   1.00
C288   C     0.29736   0.50434   0.84069   0.00000  Uiso   1.00
C289   C     0.35982   0.44595   0.92466   0.00000  Uiso   1.00
C290   C     0.30532   0.48143   0.63850   0.00000  Uiso   1.00
C291   C     0.33906   0.55063   0.61560   0.00000  Uiso   1.00
C292   C     0.41161   0.56160   0.57456   0.00000  Uiso   1.00
C293   C     0.43172   0.62871   0.55936   0.00000  Uiso   1.00
C294   C     0.20506   0.47790   0.62027   0.00000  Uiso   1.00
C295   C     0.16494   0.42772   0.58316   0.00000  Uiso   1.00
C296   C     0.07225   0.43360   0.57189   0.00000  Uiso   1.00
C297   C     0.30791   0.48406   0.71114   0.00000  Uiso   1.00
C298   C     0.35425   0.43905   0.75043   0.00000  Uiso   1.00
C299   C     0.34812   0.45011   0.81567   0.00000  Uiso   1.00
H300   H     0.17258   0.62324   0.70392   0.00000  Uiso   1.00
H301   H     0.26916   0.71375   0.64477   0.00000  Uiso   1.00
H302   H     0.02253   0.57988   0.65337   0.00000  Uiso   1.00
H303   H     0.21181   0.59122   0.82061   0.00000  Uiso   1.00
H304   H     0.39857   0.79021   0.56815   0.00000  Uiso   1.00
H305   H     0.87854   0.50794   0.58630   0.00000  Uiso   1.00
H306   H     0.27765   0.53185   0.93898   0.00000  Uiso   1.00
H307   H     0.34477   0.43928   0.61906   0.00000  Uiso   1.00
H308   H     0.45081   0.51969   0.55524   0.00000  Uiso   1.00
H309   H     0.20418   0.38583   0.56384   0.00000  Uiso   1.00
H310   H     0.39345   0.39717   0.73109   0.00000  Uiso   1.00
H311   H     0.54600   0.63271   0.49548   0.00000  Uiso   1.00
H312   H     0.02596   0.35044   0.51364   0.00000  Uiso   1.00
H313   H     0.42508   0.37434   0.86631   0.00000  Uiso   1.00
O314   O     0.53891   0.76768   0.49135   0.00000  Uiso   1.00
O315   O     0.85665   0.39734   0.51518   0.00000  Uiso   1.00
O316   O     0.38028   0.42871   0.97788   0.00000  Uiso   1.00
N317   N     0.41872   0.74211   0.55981   0.00000  Uiso   1.00
N318   N     0.93253   0.47821   0.57678   0.00000  Uiso   1.00
N319   N     0.30565   0.50055   0.90650   0.00000  Uiso   1.00
N320   N     0.49806   0.65736   0.52072   0.00000  Uiso   1.00
N321   N     0.01186   0.39346   0.53768   0.00000  Uiso   1.00
N322   N     0.38498   0.41580   0.86740   0.00000  Uiso   1.00
C323   C     0.71203   0.08110   0.68448   0.00000  Uiso   1.00
C324   C     0.78839   0.10476   0.64058   0.00000  Uiso   1.00
C325   C     0.80840   0.17187   0.62543   0.00000  Uiso   1.00
C326   C     0.88096   0.18294   0.58438   0.00000  Uiso   1.00
C327   C     0.99179   0.22791   0.51998   0.00000  Uiso   1.00
C328   C     0.65439   0.03204   0.64524   0.00000  Uiso   1.00
C329   C     0.56173   0.03799   0.63403   0.00000  Uiso   1.00
C330   C     0.52149   0.98783   0.59691   0.00000  Uiso   1.00
C331   C     0.42427   0.91987   0.53979   0.00000  Uiso   1.00
C332   C     0.75723   0.03820   0.73611   0.00000  Uiso   1.00
C333   C     0.75103   0.04932   0.80131   0.00000  Uiso   1.00
C334   C     0.79736   0.00434   0.84069   0.00000  Uiso   1.00
C335   C     0.85982   0.94595   0.92466   0.00000  Uiso   1.00
C336   C     0.80532   0.98143   0.63850   0.00000  Uiso   1.00
C337   C     0.83906   0.05063   0.61560   0.00000  Uiso   1.00
C338   C     0.91161   0.06160   0.57456   0.00000  Uiso   1.00
C339   C     0.93172   0.12871   0.55936   0.00000  Uiso   1.00
C340   C     0.70506   0.97790   0.62027   0.00000  Uiso   1.00
C341   C     0.66494   0.92772   0.58316   0.00000  Uiso   1.00
C342   C     0.57225   0.93360   0.57189   0.00000  Uiso   1.00
C343   C     0.80791   0.98406   0.71114   0.00000  Uiso   1.00
C344   C     0.85425   0.93905   0.75043   0.00000  Uiso   1.00
C345   C     0.84812   0.95011   0.81567   0.00000  Uiso   1.00
H346   H     0.67258   0.12324   0.70392   0.00000  Uiso   1.00
H347   H     0.76916   0.21375   0.64477   0.00000  Uiso   1.00
H348   H     0.52253   0.07988   0.65337   0.00000  Uiso   1.00
H349   H     0.71181   0.09122   0.82061   0.00000  Uiso   1.00
H350   H     0.89857   0.29021   0.56815   0.00000  Uiso   1.00
H351   H     0.37854   0.00794   0.58630   0.00000  Uiso   1.00
H352   H     0.77765   0.03185   0.93898   0.00000  Uiso   1.00
H353   H     0.84477   0.93928   0.61906   0.00000  Uiso   1.00
H354   H     0.95081   0.01969   0.55524   0.00000  Uiso   1.00
H355   H     0.70418   0.88583   0.56384   0.00000  Uiso   1.00
H356   H     0.89345   0.89717   0.73109   0.00000  Uiso   1.00
H357   H     0.04600   0.13271   0.49548   0.00000  Uiso   1.00
H358   H     0.52596   0.85044   0.51364   0.00000  Uiso   1.00
H359   H     0.92508   0.87434   0.86631   0.00000  Uiso   1.00
O360   O     0.03891   0.26768   0.49135   0.00000  Uiso   1.00
O361   O     0.35665   0.89734   0.51518   0.00000  Uiso   1.00
O362   O     0.88028   0.92871   0.97788   0.00000  Uiso   1.00
N363   N     0.91872   0.24211   0.55981   0.00000  Uiso   1.00
N364   N     0.43253   0.97821   0.57678   0.00000  Uiso   1.00
N365   N     0.80565   0.00055   0.90650   0.00000  Uiso   1.00
N366   N     0.99806   0.15736   0.52072   0.00000  Uiso   1.00
N367   N     0.51186   0.89346   0.53768   0.00000  Uiso   1.00
N368   N     0.88498   0.91580   0.86740   0.00000  Uiso   1.00
