data_job_03463
_audit_creation_date              2018-12-19
_audit_creation_method            'Materials Studio'
_symmetry_space_group_name_H-M    'P1'
_symmetry_Int_Tables_number       1
_symmetry_cell_setting            triclinic
loop_
_symmetry_equiv_pos_as_xyz
  x,y,z
_cell_length_a                    16.9221
_cell_length_b                    19.4409
_cell_length_c                    15.1687
_cell_angle_alpha                 90.0000
_cell_angle_beta                  90.0000
_cell_angle_gamma                 90.0000
loop_
_atom_site_label
_atom_site_type_symbol
_atom_site_fract_x
_atom_site_fract_y
_atom_site_fract_z
_atom_site_U_iso_or_equiv
_atom_site_adp_type
_atom_site_occupancy
C1     C     0.17072   0.23755   0.72657   0.00000  Uiso   1.00
C2     C     0.17369   0.31233   0.75674   0.00000  Uiso   1.00
C3     C     0.12151   0.36379   0.73163   0.00000  Uiso   1.00
C4     C     0.13427   0.42889   0.76648   0.00000  Uiso   1.00
C5     C     0.12937   0.54302   0.80449   0.00000  Uiso   1.00
C6     C     0.25117   0.22246   0.68561   0.00000  Uiso   1.00
C7     C     0.26413   0.19836   0.60071   0.00000  Uiso   1.00
C8     C     0.34211   0.18779   0.57569   0.00000  Uiso   1.00
C9     C     0.45749   0.16235   0.50329   0.00000  Uiso   1.00
C10    C     0.16642   0.19436   0.81035   0.00000  Uiso   1.00
C11    C     0.10813   0.14662   0.83032   0.00000  Uiso   1.00
C12    C     0.11478   0.11239   0.91032   0.00000  Uiso   1.00
C13    C     0.09858   0.04333   0.03160   0.00000  Uiso   1.00
C14    C     0.28618   0.26163   0.83310   0.00000  Uiso   1.00
C15    C     0.23641   0.32541   0.81460   0.00000  Uiso   1.00
C16    C     0.24925   0.39044   0.84950   0.00000  Uiso   1.00
C17    C     0.19709   0.44200   0.82445   0.00000  Uiso   1.00
C18    C     0.31388   0.23554   0.74347   0.00000  Uiso   1.00
C19    C     0.39186   0.22500   0.71857   0.00000  Uiso   1.00
C20    C     0.40494   0.20090   0.63365   0.00000  Uiso   1.00
C21    C     0.22913   0.20744   0.86822   0.00000  Uiso   1.00
C22    C     0.23587   0.17328   0.94819   0.00000  Uiso   1.00
C23    C     0.17760   0.12550   0.96828   0.00000  Uiso   1.00
H24    H     0.12190   0.22736   0.68151   0.00000  Uiso   1.00
H25    H     0.07299   0.35365   0.68685   0.00000  Uiso   1.00
H26    H     0.21558   0.18823   0.55595   0.00000  Uiso   1.00
H27    H     0.05961   0.13652   0.78553   0.00000  Uiso   1.00
H28    H     0.04644   0.49944   0.71825   0.00000  Uiso   1.00
H29    H     0.34710   0.15063   0.44225   0.00000  Uiso   1.00
H30    H     0.01821   0.04156   0.92637   0.00000  Uiso   1.00
H31    H     0.33500   0.27181   0.87815   0.00000  Uiso   1.00
H32    H     0.29778   0.40055   0.89427   0.00000  Uiso   1.00
H33    H     0.44038   0.23513   0.76337   0.00000  Uiso   1.00
H34    H     0.28441   0.18341   0.99295   0.00000  Uiso   1.00
H35    H     0.22889   0.53751   0.88660   0.00000  Uiso   1.00
H36    H     0.52956   0.18868   0.61060   0.00000  Uiso   1.00
H37    H     0.20067   0.07963   0.09472   0.00000  Uiso   1.00
O38    O     0.10935   0.60236   0.80946   0.00000  Uiso   1.00
O39    O     0.50381   0.14471   0.44737   0.00000  Uiso   1.00
O40    O     0.07231   0.00163   0.08252   0.00000  Uiso   1.00
N41    N     0.09448   0.49073   0.75567   0.00000  Uiso   1.00
N42    N     0.37558   0.16462   0.49763   0.00000  Uiso   1.00
N43    N     0.06811   0.06264   0.95022   0.00000  Uiso   1.00
N44    N     0.19265   0.51121   0.84626   0.00000  Uiso   1.00
N45    N     0.47376   0.18510   0.58822   0.00000  Uiso   1.00
N46    N     0.16628   0.08312   0.04081   0.00000  Uiso   1.00
C47    C     0.32928   0.26245   0.22657   0.00000  Uiso   1.00
C48    C     0.32631   0.18767   0.25674   0.00000  Uiso   1.00
C49    C     0.37849   0.13621   0.23163   0.00000  Uiso   1.00
C50    C     0.36573   0.07111   0.26648   0.00000  Uiso   1.00
C51    C     0.37063   0.95698   0.30449   0.00000  Uiso   1.00
C52    C     0.24883   0.27754   0.18561   0.00000  Uiso   1.00
C53    C     0.23587   0.30164   0.10071   0.00000  Uiso   1.00
C54    C     0.15789   0.31221   0.07569   0.00000  Uiso   1.00
C55    C     0.04251   0.33765   0.00329   0.00000  Uiso   1.00
C56    C     0.33358   0.30564   0.31035   0.00000  Uiso   1.00
C57    C     0.39187   0.35338   0.33032   0.00000  Uiso   1.00
C58    C     0.38522   0.38761   0.41032   0.00000  Uiso   1.00
C59    C     0.40142   0.45667   0.53160   0.00000  Uiso   1.00
C60    C     0.21382   0.23837   0.33310   0.00000  Uiso   1.00
C61    C     0.26359   0.17459   0.31460   0.00000  Uiso   1.00
C62    C     0.25075   0.10956   0.34950   0.00000  Uiso   1.00
C63    C     0.30291   0.05800   0.32445   0.00000  Uiso   1.00
C64    C     0.18612   0.26446   0.24347   0.00000  Uiso   1.00
C65    C     0.10814   0.27500   0.21857   0.00000  Uiso   1.00
C66    C     0.09506   0.29910   0.13365   0.00000  Uiso   1.00
C67    C     0.27087   0.29256   0.36822   0.00000  Uiso   1.00
C68    C     0.26413   0.32672   0.44819   0.00000  Uiso   1.00
C69    C     0.32240   0.37450   0.46828   0.00000  Uiso   1.00
H70    H     0.37810   0.27264   0.18151   0.00000  Uiso   1.00
H71    H     0.42701   0.14635   0.18685   0.00000  Uiso   1.00
H72    H     0.28442   0.31177   0.05595   0.00000  Uiso   1.00
H73    H     0.44039   0.36348   0.28553   0.00000  Uiso   1.00
H74    H     0.45356   0.00056   0.21825   0.00000  Uiso   1.00
H75    H     0.15290   0.34937   0.94225   0.00000  Uiso   1.00
H76    H     0.48179   0.45844   0.42637   0.00000  Uiso   1.00
H77    H     0.16500   0.22819   0.37815   0.00000  Uiso   1.00
H78    H     0.20222   0.09945   0.39427   0.00000  Uiso   1.00
H79    H     0.05962   0.26487   0.26337   0.00000  Uiso   1.00
H80    H     0.21559   0.31659   0.49295   0.00000  Uiso   1.00
H81    H     0.27111   0.96249   0.38660   0.00000  Uiso   1.00
H82    H     0.97044   0.31132   0.11060   0.00000  Uiso   1.00
H83    H     0.29933   0.42037   0.59472   0.00000  Uiso   1.00
O84    O     0.39065   0.89764   0.30946   0.00000  Uiso   1.00
O85    O     0.99619   0.35529   0.94737   0.00000  Uiso   1.00
O86    O     0.42769   0.49837   0.58252   0.00000  Uiso   1.00
N87    N     0.40552   0.00927   0.25567   0.00000  Uiso   1.00
N88    N     0.12442   0.33538   0.99763   0.00000  Uiso   1.00
N89    N     0.43189   0.43736   0.45022   0.00000  Uiso   1.00
N90    N     0.30735   0.98879   0.34626   0.00000  Uiso   1.00
N91    N     0.02624   0.31490   0.08822   0.00000  Uiso   1.00
N92    N     0.33372   0.41688   0.54081   0.00000  Uiso   1.00
C93    C     0.82928   0.23755   0.77343   0.00000  Uiso   1.00
C94    C     0.82631   0.31233   0.74326   0.00000  Uiso   1.00
C95    C     0.87849   0.36379   0.76837   0.00000  Uiso   1.00
C96    C     0.86573   0.42889   0.73352   0.00000  Uiso   1.00
C97    C     0.87063   0.54302   0.69551   0.00000  Uiso   1.00
C98    C     0.74883   0.22246   0.81439   0.00000  Uiso   1.00
C99    C     0.73587   0.19836   0.89929   0.00000  Uiso   1.00
C100   C     0.65789   0.18779   0.92431   0.00000  Uiso   1.00
C101   C     0.54251   0.16235   0.99671   0.00000  Uiso   1.00
C102   C     0.83358   0.19436   0.68965   0.00000  Uiso   1.00
C103   C     0.89187   0.14662   0.66968   0.00000  Uiso   1.00
C104   C     0.88522   0.11239   0.58968   0.00000  Uiso   1.00
C105   C     0.90142   0.04333   0.46840   0.00000  Uiso   1.00
C106   C     0.71382   0.26163   0.66690   0.00000  Uiso   1.00
C107   C     0.76359   0.32541   0.68540   0.00000  Uiso   1.00
C108   C     0.75075   0.39044   0.65050   0.00000  Uiso   1.00
C109   C     0.80291   0.44200   0.67555   0.00000  Uiso   1.00
C110   C     0.68612   0.23554   0.75653   0.00000  Uiso   1.00
C111   C     0.60814   0.22500   0.78143   0.00000  Uiso   1.00
C112   C     0.59506   0.20090   0.86635   0.00000  Uiso   1.00
C113   C     0.77087   0.20744   0.63178   0.00000  Uiso   1.00
C114   C     0.76413   0.17328   0.55181   0.00000  Uiso   1.00
C115   C     0.82240   0.12550   0.53172   0.00000  Uiso   1.00
H116   H     0.87810   0.22736   0.81849   0.00000  Uiso   1.00
H117   H     0.92701   0.35365   0.81315   0.00000  Uiso   1.00
H118   H     0.78442   0.18823   0.94405   0.00000  Uiso   1.00
H119   H     0.94039   0.13652   0.71447   0.00000  Uiso   1.00
H120   H     0.95356   0.49944   0.78175   0.00000  Uiso   1.00
H121   H     0.65290   0.15063   0.05775   0.00000  Uiso   1.00
H122   H     0.98179   0.04156   0.57363   0.00000  Uiso   1.00
H123   H     0.66500   0.27181   0.62185   0.00000  Uiso   1.00
H124   H     0.70222   0.40055   0.60573   0.00000  Uiso   1.00
H125   H     0.55962   0.23513   0.73663   0.00000  Uiso   1.00
H126   H     0.71559   0.18341   0.50705   0.00000  Uiso   1.00
H127   H     0.77111   0.53751   0.61340   0.00000  Uiso   1.00
H128   H     0.47044   0.18868   0.88940   0.00000  Uiso   1.00
H129   H     0.79933   0.07963   0.40528   0.00000  Uiso   1.00
O130   O     0.89065   0.60236   0.69054   0.00000  Uiso   1.00
O131   O     0.49619   0.14471   0.05263   0.00000  Uiso   1.00
O132   O     0.92769   0.00163   0.41748   0.00000  Uiso   1.00
N133   N     0.90552   0.49073   0.74433   0.00000  Uiso   1.00
N134   N     0.62442   0.16462   0.00237   0.00000  Uiso   1.00
N135   N     0.93189   0.06264   0.54978   0.00000  Uiso   1.00
N136   N     0.80735   0.51121   0.65374   0.00000  Uiso   1.00
N137   N     0.52624   0.18510   0.91178   0.00000  Uiso   1.00
N138   N     0.83372   0.08312   0.45919   0.00000  Uiso   1.00
C139   C     0.67072   0.26245   0.27343   0.00000  Uiso   1.00
C140   C     0.67369   0.18767   0.24326   0.00000  Uiso   1.00
C141   C     0.62151   0.13621   0.26837   0.00000  Uiso   1.00
C142   C     0.63427   0.07111   0.23352   0.00000  Uiso   1.00
C143   C     0.62937   0.95698   0.19551   0.00000  Uiso   1.00
C144   C     0.75117   0.27754   0.31439   0.00000  Uiso   1.00
C145   C     0.76413   0.30164   0.39929   0.00000  Uiso   1.00
C146   C     0.84211   0.31221   0.42431   0.00000  Uiso   1.00
C147   C     0.95749   0.33765   0.49671   0.00000  Uiso   1.00
C148   C     0.66642   0.30564   0.18965   0.00000  Uiso   1.00
C149   C     0.60813   0.35338   0.16968   0.00000  Uiso   1.00
C150   C     0.61478   0.38761   0.08968   0.00000  Uiso   1.00
C151   C     0.59858   0.45667   0.96840   0.00000  Uiso   1.00
C152   C     0.78618   0.23837   0.16690   0.00000  Uiso   1.00
C153   C     0.73641   0.17459   0.18540   0.00000  Uiso   1.00
C154   C     0.74925   0.10956   0.15050   0.00000  Uiso   1.00
C155   C     0.69709   0.05800   0.17555   0.00000  Uiso   1.00
C156   C     0.81388   0.26446   0.25653   0.00000  Uiso   1.00
C157   C     0.89186   0.27500   0.28143   0.00000  Uiso   1.00
C158   C     0.90494   0.29910   0.36635   0.00000  Uiso   1.00
C159   C     0.72913   0.29256   0.13178   0.00000  Uiso   1.00
C160   C     0.73587   0.32672   0.05181   0.00000  Uiso   1.00
C161   C     0.67760   0.37450   0.03172   0.00000  Uiso   1.00
H162   H     0.62190   0.27264   0.31849   0.00000  Uiso   1.00
H163   H     0.57299   0.14635   0.31315   0.00000  Uiso   1.00
H164   H     0.71558   0.31177   0.44405   0.00000  Uiso   1.00
H165   H     0.55961   0.36348   0.21447   0.00000  Uiso   1.00
H166   H     0.54644   0.00056   0.28175   0.00000  Uiso   1.00
H167   H     0.84710   0.34937   0.55775   0.00000  Uiso   1.00
H168   H     0.51821   0.45844   0.07363   0.00000  Uiso   1.00
H169   H     0.83500   0.22819   0.12185   0.00000  Uiso   1.00
H170   H     0.79778   0.09945   0.10573   0.00000  Uiso   1.00
H171   H     0.94038   0.26487   0.23663   0.00000  Uiso   1.00
H172   H     0.78441   0.31659   0.00705   0.00000  Uiso   1.00
H173   H     0.72889   0.96249   0.11340   0.00000  Uiso   1.00
H174   H     0.02956   0.31132   0.38940   0.00000  Uiso   1.00
H175   H     0.70067   0.42037   0.90528   0.00000  Uiso   1.00
O176   O     0.60935   0.89764   0.19054   0.00000  Uiso   1.00
O177   O     0.00381   0.35529   0.55263   0.00000  Uiso   1.00
O178   O     0.57231   0.49837   0.91748   0.00000  Uiso   1.00
N179   N     0.59448   0.00927   0.24433   0.00000  Uiso   1.00
N180   N     0.87558   0.33538   0.50237   0.00000  Uiso   1.00
N181   N     0.56811   0.43736   0.04978   0.00000  Uiso   1.00
N182   N     0.69265   0.98879   0.15374   0.00000  Uiso   1.00
N183   N     0.97376   0.31490   0.41178   0.00000  Uiso   1.00
N184   N     0.66628   0.41688   0.95919   0.00000  Uiso   1.00
C185   C     0.82928   0.76245   0.27343   0.00000  Uiso   1.00
C186   C     0.82631   0.68767   0.24326   0.00000  Uiso   1.00
C187   C     0.87849   0.63621   0.26837   0.00000  Uiso   1.00
C188   C     0.86573   0.57111   0.23352   0.00000  Uiso   1.00
C189   C     0.87063   0.45698   0.19551   0.00000  Uiso   1.00
C190   C     0.74883   0.77754   0.31439   0.00000  Uiso   1.00
C191   C     0.73587   0.80164   0.39929   0.00000  Uiso   1.00
C192   C     0.65789   0.81221   0.42431   0.00000  Uiso   1.00
C193   C     0.54251   0.83765   0.49671   0.00000  Uiso   1.00
C194   C     0.83358   0.80564   0.18965   0.00000  Uiso   1.00
C195   C     0.89187   0.85338   0.16968   0.00000  Uiso   1.00
C196   C     0.88522   0.88761   0.08968   0.00000  Uiso   1.00
C197   C     0.90142   0.95667   0.96840   0.00000  Uiso   1.00
C198   C     0.71382   0.73837   0.16690   0.00000  Uiso   1.00
C199   C     0.76359   0.67459   0.18540   0.00000  Uiso   1.00
C200   C     0.75075   0.60956   0.15050   0.00000  Uiso   1.00
C201   C     0.80291   0.55800   0.17555   0.00000  Uiso   1.00
C202   C     0.68612   0.76446   0.25653   0.00000  Uiso   1.00
C203   C     0.60814   0.77500   0.28143   0.00000  Uiso   1.00
C204   C     0.59506   0.79910   0.36635   0.00000  Uiso   1.00
C205   C     0.77087   0.79256   0.13178   0.00000  Uiso   1.00
C206   C     0.76413   0.82672   0.05181   0.00000  Uiso   1.00
C207   C     0.82240   0.87450   0.03172   0.00000  Uiso   1.00
H208   H     0.87810   0.77264   0.31849   0.00000  Uiso   1.00
H209   H     0.92701   0.64635   0.31315   0.00000  Uiso   1.00
H210   H     0.78442   0.81177   0.44405   0.00000  Uiso   1.00
H211   H     0.94039   0.86348   0.21447   0.00000  Uiso   1.00
H212   H     0.95356   0.50056   0.28175   0.00000  Uiso   1.00
H213   H     0.65290   0.84937   0.55775   0.00000  Uiso   1.00
H214   H     0.98179   0.95844   0.07363   0.00000  Uiso   1.00
H215   H     0.66500   0.72819   0.12185   0.00000  Uiso   1.00
H216   H     0.70222   0.59945   0.10573   0.00000  Uiso   1.00
H217   H     0.55962   0.76487   0.23663   0.00000  Uiso   1.00
H218   H     0.71559   0.81659   0.00705   0.00000  Uiso   1.00
H219   H     0.77111   0.46249   0.11340   0.00000  Uiso   1.00
H220   H     0.47044   0.81132   0.38940   0.00000  Uiso   1.00
H221   H     0.79933   0.92037   0.90528   0.00000  Uiso   1.00
O222   O     0.89065   0.39764   0.19054   0.00000  Uiso   1.00
O223   O     0.49619   0.85529   0.55263   0.00000  Uiso   1.00
O224   O     0.92769   0.99837   0.91748   0.00000  Uiso   1.00
N225   N     0.90552   0.50927   0.24433   0.00000  Uiso   1.00
N226   N     0.62442   0.83538   0.50237   0.00000  Uiso   1.00
N227   N     0.93189   0.93736   0.04978   0.00000  Uiso   1.00
N228   N     0.80735   0.48879   0.15374   0.00000  Uiso   1.00
N229   N     0.52624   0.81490   0.41178   0.00000  Uiso   1.00
N230   N     0.83372   0.91688   0.95919   0.00000  Uiso   1.00
C231   C     0.67072   0.73755   0.77343   0.00000  Uiso   1.00
C232   C     0.67369   0.81233   0.74326   0.00000  Uiso   1.00
C233   C     0.62151   0.86379   0.76837   0.00000  Uiso   1.00
C234   C     0.63427   0.92889   0.73352   0.00000  Uiso   1.00
C235   C     0.62937   0.04302   0.69551   0.00000  Uiso   1.00
C236   C     0.75117   0.72246   0.81439   0.00000  Uiso   1.00
C237   C     0.76413   0.69836   0.89929   0.00000  Uiso   1.00
C238   C     0.84211   0.68779   0.92431   0.00000  Uiso   1.00
C239   C     0.95749   0.66235   0.99671   0.00000  Uiso   1.00
C240   C     0.66642   0.69436   0.68965   0.00000  Uiso   1.00
C241   C     0.60813   0.64662   0.66968   0.00000  Uiso   1.00
C242   C     0.61478   0.61239   0.58968   0.00000  Uiso   1.00
C243   C     0.59858   0.54333   0.46840   0.00000  Uiso   1.00
C244   C     0.78618   0.76163   0.66690   0.00000  Uiso   1.00
C245   C     0.73641   0.82541   0.68540   0.00000  Uiso   1.00
C246   C     0.74925   0.89044   0.65050   0.00000  Uiso   1.00
C247   C     0.69709   0.94200   0.67555   0.00000  Uiso   1.00
C248   C     0.81388   0.73554   0.75653   0.00000  Uiso   1.00
C249   C     0.89186   0.72500   0.78143   0.00000  Uiso   1.00
C250   C     0.90494   0.70090   0.86635   0.00000  Uiso   1.00
C251   C     0.72913   0.70744   0.63178   0.00000  Uiso   1.00
C252   C     0.73587   0.67328   0.55181   0.00000  Uiso   1.00
C253   C     0.67760   0.62550   0.53172   0.00000  Uiso   1.00
H254   H     0.62190   0.72736   0.81849   0.00000  Uiso   1.00
H255   H     0.57299   0.85365   0.81315   0.00000  Uiso   1.00
H256   H     0.71558   0.68823   0.94405   0.00000  Uiso   1.00
H257   H     0.55961   0.63652   0.71447   0.00000  Uiso   1.00
H258   H     0.54644   0.99944   0.78175   0.00000  Uiso   1.00
H259   H     0.84710   0.65063   0.05775   0.00000  Uiso   1.00
H260   H     0.51821   0.54156   0.57363   0.00000  Uiso   1.00
H261   H     0.83500   0.77181   0.62185   0.00000  Uiso   1.00
H262   H     0.79778   0.90055   0.60573   0.00000  Uiso   1.00
H263   H     0.94038   0.73513   0.73663   0.00000  Uiso   1.00
H264   H     0.78441   0.68341   0.50705   0.00000  Uiso   1.00
H265   H     0.72889   0.03751   0.61340   0.00000  Uiso   1.00
H266   H     0.02956   0.68868   0.88940   0.00000  Uiso   1.00
H267   H     0.70067   0.57963   0.40528   0.00000  Uiso   1.00
O268   O     0.60935   0.10236   0.69054   0.00000  Uiso   1.00
O269   O     0.00381   0.64471   0.05263   0.00000  Uiso   1.00
O270   O     0.57231   0.50163   0.41748   0.00000  Uiso   1.00
N271   N     0.59448   0.99073   0.74433   0.00000  Uiso   1.00
N272   N     0.87558   0.66462   0.00237   0.00000  Uiso   1.00
N273   N     0.56811   0.56264   0.54978   0.00000  Uiso   1.00
N274   N     0.69265   0.01121   0.65374   0.00000  Uiso   1.00
N275   N     0.97376   0.68510   0.91178   0.00000  Uiso   1.00
N276   N     0.66628   0.58312   0.45919   0.00000  Uiso   1.00
C277   C     0.17072   0.76245   0.22657   0.00000  Uiso   1.00
C278   C     0.17369   0.68767   0.25674   0.00000  Uiso   1.00
C279   C     0.12151   0.63621   0.23163   0.00000  Uiso   1.00
C280   C     0.13427   0.57111   0.26648   0.00000  Uiso   1.00
C281   C     0.12937   0.45698   0.30449   0.00000  Uiso   1.00
C282   C     0.25117   0.77754   0.18561   0.00000  Uiso   1.00
C283   C     0.26413   0.80164   0.10071   0.00000  Uiso   1.00
C284   C     0.34211   0.81221   0.07569   0.00000  Uiso   1.00
C285   C     0.45749   0.83765   0.00329   0.00000  Uiso   1.00
C286   C     0.16642   0.80564   0.31035   0.00000  Uiso   1.00
C287   C     0.10813   0.85338   0.33032   0.00000  Uiso   1.00
C288   C     0.11478   0.88761   0.41032   0.00000  Uiso   1.00
C289   C     0.09858   0.95667   0.53160   0.00000  Uiso   1.00
C290   C     0.28618   0.73837   0.33310   0.00000  Uiso   1.00
C291   C     0.23641   0.67459   0.31460   0.00000  Uiso   1.00
C292   C     0.24925   0.60956   0.34950   0.00000  Uiso   1.00
C293   C     0.19709   0.55800   0.32445   0.00000  Uiso   1.00
C294   C     0.31388   0.76446   0.24347   0.00000  Uiso   1.00
C295   C     0.39186   0.77500   0.21857   0.00000  Uiso   1.00
C296   C     0.40494   0.79910   0.13365   0.00000  Uiso   1.00
C297   C     0.22913   0.79256   0.36822   0.00000  Uiso   1.00
C298   C     0.23587   0.82672   0.44819   0.00000  Uiso   1.00
C299   C     0.17760   0.87450   0.46828   0.00000  Uiso   1.00
H300   H     0.12190   0.77264   0.18151   0.00000  Uiso   1.00
H301   H     0.07299   0.64635   0.18685   0.00000  Uiso   1.00
H302   H     0.21558   0.81177   0.05595   0.00000  Uiso   1.00
H303   H     0.05961   0.86348   0.28553   0.00000  Uiso   1.00
H304   H     0.04644   0.50056   0.21825   0.00000  Uiso   1.00
H305   H     0.34710   0.84937   0.94225   0.00000  Uiso   1.00
H306   H     0.01821   0.95844   0.42637   0.00000  Uiso   1.00
H307   H     0.33500   0.72819   0.37815   0.00000  Uiso   1.00
H308   H     0.29778   0.59945   0.39427   0.00000  Uiso   1.00
H309   H     0.44038   0.76487   0.26337   0.00000  Uiso   1.00
H310   H     0.28441   0.81659   0.49295   0.00000  Uiso   1.00
H311   H     0.22889   0.46249   0.38660   0.00000  Uiso   1.00
H312   H     0.52956   0.81132   0.11060   0.00000  Uiso   1.00
H313   H     0.20067   0.92037   0.59472   0.00000  Uiso   1.00
O314   O     0.10935   0.39764   0.30946   0.00000  Uiso   1.00
O315   O     0.50381   0.85529   0.94737   0.00000  Uiso   1.00
O316   O     0.07231   0.99837   0.58252   0.00000  Uiso   1.00
N317   N     0.09448   0.50927   0.25567   0.00000  Uiso   1.00
N318   N     0.37558   0.83538   0.99763   0.00000  Uiso   1.00
N319   N     0.06811   0.93736   0.45022   0.00000  Uiso   1.00
N320   N     0.19265   0.48879   0.34626   0.00000  Uiso   1.00
N321   N     0.47376   0.81490   0.08822   0.00000  Uiso   1.00
N322   N     0.16628   0.91688   0.54081   0.00000  Uiso   1.00
C323   C     0.32928   0.73755   0.72657   0.00000  Uiso   1.00
C324   C     0.32631   0.81233   0.75674   0.00000  Uiso   1.00
C325   C     0.37849   0.86379   0.73163   0.00000  Uiso   1.00
C326   C     0.36573   0.92889   0.76648   0.00000  Uiso   1.00
C327   C     0.37063   0.04302   0.80449   0.00000  Uiso   1.00
C328   C     0.24883   0.72246   0.68561   0.00000  Uiso   1.00
C329   C     0.23587   0.69836   0.60071   0.00000  Uiso   1.00
C330   C     0.15789   0.68779   0.57569   0.00000  Uiso   1.00
C331   C     0.04251   0.66235   0.50329   0.00000  Uiso   1.00
C332   C     0.33358   0.69436   0.81035   0.00000  Uiso   1.00
C333   C     0.39187   0.64662   0.83032   0.00000  Uiso   1.00
C334   C     0.38522   0.61239   0.91032   0.00000  Uiso   1.00
C335   C     0.40142   0.54333   0.03160   0.00000  Uiso   1.00
C336   C     0.21382   0.76163   0.83310   0.00000  Uiso   1.00
C337   C     0.26359   0.82541   0.81460   0.00000  Uiso   1.00
C338   C     0.25075   0.89044   0.84950   0.00000  Uiso   1.00
C339   C     0.30291   0.94200   0.82445   0.00000  Uiso   1.00
C340   C     0.18612   0.73554   0.74347   0.00000  Uiso   1.00
C341   C     0.10814   0.72500   0.71857   0.00000  Uiso   1.00
C342   C     0.09506   0.70090   0.63365   0.00000  Uiso   1.00
C343   C     0.27087   0.70744   0.86822   0.00000  Uiso   1.00
C344   C     0.26413   0.67328   0.94819   0.00000  Uiso   1.00
C345   C     0.32240   0.62550   0.96828   0.00000  Uiso   1.00
H346   H     0.37810   0.72736   0.68151   0.00000  Uiso   1.00
H347   H     0.42701   0.85365   0.68685   0.00000  Uiso   1.00
H348   H     0.28442   0.68823   0.55595   0.00000  Uiso   1.00
H349   H     0.44039   0.63652   0.78553   0.00000  Uiso   1.00
H350   H     0.45356   0.99944   0.71825   0.00000  Uiso   1.00
H351   H     0.15290   0.65063   0.44225   0.00000  Uiso   1.00
H352   H     0.48179   0.54156   0.92637   0.00000  Uiso   1.00
H353   H     0.16500   0.77181   0.87815   0.00000  Uiso   1.00
H354   H     0.20222   0.90055   0.89427   0.00000  Uiso   1.00
H355   H     0.05962   0.73513   0.76337   0.00000  Uiso   1.00
H356   H     0.21559   0.68341   0.99295   0.00000  Uiso   1.00
H357   H     0.27111   0.03751   0.88660   0.00000  Uiso   1.00
H358   H     0.97044   0.68868   0.61060   0.00000  Uiso   1.00
H359   H     0.29933   0.57963   0.09472   0.00000  Uiso   1.00
O360   O     0.39065   0.10236   0.80946   0.00000  Uiso   1.00
O361   O     0.99619   0.64471   0.44737   0.00000  Uiso   1.00
O362   O     0.42769   0.50163   0.08252   0.00000  Uiso   1.00
N363   N     0.40552   0.99073   0.75567   0.00000  Uiso   1.00
N364   N     0.12442   0.66462   0.49763   0.00000  Uiso   1.00
N365   N     0.43189   0.56264   0.95022   0.00000  Uiso   1.00
N366   N     0.30735   0.01121   0.84626   0.00000  Uiso   1.00
N367   N     0.02624   0.68510   0.58822   0.00000  Uiso   1.00
N368   N     0.33372   0.58312   0.04081   0.00000  Uiso   1.00
