data_job_05039
_audit_creation_date              2018-12-19
_audit_creation_method            'Materials Studio'
_symmetry_space_group_name_H-M    'P1'
_symmetry_Int_Tables_number       1
_symmetry_cell_setting            triclinic
loop_
_symmetry_equiv_pos_as_xyz
  x,y,z
_cell_length_a                    22.4779
_cell_length_b                    8.3409
_cell_length_c                    23.8427
_cell_angle_alpha                 90.0000
_cell_angle_beta                  146.2450
_cell_angle_gamma                 90.0000
loop_
_atom_site_label
_atom_site_type_symbol
_atom_site_fract_x
_atom_site_fract_y
_atom_site_fract_z
_atom_site_U_iso_or_equiv
_atom_site_adp_type
_atom_site_occupancy
C1     C     0.24728   0.37160   0.60948   0.00000  Uiso   1.00
C2     C     0.13283   0.37465   0.49752   0.00000  Uiso   1.00
C3     C     0.06813   0.50940   0.44268   0.00000  Uiso   1.00
C4     C     0.96585   0.48719   0.34107   0.00000  Uiso   1.00
C5     C     0.79362   0.51497   0.17409   0.00000  Uiso   1.00
C6     C     0.24799   0.25002   0.65780   0.00000  Uiso   1.00
C7     C     0.28014   0.28000   0.73772   0.00000  Uiso   1.00
C8     C     0.27481   0.15286   0.77103   0.00000  Uiso   1.00
C9     C     0.28144   0.98713   0.85294   0.00000  Uiso   1.00
C10    C     0.31540   0.29887   0.61629   0.00000  Uiso   1.00
C11    C     0.40424   0.36988   0.66133   0.00000  Uiso   1.00
C12    C     0.45568   0.28384   0.65971   0.00000  Uiso   1.00
C13    C     0.56697   0.19394   0.67716   0.00000  Uiso   1.00
C14    C     0.18069   0.09251   0.52655   0.00000  Uiso   1.00
C15    C     0.09666   0.22305   0.45248   0.00000  Uiso   1.00
C16    C     0.99445   0.20062   0.35092   0.00000  Uiso   1.00
C17    C     0.92962   0.33532   0.29594   0.00000  Uiso   1.00
C18    C     0.21182   0.09844   0.61276   0.00000  Uiso   1.00
C19    C     0.20645   0.97122   0.64596   0.00000  Uiso   1.00
C20    C     0.23857   0.00099   0.72591   0.00000  Uiso   1.00
C21    C     0.27922   0.14727   0.57124   0.00000  Uiso   1.00
C22    C     0.33055   0.06110   0.56956   0.00000  Uiso   1.00
C23    C     0.41945   0.13197   0.61458   0.00000  Uiso   1.00
H24    H     0.27545   0.48961   0.64456   0.00000  Uiso   1.00
H25    H     0.09615   0.62670   0.47757   0.00000  Uiso   1.00
H26    H     0.30813   0.39732   0.77257   0.00000  Uiso   1.00
H27    H     0.43221   0.48719   0.69618   0.00000  Uiso   1.00
H28    H     0.88141   0.71181   0.27258   0.00000  Uiso   1.00
H29    H     0.32841   0.22815   0.89462   0.00000  Uiso   1.00
H30    H     0.59005   0.41766   0.73355   0.00000  Uiso   1.00
H31    H     0.15253   0.97448   0.49148   0.00000  Uiso   1.00
H32    H     0.96648   0.08330   0.31608   0.00000  Uiso   1.00
H33    H     0.17846   0.85392   0.61109   0.00000  Uiso   1.00
H34    H     0.30254   0.94380   0.53469   0.00000  Uiso   1.00
H35    H     0.77615   0.27077   0.14151   0.00000  Uiso   1.00
H36    H     0.22317   0.78710   0.76356   0.00000  Uiso   1.00
H37    H     0.48480   0.97661   0.60248   0.00000  Uiso   1.00
O38    O     0.70860   0.57216   0.09444   0.00000  Uiso   1.00
O39    O     0.29507   0.93760   0.91055   0.00000  Uiso   1.00
O40    O     0.63834   0.18624   0.69921   0.00000  Uiso   1.00
N41    N     0.88217   0.59309   0.26580   0.00000  Uiso   1.00
N42    N     0.30008   0.14089   0.84736   0.00000  Uiso   1.00
N43    N     0.54471   0.31805   0.69679   0.00000  Uiso   1.00
N44    N     0.82554   0.35577   0.19527   0.00000  Uiso   1.00
N45    N     0.24345   0.90357   0.77684   0.00000  Uiso   1.00
N46    N     0.48808   0.08073   0.62626   0.00000  Uiso   1.00
C47    C     0.75272   0.87160   0.89052   0.00000  Uiso   1.00
C48    C     0.86717   0.87465   0.00248   0.00000  Uiso   1.00
C49    C     0.93187   0.00940   0.05732   0.00000  Uiso   1.00
C50    C     0.03415   0.98719   0.15893   0.00000  Uiso   1.00
C51    C     0.20638   0.01497   0.32591   0.00000  Uiso   1.00
C52    C     0.75201   0.75002   0.84220   0.00000  Uiso   1.00
C53    C     0.71986   0.78000   0.76228   0.00000  Uiso   1.00
C54    C     0.72519   0.65286   0.72897   0.00000  Uiso   1.00
C55    C     0.71856   0.48713   0.64706   0.00000  Uiso   1.00
C56    C     0.68460   0.79887   0.88371   0.00000  Uiso   1.00
C57    C     0.59576   0.86988   0.83867   0.00000  Uiso   1.00
C58    C     0.54432   0.78384   0.84029   0.00000  Uiso   1.00
C59    C     0.43303   0.69394   0.82284   0.00000  Uiso   1.00
C60    C     0.81931   0.59251   0.97345   0.00000  Uiso   1.00
C61    C     0.90334   0.72305   0.04752   0.00000  Uiso   1.00
C62    C     0.00555   0.70062   0.14908   0.00000  Uiso   1.00
C63    C     0.07038   0.83532   0.20406   0.00000  Uiso   1.00
C64    C     0.78818   0.59844   0.88724   0.00000  Uiso   1.00
C65    C     0.79355   0.47122   0.85404   0.00000  Uiso   1.00
C66    C     0.76143   0.50099   0.77409   0.00000  Uiso   1.00
C67    C     0.72078   0.64727   0.92876   0.00000  Uiso   1.00
C68    C     0.66945   0.56110   0.93044   0.00000  Uiso   1.00
C69    C     0.58055   0.63197   0.88542   0.00000  Uiso   1.00
H70    H     0.72455   0.98961   0.85544   0.00000  Uiso   1.00
H71    H     0.90385   0.12670   0.02243   0.00000  Uiso   1.00
H72    H     0.69187   0.89732   0.72743   0.00000  Uiso   1.00
H73    H     0.56779   0.98719   0.80382   0.00000  Uiso   1.00
H74    H     0.11859   0.21181   0.22742   0.00000  Uiso   1.00
H75    H     0.67159   0.72815   0.60538   0.00000  Uiso   1.00
H76    H     0.40995   0.91766   0.76645   0.00000  Uiso   1.00
H77    H     0.84747   0.47448   0.00852   0.00000  Uiso   1.00
H78    H     0.03352   0.58330   0.18392   0.00000  Uiso   1.00
H79    H     0.82154   0.35392   0.88891   0.00000  Uiso   1.00
H80    H     0.69746   0.44380   0.96531   0.00000  Uiso   1.00
H81    H     0.22385   0.77077   0.35849   0.00000  Uiso   1.00
H82    H     0.77683   0.28710   0.73644   0.00000  Uiso   1.00
H83    H     0.51520   0.47661   0.89752   0.00000  Uiso   1.00
O84    O     0.29140   0.07216   0.40556   0.00000  Uiso   1.00
O85    O     0.70493   0.43760   0.58945   0.00000  Uiso   1.00
O86    O     0.36166   0.68624   0.80079   0.00000  Uiso   1.00
N87    N     0.11783   0.09309   0.23420   0.00000  Uiso   1.00
N88    N     0.69992   0.64089   0.65264   0.00000  Uiso   1.00
N89    N     0.45529   0.81805   0.80321   0.00000  Uiso   1.00
N90    N     0.17446   0.85577   0.30473   0.00000  Uiso   1.00
N91    N     0.75655   0.40357   0.72316   0.00000  Uiso   1.00
N92    N     0.51192   0.58073   0.87374   0.00000  Uiso   1.00
C93    C     0.75272   0.62840   0.39052   0.00000  Uiso   1.00
C94    C     0.86717   0.62535   0.50248   0.00000  Uiso   1.00
C95    C     0.93187   0.49060   0.55732   0.00000  Uiso   1.00
C96    C     0.03415   0.51281   0.65893   0.00000  Uiso   1.00
C97    C     0.20638   0.48503   0.82591   0.00000  Uiso   1.00
C98    C     0.75201   0.74998   0.34220   0.00000  Uiso   1.00
C99    C     0.71986   0.72000   0.26228   0.00000  Uiso   1.00
C100   C     0.72519   0.84714   0.22897   0.00000  Uiso   1.00
C101   C     0.71856   0.01287   0.14706   0.00000  Uiso   1.00
C102   C     0.68460   0.70113   0.38371   0.00000  Uiso   1.00
C103   C     0.59576   0.63012   0.33867   0.00000  Uiso   1.00
C104   C     0.54432   0.71616   0.34029   0.00000  Uiso   1.00
C105   C     0.43303   0.80606   0.32284   0.00000  Uiso   1.00
C106   C     0.81931   0.90749   0.47345   0.00000  Uiso   1.00
C107   C     0.90334   0.77695   0.54752   0.00000  Uiso   1.00
C108   C     0.00555   0.79938   0.64908   0.00000  Uiso   1.00
C109   C     0.07038   0.66468   0.70406   0.00000  Uiso   1.00
C110   C     0.78818   0.90156   0.38724   0.00000  Uiso   1.00
C111   C     0.79355   0.02878   0.35404   0.00000  Uiso   1.00
C112   C     0.76143   0.99901   0.27409   0.00000  Uiso   1.00
C113   C     0.72078   0.85273   0.42876   0.00000  Uiso   1.00
C114   C     0.66945   0.93890   0.43044   0.00000  Uiso   1.00
C115   C     0.58055   0.86803   0.38542   0.00000  Uiso   1.00
H116   H     0.72455   0.51039   0.35544   0.00000  Uiso   1.00
H117   H     0.90385   0.37330   0.52243   0.00000  Uiso   1.00
H118   H     0.69187   0.60268   0.22743   0.00000  Uiso   1.00
H119   H     0.56779   0.51281   0.30382   0.00000  Uiso   1.00
H120   H     0.11859   0.28819   0.72742   0.00000  Uiso   1.00
H121   H     0.67159   0.77185   0.10538   0.00000  Uiso   1.00
H122   H     0.40995   0.58234   0.26645   0.00000  Uiso   1.00
H123   H     0.84747   0.02552   0.50852   0.00000  Uiso   1.00
H124   H     0.03352   0.91670   0.68392   0.00000  Uiso   1.00
H125   H     0.82154   0.14608   0.38891   0.00000  Uiso   1.00
H126   H     0.69746   0.05620   0.46531   0.00000  Uiso   1.00
H127   H     0.22385   0.72923   0.85849   0.00000  Uiso   1.00
H128   H     0.77683   0.21290   0.23644   0.00000  Uiso   1.00
H129   H     0.51520   0.02339   0.39752   0.00000  Uiso   1.00
O130   O     0.29140   0.42784   0.90556   0.00000  Uiso   1.00
O131   O     0.70493   0.06240   0.08945   0.00000  Uiso   1.00
O132   O     0.36166   0.81376   0.30079   0.00000  Uiso   1.00
N133   N     0.11783   0.40691   0.73420   0.00000  Uiso   1.00
N134   N     0.69992   0.85911   0.15264   0.00000  Uiso   1.00
N135   N     0.45529   0.68195   0.30321   0.00000  Uiso   1.00
N136   N     0.17446   0.64423   0.80473   0.00000  Uiso   1.00
N137   N     0.75655   0.09643   0.22316   0.00000  Uiso   1.00
N138   N     0.51192   0.91927   0.37374   0.00000  Uiso   1.00
C139   C     0.24728   0.12840   0.10948   0.00000  Uiso   1.00
C140   C     0.13283   0.12535   0.99752   0.00000  Uiso   1.00
C141   C     0.06813   0.99060   0.94268   0.00000  Uiso   1.00
C142   C     0.96585   0.01281   0.84107   0.00000  Uiso   1.00
C143   C     0.79362   0.98503   0.67409   0.00000  Uiso   1.00
C144   C     0.24799   0.24998   0.15780   0.00000  Uiso   1.00
C145   C     0.28014   0.22000   0.23772   0.00000  Uiso   1.00
C146   C     0.27481   0.34714   0.27103   0.00000  Uiso   1.00
C147   C     0.28144   0.51287   0.35294   0.00000  Uiso   1.00
C148   C     0.31540   0.20113   0.11629   0.00000  Uiso   1.00
C149   C     0.40424   0.13012   0.16133   0.00000  Uiso   1.00
C150   C     0.45568   0.21616   0.15971   0.00000  Uiso   1.00
C151   C     0.56697   0.30606   0.17716   0.00000  Uiso   1.00
C152   C     0.18069   0.40749   0.02655   0.00000  Uiso   1.00
C153   C     0.09666   0.27695   0.95248   0.00000  Uiso   1.00
C154   C     0.99445   0.29938   0.85092   0.00000  Uiso   1.00
C155   C     0.92962   0.16468   0.79594   0.00000  Uiso   1.00
C156   C     0.21182   0.40156   0.11276   0.00000  Uiso   1.00
C157   C     0.20645   0.52878   0.14596   0.00000  Uiso   1.00
C158   C     0.23857   0.49901   0.22591   0.00000  Uiso   1.00
C159   C     0.27922   0.35273   0.07124   0.00000  Uiso   1.00
C160   C     0.33055   0.43890   0.06956   0.00000  Uiso   1.00
C161   C     0.41945   0.36803   0.11458   0.00000  Uiso   1.00
H162   H     0.27545   0.01039   0.14456   0.00000  Uiso   1.00
H163   H     0.09615   0.87330   0.97757   0.00000  Uiso   1.00
H164   H     0.30813   0.10268   0.27257   0.00000  Uiso   1.00
H165   H     0.43221   0.01281   0.19618   0.00000  Uiso   1.00
H166   H     0.88141   0.78819   0.77258   0.00000  Uiso   1.00
H167   H     0.32841   0.27185   0.39462   0.00000  Uiso   1.00
H168   H     0.59005   0.08234   0.23355   0.00000  Uiso   1.00
H169   H     0.15253   0.52552   0.99148   0.00000  Uiso   1.00
H170   H     0.96648   0.41670   0.81608   0.00000  Uiso   1.00
H171   H     0.17846   0.64608   0.11109   0.00000  Uiso   1.00
H172   H     0.30254   0.55620   0.03469   0.00000  Uiso   1.00
H173   H     0.77615   0.22923   0.64151   0.00000  Uiso   1.00
H174   H     0.22317   0.71290   0.26356   0.00000  Uiso   1.00
H175   H     0.48480   0.52339   0.10248   0.00000  Uiso   1.00
O176   O     0.70860   0.92784   0.59444   0.00000  Uiso   1.00
O177   O     0.29507   0.56240   0.41055   0.00000  Uiso   1.00
O178   O     0.63834   0.31376   0.19921   0.00000  Uiso   1.00
N179   N     0.88217   0.90691   0.76580   0.00000  Uiso   1.00
N180   N     0.30008   0.35911   0.34736   0.00000  Uiso   1.00
N181   N     0.54471   0.18195   0.19679   0.00000  Uiso   1.00
N182   N     0.82554   0.14423   0.69527   0.00000  Uiso   1.00
N183   N     0.24345   0.59643   0.27684   0.00000  Uiso   1.00
N184   N     0.48808   0.41927   0.12626   0.00000  Uiso   1.00
