data_job_05938
_audit_creation_date              2018-12-19
_audit_creation_method            'Materials Studio'
_symmetry_space_group_name_H-M    'P1'
_symmetry_Int_Tables_number       1
_symmetry_cell_setting            triclinic
loop_
_symmetry_equiv_pos_as_xyz
  x,y,z
_cell_length_a                    12.1708
_cell_length_b                    22.1271
_cell_length_c                    22.3036
_cell_angle_alpha                 116.7900
_cell_angle_beta                  78.9493
_cell_angle_gamma                 80.6654
loop_
_atom_site_label
_atom_site_type_symbol
_atom_site_fract_x
_atom_site_fract_y
_atom_site_fract_z
_atom_site_U_iso_or_equiv
_atom_site_adp_type
_atom_site_occupancy
C1     C     0.76104   0.50374   0.72051   0.00000  Uiso   1.00
C2     C     0.79206   0.42388   0.67359   0.00000  Uiso   1.00
C3     C     0.76360   0.37692   0.69493   0.00000  Uiso   1.00
C4     C     0.79996   0.30590   0.64404   0.00000  Uiso   1.00
C5     C     0.83865   0.18541   0.58180   0.00000  Uiso   1.00
C6     C     0.87629   0.52252   0.71436   0.00000  Uiso   1.00
C7     C     0.91862   0.55850   0.76998   0.00000  Uiso   1.00
C8     C     0.02587   0.57052   0.75340   0.00000  Uiso   1.00
C9     C     0.19529   0.60322   0.75446   0.00000  Uiso   1.00
C10    C     0.69373   0.53562   0.68563   0.00000  Uiso   1.00
C11    C     0.58259   0.58263   0.71711   0.00000  Uiso   1.00
C12    C     0.53615   0.60570   0.67635   0.00000  Uiso   1.00
C13    C     0.42212   0.65874   0.63281   0.00000  Uiso   1.00
C14    C     0.87623   0.46113   0.59217   0.00000  Uiso   1.00
C15    C     0.85463   0.40073   0.60388   0.00000  Uiso   1.00
C16    C     0.89104   0.32977   0.55294   0.00000  Uiso   1.00
C17    C     0.86263   0.28271   0.57420   0.00000  Uiso   1.00
C18    C     0.93885   0.49937   0.64465   0.00000  Uiso   1.00
C19    C     0.04606   0.51135   0.62799   0.00000  Uiso   1.00
C20    C     0.08855   0.54734   0.68357   0.00000  Uiso   1.00
C21    C     0.75630   0.51247   0.61592   0.00000  Uiso   1.00
C22    C     0.71003   0.53548   0.57512   0.00000  Uiso   1.00
C23    C     0.59883   0.58251   0.60652   0.00000  Uiso   1.00
H24    H     0.71234   0.52176   0.77478   0.00000  Uiso   1.00
H25    H     0.71518   0.39485   0.74889   0.00000  Uiso   1.00
H26    H     0.87018   0.57641   0.82392   0.00000  Uiso   1.00
H27    H     0.53420   0.60053   0.77105   0.00000  Uiso   1.00
H28    H     0.74597   0.24393   0.68944   0.00000  Uiso   1.00
H29    H     0.07276   0.62678   0.84766   0.00000  Uiso   1.00
H30    H     0.36428   0.67766   0.73618   0.00000  Uiso   1.00
H31    H     0.92495   0.44311   0.53790   0.00000  Uiso   1.00
H32    H     0.93946   0.31187   0.49900   0.00000  Uiso   1.00
H33    H     0.09445   0.49344   0.57404   0.00000  Uiso   1.00
H34    H     0.75847   0.51756   0.52117   0.00000  Uiso   1.00
H35    H     0.92800   0.17658   0.48663   0.00000  Uiso   1.00
H36    H     0.25479   0.55944   0.64485   0.00000  Uiso   1.00
H37    H     0.54631   0.61031   0.53337   0.00000  Uiso   1.00
O38    O     0.84273   0.12535   0.56672   0.00000  Uiso   1.00
O39    O     0.27145   0.62765   0.77430   0.00000  Uiso   1.00
O40    O     0.34194   0.69438   0.62805   0.00000  Uiso   1.00
N41    N     0.78680   0.24609   0.64704   0.00000  Uiso   1.00
N42    N     0.09234   0.60403   0.79496   0.00000  Uiso   1.00
N43    N     0.42998   0.65160   0.69075   0.00000  Uiso   1.00
N44    N     0.88475   0.20985   0.53791   0.00000  Uiso   1.00
N45    N     0.19029   0.56779   0.68583   0.00000  Uiso   1.00
N46    N     0.52793   0.61536   0.58162   0.00000  Uiso   1.00
C47    C     0.48137   0.28004   0.78253   0.00000  Uiso   1.00
C48    C     0.46749   0.32720   0.74982   0.00000  Uiso   1.00
C49    C     0.46146   0.30575   0.68199   0.00000  Uiso   1.00
C50    C     0.44874   0.35690   0.66202   0.00000  Uiso   1.00
C51    C     0.42823   0.41945   0.60419   0.00000  Uiso   1.00
C52    C     0.59000   0.28694   0.80666   0.00000  Uiso   1.00
C53    C     0.68697   0.23164   0.78662   0.00000  Uiso   1.00
C54    C     0.77738   0.24891   0.81450   0.00000  Uiso   1.00
C55    C     0.94704   0.24896   0.84495   0.00000  Uiso   1.00
C56    C     0.37849   0.31437   0.84944   0.00000  Uiso   1.00
C57    C     0.29763   0.28214   0.86539   0.00000  Uiso   1.00
C58    C     0.20998   0.32250   0.92930   0.00000  Uiso   1.00
C59    C     0.05123   0.36515   0.02618   0.00000  Uiso   1.00
C60    C     0.46951   0.40902   0.86766   0.00000  Uiso   1.00
C61    C     0.46105   0.39725   0.79607   0.00000  Uiso   1.00
C62    C     0.44833   0.44845   0.77619   0.00000  Uiso   1.00
C63    C     0.44228   0.42708   0.70834   0.00000  Uiso   1.00
C64    C     0.58356   0.35699   0.85290   0.00000  Uiso   1.00
C65    C     0.67384   0.37434   0.88082   0.00000  Uiso   1.00
C66    C     0.77093   0.31909   0.86083   0.00000  Uiso   1.00
C67    C     0.37205   0.38443   0.89569   0.00000  Uiso   1.00
C68    C     0.28451   0.42484   0.95958   0.00000  Uiso   1.00
C69    C     0.20352   0.39268   0.97563   0.00000  Uiso   1.00
H70    H     0.48639   0.22550   0.74653   0.00000  Uiso   1.00
H71    H     0.46646   0.25152   0.64622   0.00000  Uiso   1.00
H72    H     0.69193   0.17743   0.75084   0.00000  Uiso   1.00
H73    H     0.30265   0.22793   0.82960   0.00000  Uiso   1.00
H74    H     0.44156   0.31127   0.55540   0.00000  Uiso   1.00
H75    H     0.91696   0.15504   0.77602   0.00000  Uiso   1.00
H76    H     0.09609   0.26151   0.94208   0.00000  Uiso   1.00
H77    H     0.46449   0.46357   0.90367   0.00000  Uiso   1.00
H78    H     0.44335   0.50266   0.81199   0.00000  Uiso   1.00
H79    H     0.66882   0.42856   0.91661   0.00000  Uiso   1.00
H80    H     0.27955   0.47906   0.99536   0.00000  Uiso   1.00
H81    H     0.42281   0.51510   0.68994   0.00000  Uiso   1.00
H82    H     0.89821   0.35886   0.91056   0.00000  Uiso   1.00
H83    H     0.07734   0.46534   0.07662   0.00000  Uiso   1.00
O84    O     0.41871   0.43460   0.55951   0.00000  Uiso   1.00
O85    O     0.04240   0.22963   0.84897   0.00000  Uiso   1.00
O86    O     0.96544   0.36932   0.06684   0.00000  Uiso   1.00
N87    N     0.44003   0.35388   0.59965   0.00000  Uiso   1.00
N88    N     0.88450   0.20781   0.80591   0.00000  Uiso   1.00
N89    N     0.11708   0.30735   0.96117   0.00000  Uiso   1.00
N90    N     0.42993   0.46356   0.67204   0.00000  Uiso   1.00
N91    N     0.87441   0.31749   0.87830   0.00000  Uiso   1.00
N92    N     0.10699   0.41703   0.03357   0.00000  Uiso   1.00
C93    C     0.26393   0.21770   0.49703   0.00000  Uiso   1.00
C94    C     0.21628   0.25021   0.57664   0.00000  Uiso   1.00
C95    C     0.14308   0.31792   0.62310   0.00000  Uiso   1.00
C96    C     0.10919   0.33772   0.69397   0.00000  Uiso   1.00
C97    C     0.02947   0.39526   0.81402   0.00000  Uiso   1.00
C98    C     0.39647   0.19433   0.47914   0.00000  Uiso   1.00
C99    C     0.47477   0.21505   0.44362   0.00000  Uiso   1.00
C100   C     0.59256   0.18780   0.43240   0.00000  Uiso   1.00
C101   C     0.79259   0.15854   0.40104   0.00000  Uiso   1.00
C102   C     0.22701   0.15014   0.46493   0.00000  Uiso   1.00
C103   C     0.16286   0.13371   0.41743   0.00000  Uiso   1.00
C104   C     0.13801   0.06925   0.39424   0.00000  Uiso   1.00
C105   C     0.07493   0.97139   0.34081   0.00000  Uiso   1.00
C106   C     0.33392   0.13245   0.54027   0.00000  Uiso   1.00
C107   C     0.25430   0.20390   0.60013   0.00000  Uiso   1.00
C108   C     0.22051   0.22361   0.67095   0.00000  Uiso   1.00
C109   C     0.14727   0.29134   0.71750   0.00000  Uiso   1.00
C110   C     0.43448   0.14803   0.50263   0.00000  Uiso   1.00
C111   C     0.55219   0.12074   0.49146   0.00000  Uiso   1.00
C112   C     0.63065   0.14142   0.45593   0.00000  Uiso   1.00
C113   C     0.26502   0.10384   0.48842   0.00000  Uiso   1.00
C114   C     0.24028   0.03940   0.46529   0.00000  Uiso   1.00
C115   C     0.17609   0.02287   0.41777   0.00000  Uiso   1.00
H116   H     0.23435   0.25374   0.47874   0.00000  Uiso   1.00
H117   H     0.11369   0.35374   0.60490   0.00000  Uiso   1.00
H118   H     0.44533   0.25088   0.42544   0.00000  Uiso   1.00
H119   H     0.13346   0.16955   0.39927   0.00000  Uiso   1.00
H120   H     0.99672   0.44419   0.75514   0.00000  Uiso   1.00
H121   H     0.69599   0.22728   0.37671   0.00000  Uiso   1.00
H122   H     0.03837   0.05579   0.32152   0.00000  Uiso   1.00
H123   H     0.36351   0.09640   0.55856   0.00000  Uiso   1.00
H124   H     0.24994   0.18777   0.68911   0.00000  Uiso   1.00
H125   H     0.58158   0.08491   0.50965   0.00000  Uiso   1.00
H126   H     0.26971   0.00358   0.48348   0.00000  Uiso   1.00
H127   H     0.10731   0.30948   0.82349   0.00000  Uiso   1.00
H128   H     0.80658   0.09257   0.44506   0.00000  Uiso   1.00
H129   H     0.14895   0.92108   0.38987   0.00000  Uiso   1.00
O130   O     0.97501   0.43979   0.87375   0.00000  Uiso   1.00
O131   O     0.89242   0.15520   0.37726   0.00000  Uiso   1.00
O132   O     0.02962   0.93021   0.30486   0.00000  Uiso   1.00
N133   N     0.03832   0.39995   0.75331   0.00000  Uiso   1.00
N134   N     0.69209   0.19716   0.39951   0.00000  Uiso   1.00
N135   N     0.07729   0.03682   0.34790   0.00000  Uiso   1.00
N136   N     0.09782   0.32746   0.79008   0.00000  Uiso   1.00
N137   N     0.75160   0.12467   0.43629   0.00000  Uiso   1.00
N138   N     0.13680   0.96433   0.38468   0.00000  Uiso   1.00
C139   C     0.23896   0.49626   0.27949   0.00000  Uiso   1.00
C140   C     0.20794   0.57612   0.32641   0.00000  Uiso   1.00
C141   C     0.23640   0.62308   0.30507   0.00000  Uiso   1.00
C142   C     0.20004   0.69410   0.35596   0.00000  Uiso   1.00
C143   C     0.16135   0.81459   0.41820   0.00000  Uiso   1.00
C144   C     0.12371   0.47748   0.28564   0.00000  Uiso   1.00
C145   C     0.08138   0.44150   0.23002   0.00000  Uiso   1.00
C146   C     0.97413   0.42948   0.24660   0.00000  Uiso   1.00
C147   C     0.80471   0.39678   0.24554   0.00000  Uiso   1.00
C148   C     0.30627   0.46438   0.31437   0.00000  Uiso   1.00
C149   C     0.41741   0.41737   0.28289   0.00000  Uiso   1.00
C150   C     0.46385   0.39430   0.32365   0.00000  Uiso   1.00
C151   C     0.57787   0.34126   0.36719   0.00000  Uiso   1.00
C152   C     0.12377   0.53887   0.40783   0.00000  Uiso   1.00
C153   C     0.14537   0.59927   0.39612   0.00000  Uiso   1.00
C154   C     0.10896   0.67023   0.44706   0.00000  Uiso   1.00
C155   C     0.13737   0.71729   0.42580   0.00000  Uiso   1.00
C156   C     0.06115   0.50063   0.35535   0.00000  Uiso   1.00
C157   C     0.95394   0.48865   0.37201   0.00000  Uiso   1.00
C158   C     0.91145   0.45266   0.31643   0.00000  Uiso   1.00
C159   C     0.24370   0.48753   0.38408   0.00000  Uiso   1.00
C160   C     0.28997   0.46452   0.42488   0.00000  Uiso   1.00
C161   C     0.40117   0.41749   0.39348   0.00000  Uiso   1.00
H162   H     0.28766   0.47824   0.22522   0.00000  Uiso   1.00
H163   H     0.28482   0.60515   0.25111   0.00000  Uiso   1.00
H164   H     0.12982   0.42359   0.17608   0.00000  Uiso   1.00
H165   H     0.46580   0.39947   0.22895   0.00000  Uiso   1.00
H166   H     0.25403   0.75607   0.31056   0.00000  Uiso   1.00
H167   H     0.92724   0.37322   0.15234   0.00000  Uiso   1.00
H168   H     0.63572   0.32234   0.26382   0.00000  Uiso   1.00
H169   H     0.07505   0.55689   0.46210   0.00000  Uiso   1.00
H170   H     0.06054   0.68813   0.50100   0.00000  Uiso   1.00
H171   H     0.90555   0.50656   0.42596   0.00000  Uiso   1.00
H172   H     0.24153   0.48244   0.47883   0.00000  Uiso   1.00
H173   H     0.07200   0.82342   0.51337   0.00000  Uiso   1.00
H174   H     0.74521   0.44056   0.35515   0.00000  Uiso   1.00
H175   H     0.45369   0.38969   0.46663   0.00000  Uiso   1.00
O176   O     0.15727   0.87465   0.43328   0.00000  Uiso   1.00
O177   O     0.72855   0.37235   0.22570   0.00000  Uiso   1.00
O178   O     0.65806   0.30562   0.37195   0.00000  Uiso   1.00
N179   N     0.21320   0.75391   0.35296   0.00000  Uiso   1.00
N180   N     0.90766   0.39597   0.20504   0.00000  Uiso   1.00
N181   N     0.57002   0.34840   0.30925   0.00000  Uiso   1.00
N182   N     0.11525   0.79015   0.46209   0.00000  Uiso   1.00
N183   N     0.80971   0.43221   0.31417   0.00000  Uiso   1.00
N184   N     0.47207   0.38464   0.41838   0.00000  Uiso   1.00
C185   C     0.51863   0.71996   0.21747   0.00000  Uiso   1.00
C186   C     0.53251   0.67281   0.25018   0.00000  Uiso   1.00
C187   C     0.53854   0.69425   0.31801   0.00000  Uiso   1.00
C188   C     0.55126   0.64311   0.33799   0.00000  Uiso   1.00
C189   C     0.57177   0.58055   0.39581   0.00000  Uiso   1.00
C190   C     0.41000   0.71306   0.19334   0.00000  Uiso   1.00
C191   C     0.31303   0.76836   0.21338   0.00000  Uiso   1.00
C192   C     0.22262   0.75109   0.18550   0.00000  Uiso   1.00
C193   C     0.05296   0.75104   0.15505   0.00000  Uiso   1.00
C194   C     0.62151   0.68563   0.15056   0.00000  Uiso   1.00
C195   C     0.70237   0.71786   0.13461   0.00000  Uiso   1.00
C196   C     0.79002   0.67750   0.07070   0.00000  Uiso   1.00
C197   C     0.94877   0.63486   0.97382   0.00000  Uiso   1.00
C198   C     0.53049   0.59098   0.13234   0.00000  Uiso   1.00
C199   C     0.53895   0.60275   0.20393   0.00000  Uiso   1.00
C200   C     0.55167   0.55155   0.22381   0.00000  Uiso   1.00
C201   C     0.55772   0.57292   0.29166   0.00000  Uiso   1.00
C202   C     0.41644   0.64301   0.14710   0.00000  Uiso   1.00
C203   C     0.32615   0.62566   0.11918   0.00000  Uiso   1.00
C204   C     0.22907   0.68091   0.13917   0.00000  Uiso   1.00
C205   C     0.62795   0.61557   0.10431   0.00000  Uiso   1.00
C206   C     0.71549   0.57516   0.04042   0.00000  Uiso   1.00
C207   C     0.79648   0.60732   0.02437   0.00000  Uiso   1.00
H208   H     0.51361   0.77450   0.25347   0.00000  Uiso   1.00
H209   H     0.53354   0.74848   0.35378   0.00000  Uiso   1.00
H210   H     0.30807   0.82257   0.24916   0.00000  Uiso   1.00
H211   H     0.69735   0.77207   0.17041   0.00000  Uiso   1.00
H212   H     0.55844   0.68873   0.44460   0.00000  Uiso   1.00
H213   H     0.08304   0.84496   0.22398   0.00000  Uiso   1.00
H214   H     0.90391   0.73849   0.05792   0.00000  Uiso   1.00
H215   H     0.53551   0.53644   0.09633   0.00000  Uiso   1.00
H216   H     0.55665   0.49734   0.18802   0.00000  Uiso   1.00
H217   H     0.33118   0.57144   0.08340   0.00000  Uiso   1.00
H218   H     0.72045   0.52094   0.00464   0.00000  Uiso   1.00
H219   H     0.57719   0.48490   0.31006   0.00000  Uiso   1.00
H220   H     0.10179   0.64114   0.08944   0.00000  Uiso   1.00
H221   H     0.92266   0.53466   0.92338   0.00000  Uiso   1.00
O222   O     0.58128   0.56540   0.44049   0.00000  Uiso   1.00
O223   O     0.95760   0.77037   0.15103   0.00000  Uiso   1.00
O224   O     0.03456   0.63068   0.93316   0.00000  Uiso   1.00
N225   N     0.55997   0.64612   0.40035   0.00000  Uiso   1.00
N226   N     0.11550   0.79219   0.19410   0.00000  Uiso   1.00
N227   N     0.88292   0.69265   0.03883   0.00000  Uiso   1.00
N228   N     0.57007   0.53644   0.32796   0.00000  Uiso   1.00
N229   N     0.12559   0.68251   0.12170   0.00000  Uiso   1.00
N230   N     0.89301   0.58297   0.96643   0.00000  Uiso   1.00
C231   C     0.73607   0.78230   0.50297   0.00000  Uiso   1.00
C232   C     0.78372   0.74979   0.42336   0.00000  Uiso   1.00
C233   C     0.85692   0.68208   0.37690   0.00000  Uiso   1.00
C234   C     0.89080   0.66228   0.30603   0.00000  Uiso   1.00
C235   C     0.97053   0.60474   0.18598   0.00000  Uiso   1.00
C236   C     0.60353   0.80567   0.52086   0.00000  Uiso   1.00
C237   C     0.52523   0.78495   0.55639   0.00000  Uiso   1.00
C238   C     0.40743   0.81220   0.56760   0.00000  Uiso   1.00
C239   C     0.20741   0.84146   0.59896   0.00000  Uiso   1.00
C240   C     0.77299   0.84986   0.53507   0.00000  Uiso   1.00
C241   C     0.83714   0.86629   0.58257   0.00000  Uiso   1.00
C242   C     0.86199   0.93075   0.60576   0.00000  Uiso   1.00
C243   C     0.92507   0.02861   0.65919   0.00000  Uiso   1.00
C244   C     0.66608   0.86755   0.45973   0.00000  Uiso   1.00
C245   C     0.74570   0.79610   0.39987   0.00000  Uiso   1.00
C246   C     0.77949   0.77639   0.32905   0.00000  Uiso   1.00
C247   C     0.85273   0.70866   0.28250   0.00000  Uiso   1.00
C248   C     0.56552   0.85197   0.49737   0.00000  Uiso   1.00
C249   C     0.44781   0.87926   0.50854   0.00000  Uiso   1.00
C250   C     0.36935   0.85858   0.54407   0.00000  Uiso   1.00
C251   C     0.73498   0.89616   0.51158   0.00000  Uiso   1.00
C252   C     0.75972   0.96060   0.53471   0.00000  Uiso   1.00
C253   C     0.82391   0.97713   0.58223   0.00000  Uiso   1.00
H254   H     0.76565   0.74626   0.52126   0.00000  Uiso   1.00
H255   H     0.88631   0.64626   0.39510   0.00000  Uiso   1.00
H256   H     0.55467   0.74912   0.57456   0.00000  Uiso   1.00
H257   H     0.86654   0.83045   0.60073   0.00000  Uiso   1.00
H258   H     0.00328   0.55581   0.24486   0.00000  Uiso   1.00
H259   H     0.30401   0.77272   0.62329   0.00000  Uiso   1.00
H260   H     0.96163   0.94421   0.67848   0.00000  Uiso   1.00
H261   H     0.63649   0.90360   0.44144   0.00000  Uiso   1.00
H262   H     0.75006   0.81223   0.31089   0.00000  Uiso   1.00
H263   H     0.41842   0.91510   0.49035   0.00000  Uiso   1.00
H264   H     0.73029   0.99642   0.51652   0.00000  Uiso   1.00
H265   H     0.89269   0.69052   0.17651   0.00000  Uiso   1.00
H266   H     0.19342   0.90743   0.55494   0.00000  Uiso   1.00
H267   H     0.85105   0.07892   0.61013   0.00000  Uiso   1.00
O268   O     0.02499   0.56021   0.12625   0.00000  Uiso   1.00
O269   O     0.10758   0.84480   0.62274   0.00000  Uiso   1.00
O270   O     0.97037   0.06979   0.69514   0.00000  Uiso   1.00
N271   N     0.96168   0.60005   0.24669   0.00000  Uiso   1.00
N272   N     0.30791   0.80284   0.60049   0.00000  Uiso   1.00
N273   N     0.92271   0.96318   0.65210   0.00000  Uiso   1.00
N274   N     0.90218   0.67254   0.20992   0.00000  Uiso   1.00
N275   N     0.24840   0.87533   0.56371   0.00000  Uiso   1.00
N276   N     0.86320   0.03567   0.61533   0.00000  Uiso   1.00
