data_job_01813
_audit_creation_date              2018-12-19
_audit_creation_method            'Materials Studio'
_symmetry_space_group_name_H-M    'P1'
_symmetry_Int_Tables_number       1
_symmetry_cell_setting            triclinic
loop_
_symmetry_equiv_pos_as_xyz
  x,y,z
_cell_length_a                    12.6011
_cell_length_b                    20.9067
_cell_length_c                    13.7761
_cell_angle_alpha                 90.0000
_cell_angle_beta                  123.8389
_cell_angle_gamma                 90.0000
loop_
_atom_site_label
_atom_site_type_symbol
_atom_site_fract_x
_atom_site_fract_y
_atom_site_fract_z
_atom_site_U_iso_or_equiv
_atom_site_adp_type
_atom_site_occupancy
C1     C     0.95807   0.08496   0.74929   0.00000  Uiso   1.00
C2     C     0.88071   0.06568   0.79902   0.00000  Uiso   1.00
C3     C     0.88215   0.00599   0.84380   0.00000  Uiso   1.00
C4     C     0.80454   0.99791   0.88508   0.00000  Uiso   1.00
C5     C     0.69598   0.96039   0.96276   0.00000  Uiso   1.00
C6     C     0.86142   0.10874   0.62551   0.00000  Uiso   1.00
C7     C     0.84664   0.08527   0.52443   0.00000  Uiso   1.00
C8     C     0.75280   0.11344   0.41966   0.00000  Uiso   1.00
C9     C     0.61434   0.14281   0.22798   0.00000  Uiso   1.00
C10    C     0.03588   0.14335   0.81900   0.00000  Uiso   1.00
C11    C     0.16779   0.14898   0.88058   0.00000  Uiso   1.00
C12    C     0.22083   0.20630   0.93869   0.00000  Uiso   1.00
C13    C     0.35325   0.28939   0.04743   0.00000  Uiso   1.00
C14    C     0.81771   0.17675   0.74297   0.00000  Uiso   1.00
C15    C     0.80447   0.11554   0.79558   0.00000  Uiso   1.00
C16    C     0.72685   0.10756   0.83681   0.00000  Uiso   1.00
C17    C     0.72817   0.04786   0.88165   0.00000  Uiso   1.00
C18    C     0.78518   0.15860   0.62208   0.00000  Uiso   1.00
C19    C     0.69135   0.18683   0.51743   0.00000  Uiso   1.00
C20    C     0.67642   0.16340   0.41621   0.00000  Uiso   1.00
C21    C     0.95964   0.19321   0.81557   0.00000  Uiso   1.00
C22    C     0.01249   0.25054   0.87359   0.00000  Uiso   1.00
C23    C     0.14446   0.25625   0.93525   0.00000  Uiso   1.00
H24    H     0.01742   0.04614   0.75196   0.00000  Uiso   1.00
H25    H     0.94115   0.96742   0.84644   0.00000  Uiso   1.00
H26    H     0.90566   0.04668   0.52712   0.00000  Uiso   1.00
H27    H     0.22676   0.11038   0.88322   0.00000  Uiso   1.00
H28    H     0.82294   0.90212   0.94963   0.00000  Uiso   1.00
H29    H     0.74813   0.06927   0.27632   0.00000  Uiso   1.00
H30    H     0.42523   0.20359   0.02723   0.00000  Uiso   1.00
H31    H     0.75835   0.21558   0.74029   0.00000  Uiso   1.00
H32    H     0.66786   0.14615   0.83414   0.00000  Uiso   1.00
H33    H     0.63237   0.22541   0.51481   0.00000  Uiso   1.00
H34    H     0.95346   0.28911   0.87091   0.00000  Uiso   1.00
H35    H     0.60112   0.04718   0.93964   0.00000  Uiso   1.00
H36    H     0.52632   0.21434   0.26633   0.00000  Uiso   1.00
H37    H     0.20341   0.34866   0.01724   0.00000  Uiso   1.00
O38    O     0.65714   0.92592   0.00654   0.00000  Uiso   1.00
O39    O     0.55903   0.14522   0.12320   0.00000  Uiso   1.00
O40    O     0.44735   0.32144   0.10837   0.00000  Uiso   1.00
N41    N     0.78317   0.94579   0.93442   0.00000  Uiso   1.00
N42    N     0.71322   0.10206   0.30492   0.00000  Uiso   1.00
N43    N     0.34624   0.22765   0.00693   0.00000  Uiso   1.00
N44    N     0.66381   0.02385   0.92905   0.00000  Uiso   1.00
N45    N     0.59386   0.18012   0.29954   0.00000  Uiso   1.00
N46    N     0.22688   0.30571   0.00156   0.00000  Uiso   1.00
C47    C     0.45807   0.58496   0.74929   0.00000  Uiso   1.00
C48    C     0.38071   0.56568   0.79902   0.00000  Uiso   1.00
C49    C     0.38215   0.50599   0.84380   0.00000  Uiso   1.00
C50    C     0.30454   0.49791   0.88508   0.00000  Uiso   1.00
C51    C     0.19598   0.46039   0.96276   0.00000  Uiso   1.00
C52    C     0.36142   0.60874   0.62551   0.00000  Uiso   1.00
C53    C     0.34664   0.58527   0.52443   0.00000  Uiso   1.00
C54    C     0.25280   0.61344   0.41966   0.00000  Uiso   1.00
C55    C     0.11434   0.64281   0.22798   0.00000  Uiso   1.00
C56    C     0.53588   0.64335   0.81900   0.00000  Uiso   1.00
C57    C     0.66779   0.64898   0.88058   0.00000  Uiso   1.00
C58    C     0.72083   0.70630   0.93869   0.00000  Uiso   1.00
C59    C     0.85325   0.78939   0.04743   0.00000  Uiso   1.00
C60    C     0.31771   0.67675   0.74297   0.00000  Uiso   1.00
C61    C     0.30447   0.61554   0.79558   0.00000  Uiso   1.00
C62    C     0.22685   0.60756   0.83681   0.00000  Uiso   1.00
C63    C     0.22817   0.54786   0.88165   0.00000  Uiso   1.00
C64    C     0.28518   0.65860   0.62208   0.00000  Uiso   1.00
C65    C     0.19135   0.68683   0.51743   0.00000  Uiso   1.00
C66    C     0.17642   0.66340   0.41621   0.00000  Uiso   1.00
C67    C     0.45964   0.69321   0.81557   0.00000  Uiso   1.00
C68    C     0.51249   0.75054   0.87359   0.00000  Uiso   1.00
C69    C     0.64446   0.75625   0.93525   0.00000  Uiso   1.00
H70    H     0.51742   0.54614   0.75196   0.00000  Uiso   1.00
H71    H     0.44115   0.46742   0.84644   0.00000  Uiso   1.00
H72    H     0.40566   0.54668   0.52712   0.00000  Uiso   1.00
H73    H     0.72676   0.61038   0.88322   0.00000  Uiso   1.00
H74    H     0.32294   0.40212   0.94963   0.00000  Uiso   1.00
H75    H     0.24813   0.56927   0.27632   0.00000  Uiso   1.00
H76    H     0.92523   0.70359   0.02723   0.00000  Uiso   1.00
H77    H     0.25835   0.71558   0.74029   0.00000  Uiso   1.00
H78    H     0.16786   0.64615   0.83414   0.00000  Uiso   1.00
H79    H     0.13237   0.72541   0.51481   0.00000  Uiso   1.00
H80    H     0.45346   0.78911   0.87091   0.00000  Uiso   1.00
H81    H     0.10112   0.54718   0.93964   0.00000  Uiso   1.00
H82    H     0.02632   0.71434   0.26633   0.00000  Uiso   1.00
H83    H     0.70341   0.84866   0.01724   0.00000  Uiso   1.00
O84    O     0.15714   0.42592   0.00654   0.00000  Uiso   1.00
O85    O     0.05903   0.64522   0.12320   0.00000  Uiso   1.00
O86    O     0.94735   0.82144   0.10837   0.00000  Uiso   1.00
N87    N     0.28317   0.44579   0.93442   0.00000  Uiso   1.00
N88    N     0.21322   0.60206   0.30492   0.00000  Uiso   1.00
N89    N     0.84624   0.72765   0.00693   0.00000  Uiso   1.00
N90    N     0.16381   0.52385   0.92905   0.00000  Uiso   1.00
N91    N     0.09386   0.68012   0.29954   0.00000  Uiso   1.00
N92    N     0.72688   0.80571   0.00156   0.00000  Uiso   1.00
C93    C     0.04193   0.08496   0.25071   0.00000  Uiso   1.00
C94    C     0.11929   0.06568   0.20098   0.00000  Uiso   1.00
C95    C     0.11785   0.00599   0.15620   0.00000  Uiso   1.00
C96    C     0.19546   0.99791   0.11492   0.00000  Uiso   1.00
C97    C     0.30402   0.96039   0.03724   0.00000  Uiso   1.00
C98    C     0.13858   0.10874   0.37449   0.00000  Uiso   1.00
C99    C     0.15336   0.08527   0.47557   0.00000  Uiso   1.00
C100   C     0.24720   0.11344   0.58034   0.00000  Uiso   1.00
C101   C     0.38566   0.14281   0.77202   0.00000  Uiso   1.00
C102   C     0.96412   0.14335   0.18100   0.00000  Uiso   1.00
C103   C     0.83221   0.14898   0.11942   0.00000  Uiso   1.00
C104   C     0.77917   0.20630   0.06131   0.00000  Uiso   1.00
C105   C     0.64675   0.28939   0.95257   0.00000  Uiso   1.00
C106   C     0.18229   0.17675   0.25703   0.00000  Uiso   1.00
C107   C     0.19553   0.11554   0.20442   0.00000  Uiso   1.00
C108   C     0.27315   0.10756   0.16319   0.00000  Uiso   1.00
C109   C     0.27183   0.04786   0.11835   0.00000  Uiso   1.00
C110   C     0.21482   0.15860   0.37792   0.00000  Uiso   1.00
C111   C     0.30865   0.18683   0.48257   0.00000  Uiso   1.00
C112   C     0.32358   0.16340   0.58379   0.00000  Uiso   1.00
C113   C     0.04036   0.19321   0.18443   0.00000  Uiso   1.00
C114   C     0.98751   0.25054   0.12641   0.00000  Uiso   1.00
C115   C     0.85554   0.25625   0.06475   0.00000  Uiso   1.00
H116   H     0.98258   0.04614   0.24804   0.00000  Uiso   1.00
H117   H     0.05885   0.96742   0.15356   0.00000  Uiso   1.00
H118   H     0.09434   0.04668   0.47288   0.00000  Uiso   1.00
H119   H     0.77324   0.11038   0.11678   0.00000  Uiso   1.00
H120   H     0.17706   0.90212   0.05037   0.00000  Uiso   1.00
H121   H     0.25187   0.06927   0.72368   0.00000  Uiso   1.00
H122   H     0.57477   0.20359   0.97277   0.00000  Uiso   1.00
H123   H     0.24165   0.21558   0.25971   0.00000  Uiso   1.00
H124   H     0.33214   0.14615   0.16586   0.00000  Uiso   1.00
H125   H     0.36763   0.22541   0.48519   0.00000  Uiso   1.00
H126   H     0.04654   0.28911   0.12909   0.00000  Uiso   1.00
H127   H     0.39888   0.04718   0.06036   0.00000  Uiso   1.00
H128   H     0.47368   0.21434   0.73367   0.00000  Uiso   1.00
H129   H     0.79659   0.34866   0.98276   0.00000  Uiso   1.00
O130   O     0.34286   0.92592   0.99346   0.00000  Uiso   1.00
O131   O     0.44097   0.14522   0.87680   0.00000  Uiso   1.00
O132   O     0.55265   0.32144   0.89163   0.00000  Uiso   1.00
N133   N     0.21683   0.94579   0.06558   0.00000  Uiso   1.00
N134   N     0.28678   0.10206   0.69508   0.00000  Uiso   1.00
N135   N     0.65376   0.22765   0.99307   0.00000  Uiso   1.00
N136   N     0.33619   0.02385   0.07095   0.00000  Uiso   1.00
N137   N     0.40614   0.18012   0.70046   0.00000  Uiso   1.00
N138   N     0.77312   0.30571   0.99844   0.00000  Uiso   1.00
C139   C     0.54193   0.58496   0.25071   0.00000  Uiso   1.00
C140   C     0.61929   0.56568   0.20098   0.00000  Uiso   1.00
C141   C     0.61785   0.50599   0.15620   0.00000  Uiso   1.00
C142   C     0.69546   0.49791   0.11492   0.00000  Uiso   1.00
C143   C     0.80402   0.46039   0.03724   0.00000  Uiso   1.00
C144   C     0.63858   0.60874   0.37449   0.00000  Uiso   1.00
C145   C     0.65336   0.58527   0.47557   0.00000  Uiso   1.00
C146   C     0.74720   0.61344   0.58034   0.00000  Uiso   1.00
C147   C     0.88566   0.64281   0.77202   0.00000  Uiso   1.00
C148   C     0.46412   0.64335   0.18100   0.00000  Uiso   1.00
C149   C     0.33221   0.64898   0.11942   0.00000  Uiso   1.00
C150   C     0.27917   0.70630   0.06131   0.00000  Uiso   1.00
C151   C     0.14675   0.78939   0.95257   0.00000  Uiso   1.00
C152   C     0.68229   0.67675   0.25703   0.00000  Uiso   1.00
C153   C     0.69553   0.61554   0.20442   0.00000  Uiso   1.00
C154   C     0.77315   0.60756   0.16319   0.00000  Uiso   1.00
C155   C     0.77183   0.54786   0.11835   0.00000  Uiso   1.00
C156   C     0.71482   0.65860   0.37792   0.00000  Uiso   1.00
C157   C     0.80865   0.68683   0.48257   0.00000  Uiso   1.00
C158   C     0.82358   0.66340   0.58379   0.00000  Uiso   1.00
C159   C     0.54036   0.69321   0.18443   0.00000  Uiso   1.00
C160   C     0.48751   0.75054   0.12641   0.00000  Uiso   1.00
C161   C     0.35554   0.75625   0.06475   0.00000  Uiso   1.00
H162   H     0.48258   0.54614   0.24804   0.00000  Uiso   1.00
H163   H     0.55885   0.46742   0.15356   0.00000  Uiso   1.00
H164   H     0.59434   0.54668   0.47288   0.00000  Uiso   1.00
H165   H     0.27324   0.61038   0.11678   0.00000  Uiso   1.00
H166   H     0.67706   0.40212   0.05037   0.00000  Uiso   1.00
H167   H     0.75187   0.56927   0.72368   0.00000  Uiso   1.00
H168   H     0.07477   0.70359   0.97277   0.00000  Uiso   1.00
H169   H     0.74165   0.71558   0.25971   0.00000  Uiso   1.00
H170   H     0.83214   0.64615   0.16586   0.00000  Uiso   1.00
H171   H     0.86763   0.72541   0.48519   0.00000  Uiso   1.00
H172   H     0.54654   0.78911   0.12909   0.00000  Uiso   1.00
H173   H     0.89888   0.54718   0.06036   0.00000  Uiso   1.00
H174   H     0.97368   0.71434   0.73367   0.00000  Uiso   1.00
H175   H     0.29659   0.84866   0.98276   0.00000  Uiso   1.00
O176   O     0.84286   0.42592   0.99346   0.00000  Uiso   1.00
O177   O     0.94097   0.64522   0.87680   0.00000  Uiso   1.00
O178   O     0.05265   0.82144   0.89163   0.00000  Uiso   1.00
N179   N     0.71683   0.44579   0.06558   0.00000  Uiso   1.00
N180   N     0.78678   0.60206   0.69508   0.00000  Uiso   1.00
N181   N     0.15376   0.72765   0.99307   0.00000  Uiso   1.00
N182   N     0.83619   0.52385   0.07095   0.00000  Uiso   1.00
N183   N     0.90614   0.68012   0.70046   0.00000  Uiso   1.00
N184   N     0.27312   0.80571   0.99844   0.00000  Uiso   1.00
