data_job_04555
_audit_creation_date              2018-12-19
_audit_creation_method            'Materials Studio'
_symmetry_space_group_name_H-M    'P1'
_symmetry_Int_Tables_number       1
_symmetry_cell_setting            triclinic
loop_
_symmetry_equiv_pos_as_xyz
  x,y,z
_cell_length_a                    23.1858
_cell_length_b                    21.3177
_cell_length_c                    12.3012
_cell_angle_alpha                 90.0000
_cell_angle_beta                  116.0320
_cell_angle_gamma                 90.0000
loop_
_atom_site_label
_atom_site_type_symbol
_atom_site_fract_x
_atom_site_fract_y
_atom_site_fract_z
_atom_site_U_iso_or_equiv
_atom_site_adp_type
_atom_site_occupancy
C1     C     0.31485   0.57233   0.79826   0.00000  Uiso   1.00
C2     C     0.33905   0.61930   0.90232   0.00000  Uiso   1.00
C3     C     0.36722   0.60440   0.02454   0.00000  Uiso   1.00
C4     C     0.38611   0.65414   0.10564   0.00000  Uiso   1.00
C5     C     0.42502   0.71758   0.27328   0.00000  Uiso   1.00
C6     C     0.24444   0.58839   0.72069   0.00000  Uiso   1.00
C7     C     0.19308   0.54751   0.69019   0.00000  Uiso   1.00
C8     C     0.13234   0.57123   0.61837   0.00000  Uiso   1.00
C9     C     0.02438   0.58668   0.50395   0.00000  Uiso   1.00
C10    C     0.34971   0.58798   0.72153   0.00000  Uiso   1.00
C11    C     0.38685   0.54674   0.69169   0.00000  Uiso   1.00
C12    C     0.41472   0.57011   0.62055   0.00000  Uiso   1.00
C13    C     0.47020   0.58492   0.50743   0.00000  Uiso   1.00
C14    C     0.29829   0.68714   0.72494   0.00000  Uiso   1.00
C15    C     0.33005   0.68166   0.86249   0.00000  Uiso   1.00
C16    C     0.34890   0.73143   0.94342   0.00000  Uiso   1.00
C17    C     0.37710   0.71661   0.06575   0.00000  Uiso   1.00
C18    C     0.23545   0.65075   0.68087   0.00000  Uiso   1.00
C19    C     0.17476   0.67454   0.60907   0.00000  Uiso   1.00
C20    C     0.12333   0.63371   0.57847   0.00000  Uiso   1.00
C21    C     0.34072   0.65034   0.68170   0.00000  Uiso   1.00
C22    C     0.36853   0.67378   0.61058   0.00000  Uiso   1.00
C23    C     0.40571   0.63259   0.58066   0.00000  Uiso   1.00
H24    H     0.32185   0.52378   0.82926   0.00000  Uiso   1.00
H25    H     0.37417   0.55613   0.05533   0.00000  Uiso   1.00
H26    H     0.20006   0.49925   0.72101   0.00000  Uiso   1.00
H27    H     0.39380   0.49849   0.72253   0.00000  Uiso   1.00
H28    H     0.42819   0.61951   0.28840   0.00000  Uiso   1.00
H29    H     0.06107   0.49957   0.58345   0.00000  Uiso   1.00
H30    H     0.46960   0.49795   0.58664   0.00000  Uiso   1.00
H31    H     0.29129   0.73570   0.69393   0.00000  Uiso   1.00
H32    H     0.34194   0.77969   0.91258   0.00000  Uiso   1.00
H33    H     0.16782   0.72280   0.57826   0.00000  Uiso   1.00
H34    H     0.36156   0.72204   0.57978   0.00000  Uiso   1.00
H35    H     0.40202   0.80095   0.17254   0.00000  Uiso   1.00
H36    H     0.03490   0.68101   0.46758   0.00000  Uiso   1.00
H37    H     0.44343   0.67939   0.47078   0.00000  Uiso   1.00
O38    O     0.44895   0.73534   0.37674   0.00000  Uiso   1.00
O39    O     0.96731   0.57798   0.45185   0.00000  Uiso   1.00
O40    O     0.50330   0.57586   0.45605   0.00000  Uiso   1.00
N41    N     0.41509   0.65618   0.23113   0.00000  Uiso   1.00
N42    N     0.07186   0.54404   0.57205   0.00000  Uiso   1.00
N43    N     0.45378   0.54252   0.57501   0.00000  Uiso   1.00
N44    N     0.40101   0.75381   0.16878   0.00000  Uiso   1.00
N45    N     0.05778   0.64167   0.50971   0.00000  Uiso   1.00
N46    N     0.43971   0.64016   0.51267   0.00000  Uiso   1.00
C47    C     0.81485   0.07233   0.79826   0.00000  Uiso   1.00
C48    C     0.83905   0.11930   0.90232   0.00000  Uiso   1.00
C49    C     0.86722   0.10440   0.02454   0.00000  Uiso   1.00
C50    C     0.88611   0.15414   0.10564   0.00000  Uiso   1.00
C51    C     0.92502   0.21758   0.27328   0.00000  Uiso   1.00
C52    C     0.74444   0.08839   0.72069   0.00000  Uiso   1.00
C53    C     0.69308   0.04751   0.69019   0.00000  Uiso   1.00
C54    C     0.63234   0.07123   0.61837   0.00000  Uiso   1.00
C55    C     0.52438   0.08668   0.50395   0.00000  Uiso   1.00
C56    C     0.84971   0.08798   0.72153   0.00000  Uiso   1.00
C57    C     0.88685   0.04674   0.69169   0.00000  Uiso   1.00
C58    C     0.91472   0.07011   0.62055   0.00000  Uiso   1.00
C59    C     0.97020   0.08492   0.50743   0.00000  Uiso   1.00
C60    C     0.79829   0.18714   0.72494   0.00000  Uiso   1.00
C61    C     0.83005   0.18166   0.86249   0.00000  Uiso   1.00
C62    C     0.84890   0.23143   0.94342   0.00000  Uiso   1.00
C63    C     0.87710   0.21661   0.06575   0.00000  Uiso   1.00
C64    C     0.73545   0.15075   0.68087   0.00000  Uiso   1.00
C65    C     0.67476   0.17454   0.60907   0.00000  Uiso   1.00
C66    C     0.62333   0.13371   0.57847   0.00000  Uiso   1.00
C67    C     0.84072   0.15034   0.68170   0.00000  Uiso   1.00
C68    C     0.86853   0.17378   0.61058   0.00000  Uiso   1.00
C69    C     0.90571   0.13259   0.58066   0.00000  Uiso   1.00
H70    H     0.82185   0.02378   0.82926   0.00000  Uiso   1.00
H71    H     0.87417   0.05613   0.05533   0.00000  Uiso   1.00
H72    H     0.70006   0.99925   0.72101   0.00000  Uiso   1.00
H73    H     0.89380   0.99849   0.72253   0.00000  Uiso   1.00
H74    H     0.92819   0.11951   0.28840   0.00000  Uiso   1.00
H75    H     0.56107   0.99957   0.58345   0.00000  Uiso   1.00
H76    H     0.96960   0.99795   0.58664   0.00000  Uiso   1.00
H77    H     0.79129   0.23570   0.69393   0.00000  Uiso   1.00
H78    H     0.84194   0.27969   0.91258   0.00000  Uiso   1.00
H79    H     0.66782   0.22280   0.57826   0.00000  Uiso   1.00
H80    H     0.86156   0.22204   0.57978   0.00000  Uiso   1.00
H81    H     0.90202   0.30095   0.17254   0.00000  Uiso   1.00
H82    H     0.53490   0.18101   0.46758   0.00000  Uiso   1.00
H83    H     0.94343   0.17939   0.47078   0.00000  Uiso   1.00
O84    O     0.94895   0.23534   0.37674   0.00000  Uiso   1.00
O85    O     0.46731   0.07798   0.45185   0.00000  Uiso   1.00
O86    O     0.00330   0.07586   0.45605   0.00000  Uiso   1.00
N87    N     0.91509   0.15618   0.23113   0.00000  Uiso   1.00
N88    N     0.57186   0.04404   0.57205   0.00000  Uiso   1.00
N89    N     0.95378   0.04252   0.57501   0.00000  Uiso   1.00
N90    N     0.90101   0.25381   0.16878   0.00000  Uiso   1.00
N91    N     0.55778   0.14167   0.50971   0.00000  Uiso   1.00
N92    N     0.93971   0.14016   0.51267   0.00000  Uiso   1.00
C93    C     0.68515   0.57233   0.70174   0.00000  Uiso   1.00
C94    C     0.66095   0.61930   0.59768   0.00000  Uiso   1.00
C95    C     0.63278   0.60440   0.47546   0.00000  Uiso   1.00
C96    C     0.61389   0.65414   0.39436   0.00000  Uiso   1.00
C97    C     0.57498   0.71758   0.22672   0.00000  Uiso   1.00
C98    C     0.75556   0.58839   0.77931   0.00000  Uiso   1.00
C99    C     0.80692   0.54751   0.80981   0.00000  Uiso   1.00
C100   C     0.86766   0.57123   0.88163   0.00000  Uiso   1.00
C101   C     0.97562   0.58668   0.99605   0.00000  Uiso   1.00
C102   C     0.65029   0.58798   0.77847   0.00000  Uiso   1.00
C103   C     0.61315   0.54674   0.80831   0.00000  Uiso   1.00
C104   C     0.58528   0.57011   0.87945   0.00000  Uiso   1.00
C105   C     0.52980   0.58492   0.99257   0.00000  Uiso   1.00
C106   C     0.70171   0.68714   0.77506   0.00000  Uiso   1.00
C107   C     0.66995   0.68166   0.63751   0.00000  Uiso   1.00
C108   C     0.65110   0.73143   0.55658   0.00000  Uiso   1.00
C109   C     0.62290   0.71661   0.43425   0.00000  Uiso   1.00
C110   C     0.76455   0.65075   0.81913   0.00000  Uiso   1.00
C111   C     0.82524   0.67454   0.89093   0.00000  Uiso   1.00
C112   C     0.87667   0.63371   0.92153   0.00000  Uiso   1.00
C113   C     0.65928   0.65034   0.81830   0.00000  Uiso   1.00
C114   C     0.63147   0.67378   0.88942   0.00000  Uiso   1.00
C115   C     0.59429   0.63259   0.91934   0.00000  Uiso   1.00
H116   H     0.67815   0.52378   0.67074   0.00000  Uiso   1.00
H117   H     0.62583   0.55613   0.44467   0.00000  Uiso   1.00
H118   H     0.79994   0.49925   0.77899   0.00000  Uiso   1.00
H119   H     0.60620   0.49849   0.77747   0.00000  Uiso   1.00
H120   H     0.57181   0.61951   0.21160   0.00000  Uiso   1.00
H121   H     0.93893   0.49957   0.91655   0.00000  Uiso   1.00
H122   H     0.53040   0.49795   0.91336   0.00000  Uiso   1.00
H123   H     0.70871   0.73570   0.80607   0.00000  Uiso   1.00
H124   H     0.65806   0.77969   0.58742   0.00000  Uiso   1.00
H125   H     0.83218   0.72280   0.92174   0.00000  Uiso   1.00
H126   H     0.63844   0.72204   0.92022   0.00000  Uiso   1.00
H127   H     0.59798   0.80095   0.32746   0.00000  Uiso   1.00
H128   H     0.96510   0.68101   0.03242   0.00000  Uiso   1.00
H129   H     0.55657   0.67939   0.02922   0.00000  Uiso   1.00
O130   O     0.55105   0.73534   0.12326   0.00000  Uiso   1.00
O131   O     0.03269   0.57798   0.04815   0.00000  Uiso   1.00
O132   O     0.49670   0.57586   0.04395   0.00000  Uiso   1.00
N133   N     0.58491   0.65618   0.26887   0.00000  Uiso   1.00
N134   N     0.92814   0.54404   0.92795   0.00000  Uiso   1.00
N135   N     0.54622   0.54252   0.92499   0.00000  Uiso   1.00
N136   N     0.59899   0.75381   0.33122   0.00000  Uiso   1.00
N137   N     0.94222   0.64167   0.99029   0.00000  Uiso   1.00
N138   N     0.56029   0.64016   0.98733   0.00000  Uiso   1.00
C139   C     0.18515   0.07233   0.70174   0.00000  Uiso   1.00
C140   C     0.16095   0.11930   0.59768   0.00000  Uiso   1.00
C141   C     0.13278   0.10440   0.47546   0.00000  Uiso   1.00
C142   C     0.11389   0.15414   0.39436   0.00000  Uiso   1.00
C143   C     0.07498   0.21758   0.22672   0.00000  Uiso   1.00
C144   C     0.25556   0.08839   0.77931   0.00000  Uiso   1.00
C145   C     0.30692   0.04751   0.80981   0.00000  Uiso   1.00
C146   C     0.36766   0.07123   0.88163   0.00000  Uiso   1.00
C147   C     0.47562   0.08668   0.99605   0.00000  Uiso   1.00
C148   C     0.15029   0.08798   0.77847   0.00000  Uiso   1.00
C149   C     0.11315   0.04674   0.80831   0.00000  Uiso   1.00
C150   C     0.08528   0.07011   0.87945   0.00000  Uiso   1.00
C151   C     0.02980   0.08492   0.99257   0.00000  Uiso   1.00
C152   C     0.20171   0.18714   0.77506   0.00000  Uiso   1.00
C153   C     0.16995   0.18166   0.63751   0.00000  Uiso   1.00
C154   C     0.15110   0.23143   0.55658   0.00000  Uiso   1.00
C155   C     0.12290   0.21661   0.43425   0.00000  Uiso   1.00
C156   C     0.26455   0.15075   0.81913   0.00000  Uiso   1.00
C157   C     0.32524   0.17454   0.89093   0.00000  Uiso   1.00
C158   C     0.37667   0.13371   0.92153   0.00000  Uiso   1.00
C159   C     0.15928   0.15034   0.81830   0.00000  Uiso   1.00
C160   C     0.13147   0.17378   0.88942   0.00000  Uiso   1.00
C161   C     0.09429   0.13259   0.91934   0.00000  Uiso   1.00
H162   H     0.17815   0.02378   0.67074   0.00000  Uiso   1.00
H163   H     0.12583   0.05613   0.44467   0.00000  Uiso   1.00
H164   H     0.29994   0.99925   0.77899   0.00000  Uiso   1.00
H165   H     0.10620   0.99849   0.77747   0.00000  Uiso   1.00
H166   H     0.07181   0.11951   0.21160   0.00000  Uiso   1.00
H167   H     0.43893   0.99957   0.91655   0.00000  Uiso   1.00
H168   H     0.03040   0.99795   0.91336   0.00000  Uiso   1.00
H169   H     0.20871   0.23570   0.80607   0.00000  Uiso   1.00
H170   H     0.15806   0.27969   0.58742   0.00000  Uiso   1.00
H171   H     0.33218   0.22280   0.92174   0.00000  Uiso   1.00
H172   H     0.13844   0.22204   0.92022   0.00000  Uiso   1.00
H173   H     0.09798   0.30095   0.32746   0.00000  Uiso   1.00
H174   H     0.46510   0.18101   0.03242   0.00000  Uiso   1.00
H175   H     0.05657   0.17939   0.02922   0.00000  Uiso   1.00
O176   O     0.05105   0.23534   0.12326   0.00000  Uiso   1.00
O177   O     0.53269   0.07798   0.04815   0.00000  Uiso   1.00
O178   O     0.99670   0.07586   0.04395   0.00000  Uiso   1.00
N179   N     0.08491   0.15618   0.26887   0.00000  Uiso   1.00
N180   N     0.42814   0.04404   0.92795   0.00000  Uiso   1.00
N181   N     0.04622   0.04252   0.92499   0.00000  Uiso   1.00
N182   N     0.09899   0.25381   0.33122   0.00000  Uiso   1.00
N183   N     0.44222   0.14167   0.99029   0.00000  Uiso   1.00
N184   N     0.06029   0.14016   0.98733   0.00000  Uiso   1.00
C185   C     0.68515   0.42767   0.20174   0.00000  Uiso   1.00
C186   C     0.66095   0.38070   0.09768   0.00000  Uiso   1.00
C187   C     0.63278   0.39560   0.97546   0.00000  Uiso   1.00
C188   C     0.61389   0.34586   0.89436   0.00000  Uiso   1.00
C189   C     0.57498   0.28242   0.72672   0.00000  Uiso   1.00
C190   C     0.75556   0.41161   0.27931   0.00000  Uiso   1.00
C191   C     0.80692   0.45249   0.30981   0.00000  Uiso   1.00
C192   C     0.86766   0.42877   0.38163   0.00000  Uiso   1.00
C193   C     0.97562   0.41332   0.49605   0.00000  Uiso   1.00
C194   C     0.65029   0.41202   0.27847   0.00000  Uiso   1.00
C195   C     0.61315   0.45326   0.30831   0.00000  Uiso   1.00
C196   C     0.58528   0.42989   0.37945   0.00000  Uiso   1.00
C197   C     0.52980   0.41508   0.49257   0.00000  Uiso   1.00
C198   C     0.70171   0.31286   0.27506   0.00000  Uiso   1.00
C199   C     0.66995   0.31834   0.13751   0.00000  Uiso   1.00
C200   C     0.65110   0.26857   0.05658   0.00000  Uiso   1.00
C201   C     0.62290   0.28339   0.93425   0.00000  Uiso   1.00
C202   C     0.76455   0.34925   0.31913   0.00000  Uiso   1.00
C203   C     0.82524   0.32546   0.39093   0.00000  Uiso   1.00
C204   C     0.87667   0.36629   0.42153   0.00000  Uiso   1.00
C205   C     0.65928   0.34966   0.31830   0.00000  Uiso   1.00
C206   C     0.63147   0.32622   0.38942   0.00000  Uiso   1.00
C207   C     0.59429   0.36741   0.41934   0.00000  Uiso   1.00
H208   H     0.67815   0.47622   0.17074   0.00000  Uiso   1.00
H209   H     0.62583   0.44387   0.94467   0.00000  Uiso   1.00
H210   H     0.79994   0.50075   0.27899   0.00000  Uiso   1.00
H211   H     0.60620   0.50151   0.27747   0.00000  Uiso   1.00
H212   H     0.57181   0.38049   0.71160   0.00000  Uiso   1.00
H213   H     0.93893   0.50043   0.41655   0.00000  Uiso   1.00
H214   H     0.53040   0.50205   0.41336   0.00000  Uiso   1.00
H215   H     0.70871   0.26430   0.30607   0.00000  Uiso   1.00
H216   H     0.65806   0.22031   0.08742   0.00000  Uiso   1.00
H217   H     0.83218   0.27720   0.42174   0.00000  Uiso   1.00
H218   H     0.63844   0.27796   0.42022   0.00000  Uiso   1.00
H219   H     0.59798   0.19905   0.82746   0.00000  Uiso   1.00
H220   H     0.96510   0.31899   0.53242   0.00000  Uiso   1.00
H221   H     0.55657   0.32061   0.52922   0.00000  Uiso   1.00
O222   O     0.55105   0.26466   0.62326   0.00000  Uiso   1.00
O223   O     0.03269   0.42202   0.54815   0.00000  Uiso   1.00
O224   O     0.49670   0.42414   0.54395   0.00000  Uiso   1.00
N225   N     0.58491   0.34382   0.76887   0.00000  Uiso   1.00
N226   N     0.92814   0.45596   0.42795   0.00000  Uiso   1.00
N227   N     0.54622   0.45748   0.42499   0.00000  Uiso   1.00
N228   N     0.59899   0.24619   0.83122   0.00000  Uiso   1.00
N229   N     0.94222   0.35833   0.49029   0.00000  Uiso   1.00
N230   N     0.56029   0.35984   0.48733   0.00000  Uiso   1.00
C231   C     0.18515   0.92767   0.20174   0.00000  Uiso   1.00
C232   C     0.16095   0.88070   0.09768   0.00000  Uiso   1.00
C233   C     0.13278   0.89560   0.97546   0.00000  Uiso   1.00
C234   C     0.11389   0.84586   0.89436   0.00000  Uiso   1.00
C235   C     0.07498   0.78242   0.72672   0.00000  Uiso   1.00
C236   C     0.25556   0.91161   0.27931   0.00000  Uiso   1.00
C237   C     0.30692   0.95249   0.30981   0.00000  Uiso   1.00
C238   C     0.36766   0.92877   0.38163   0.00000  Uiso   1.00
C239   C     0.47562   0.91332   0.49605   0.00000  Uiso   1.00
C240   C     0.15029   0.91202   0.27847   0.00000  Uiso   1.00
C241   C     0.11315   0.95326   0.30831   0.00000  Uiso   1.00
C242   C     0.08528   0.92989   0.37945   0.00000  Uiso   1.00
C243   C     0.02980   0.91508   0.49257   0.00000  Uiso   1.00
C244   C     0.20171   0.81286   0.27506   0.00000  Uiso   1.00
C245   C     0.16995   0.81834   0.13751   0.00000  Uiso   1.00
C246   C     0.15110   0.76857   0.05658   0.00000  Uiso   1.00
C247   C     0.12290   0.78339   0.93425   0.00000  Uiso   1.00
C248   C     0.26455   0.84925   0.31913   0.00000  Uiso   1.00
C249   C     0.32524   0.82546   0.39093   0.00000  Uiso   1.00
C250   C     0.37667   0.86629   0.42153   0.00000  Uiso   1.00
C251   C     0.15928   0.84966   0.31830   0.00000  Uiso   1.00
C252   C     0.13147   0.82622   0.38942   0.00000  Uiso   1.00
C253   C     0.09429   0.86741   0.41934   0.00000  Uiso   1.00
H254   H     0.17815   0.97622   0.17074   0.00000  Uiso   1.00
H255   H     0.12583   0.94387   0.94467   0.00000  Uiso   1.00
H256   H     0.29994   0.00075   0.27899   0.00000  Uiso   1.00
H257   H     0.10620   0.00151   0.27747   0.00000  Uiso   1.00
H258   H     0.07181   0.88049   0.71160   0.00000  Uiso   1.00
H259   H     0.43893   0.00043   0.41655   0.00000  Uiso   1.00
H260   H     0.03040   0.00205   0.41336   0.00000  Uiso   1.00
H261   H     0.20871   0.76430   0.30607   0.00000  Uiso   1.00
H262   H     0.15806   0.72031   0.08742   0.00000  Uiso   1.00
H263   H     0.33218   0.77720   0.42174   0.00000  Uiso   1.00
H264   H     0.13844   0.77796   0.42022   0.00000  Uiso   1.00
H265   H     0.09798   0.69905   0.82746   0.00000  Uiso   1.00
H266   H     0.46510   0.81899   0.53242   0.00000  Uiso   1.00
H267   H     0.05657   0.82061   0.52922   0.00000  Uiso   1.00
O268   O     0.05105   0.76466   0.62326   0.00000  Uiso   1.00
O269   O     0.53269   0.92202   0.54815   0.00000  Uiso   1.00
O270   O     0.99670   0.92414   0.54395   0.00000  Uiso   1.00
N271   N     0.08491   0.84382   0.76887   0.00000  Uiso   1.00
N272   N     0.42814   0.95596   0.42795   0.00000  Uiso   1.00
N273   N     0.04622   0.95748   0.42499   0.00000  Uiso   1.00
N274   N     0.09899   0.74619   0.83122   0.00000  Uiso   1.00
N275   N     0.44222   0.85833   0.49029   0.00000  Uiso   1.00
N276   N     0.06029   0.85984   0.48733   0.00000  Uiso   1.00
C277   C     0.31485   0.42767   0.29826   0.00000  Uiso   1.00
C278   C     0.33905   0.38070   0.40232   0.00000  Uiso   1.00
C279   C     0.36722   0.39560   0.52454   0.00000  Uiso   1.00
C280   C     0.38611   0.34586   0.60564   0.00000  Uiso   1.00
C281   C     0.42502   0.28242   0.77328   0.00000  Uiso   1.00
C282   C     0.24444   0.41161   0.22069   0.00000  Uiso   1.00
C283   C     0.19308   0.45249   0.19019   0.00000  Uiso   1.00
C284   C     0.13234   0.42877   0.11837   0.00000  Uiso   1.00
C285   C     0.02438   0.41332   0.00395   0.00000  Uiso   1.00
C286   C     0.34971   0.41202   0.22153   0.00000  Uiso   1.00
C287   C     0.38685   0.45326   0.19169   0.00000  Uiso   1.00
C288   C     0.41472   0.42989   0.12055   0.00000  Uiso   1.00
C289   C     0.47020   0.41508   0.00743   0.00000  Uiso   1.00
C290   C     0.29829   0.31286   0.22494   0.00000  Uiso   1.00
C291   C     0.33005   0.31834   0.36249   0.00000  Uiso   1.00
C292   C     0.34890   0.26857   0.44342   0.00000  Uiso   1.00
C293   C     0.37710   0.28339   0.56575   0.00000  Uiso   1.00
C294   C     0.23545   0.34925   0.18087   0.00000  Uiso   1.00
C295   C     0.17476   0.32546   0.10907   0.00000  Uiso   1.00
C296   C     0.12333   0.36629   0.07847   0.00000  Uiso   1.00
C297   C     0.34072   0.34966   0.18170   0.00000  Uiso   1.00
C298   C     0.36853   0.32622   0.11058   0.00000  Uiso   1.00
C299   C     0.40571   0.36741   0.08066   0.00000  Uiso   1.00
H300   H     0.32185   0.47622   0.32926   0.00000  Uiso   1.00
H301   H     0.37417   0.44387   0.55533   0.00000  Uiso   1.00
H302   H     0.20006   0.50075   0.22101   0.00000  Uiso   1.00
H303   H     0.39380   0.50151   0.22253   0.00000  Uiso   1.00
H304   H     0.42819   0.38049   0.78840   0.00000  Uiso   1.00
H305   H     0.06107   0.50043   0.08345   0.00000  Uiso   1.00
H306   H     0.46960   0.50205   0.08664   0.00000  Uiso   1.00
H307   H     0.29129   0.26430   0.19393   0.00000  Uiso   1.00
H308   H     0.34194   0.22031   0.41258   0.00000  Uiso   1.00
H309   H     0.16782   0.27720   0.07826   0.00000  Uiso   1.00
H310   H     0.36156   0.27796   0.07978   0.00000  Uiso   1.00
H311   H     0.40202   0.19905   0.67254   0.00000  Uiso   1.00
H312   H     0.03490   0.31899   0.96758   0.00000  Uiso   1.00
H313   H     0.44343   0.32061   0.97078   0.00000  Uiso   1.00
O314   O     0.44895   0.26466   0.87674   0.00000  Uiso   1.00
O315   O     0.96731   0.42202   0.95185   0.00000  Uiso   1.00
O316   O     0.50330   0.42414   0.95605   0.00000  Uiso   1.00
N317   N     0.41509   0.34382   0.73113   0.00000  Uiso   1.00
N318   N     0.07186   0.45596   0.07205   0.00000  Uiso   1.00
N319   N     0.45378   0.45748   0.07501   0.00000  Uiso   1.00
N320   N     0.40101   0.24619   0.66878   0.00000  Uiso   1.00
N321   N     0.05778   0.35833   0.00971   0.00000  Uiso   1.00
N322   N     0.43971   0.35984   0.01267   0.00000  Uiso   1.00
C323   C     0.81485   0.92767   0.29826   0.00000  Uiso   1.00
C324   C     0.83905   0.88070   0.40232   0.00000  Uiso   1.00
C325   C     0.86722   0.89560   0.52454   0.00000  Uiso   1.00
C326   C     0.88611   0.84586   0.60564   0.00000  Uiso   1.00
C327   C     0.92502   0.78242   0.77328   0.00000  Uiso   1.00
C328   C     0.74444   0.91161   0.22069   0.00000  Uiso   1.00
C329   C     0.69308   0.95249   0.19019   0.00000  Uiso   1.00
C330   C     0.63234   0.92877   0.11837   0.00000  Uiso   1.00
C331   C     0.52438   0.91332   0.00395   0.00000  Uiso   1.00
C332   C     0.84971   0.91202   0.22153   0.00000  Uiso   1.00
C333   C     0.88685   0.95326   0.19169   0.00000  Uiso   1.00
C334   C     0.91472   0.92989   0.12055   0.00000  Uiso   1.00
C335   C     0.97020   0.91508   0.00743   0.00000  Uiso   1.00
C336   C     0.79829   0.81286   0.22494   0.00000  Uiso   1.00
C337   C     0.83005   0.81834   0.36249   0.00000  Uiso   1.00
C338   C     0.84890   0.76857   0.44342   0.00000  Uiso   1.00
C339   C     0.87710   0.78339   0.56575   0.00000  Uiso   1.00
C340   C     0.73545   0.84925   0.18087   0.00000  Uiso   1.00
C341   C     0.67476   0.82546   0.10907   0.00000  Uiso   1.00
C342   C     0.62333   0.86629   0.07847   0.00000  Uiso   1.00
C343   C     0.84072   0.84966   0.18170   0.00000  Uiso   1.00
C344   C     0.86853   0.82622   0.11058   0.00000  Uiso   1.00
C345   C     0.90571   0.86741   0.08066   0.00000  Uiso   1.00
H346   H     0.82185   0.97622   0.32926   0.00000  Uiso   1.00
H347   H     0.87417   0.94387   0.55533   0.00000  Uiso   1.00
H348   H     0.70006   0.00075   0.22101   0.00000  Uiso   1.00
H349   H     0.89380   0.00151   0.22253   0.00000  Uiso   1.00
H350   H     0.92819   0.88049   0.78840   0.00000  Uiso   1.00
H351   H     0.56107   0.00043   0.08345   0.00000  Uiso   1.00
H352   H     0.96960   0.00205   0.08664   0.00000  Uiso   1.00
H353   H     0.79129   0.76430   0.19393   0.00000  Uiso   1.00
H354   H     0.84194   0.72031   0.41258   0.00000  Uiso   1.00
H355   H     0.66782   0.77720   0.07826   0.00000  Uiso   1.00
H356   H     0.86156   0.77796   0.07978   0.00000  Uiso   1.00
H357   H     0.90202   0.69905   0.67254   0.00000  Uiso   1.00
H358   H     0.53490   0.81899   0.96758   0.00000  Uiso   1.00
H359   H     0.94343   0.82061   0.97078   0.00000  Uiso   1.00
O360   O     0.94895   0.76466   0.87674   0.00000  Uiso   1.00
O361   O     0.46731   0.92202   0.95185   0.00000  Uiso   1.00
O362   O     0.00330   0.92414   0.95605   0.00000  Uiso   1.00
N363   N     0.91509   0.84382   0.73113   0.00000  Uiso   1.00
N364   N     0.57186   0.95596   0.07205   0.00000  Uiso   1.00
N365   N     0.95378   0.95748   0.07501   0.00000  Uiso   1.00
N366   N     0.90101   0.74619   0.66878   0.00000  Uiso   1.00
N367   N     0.55778   0.85833   0.00971   0.00000  Uiso   1.00
N368   N     0.93971   0.85984   0.01267   0.00000  Uiso   1.00
