data_job_03049
_audit_creation_date              2018-12-19
_audit_creation_method            'Materials Studio'
_symmetry_space_group_name_H-M    'P1'
_symmetry_Int_Tables_number       1
_symmetry_cell_setting            triclinic
loop_
_symmetry_equiv_pos_as_xyz
  x,y,z
_cell_length_a                    31.7780
_cell_length_b                    31.7780
_cell_length_c                    7.2175
_cell_angle_alpha                 90.0000
_cell_angle_beta                  90.0000
_cell_angle_gamma                 90.0000
loop_
_atom_site_label
_atom_site_type_symbol
_atom_site_fract_x
_atom_site_fract_y
_atom_site_fract_z
_atom_site_U_iso_or_equiv
_atom_site_adp_type
_atom_site_occupancy
C1     C     0.47095   0.71696   0.27655   0.00000  Uiso   1.00
C2     C     0.48989   0.67397   0.23336   0.00000  Uiso   1.00
C3     C     0.49358   0.64072   0.35695   0.00000  Uiso   1.00
C4     C     0.51183   0.60399   0.29062   0.00000  Uiso   1.00
C5     C     0.53913   0.53776   0.25147   0.00000  Uiso   1.00
C6     C     0.50487   0.74915   0.22924   0.00000  Uiso   1.00
C7     C     0.52115   0.77912   0.34937   0.00000  Uiso   1.00
C8     C     0.55200   0.80568   0.27956   0.00000  Uiso   1.00
C9     C     0.60253   0.85619   0.23398   0.00000  Uiso   1.00
C10    C     0.43579   0.72357   0.13572   0.00000  Uiso   1.00
C11    C     0.39400   0.73203   0.17720   0.00000  Uiso   1.00
C12    C     0.36669   0.73706   0.02865   0.00000  Uiso   1.00
C13    C     0.30997   0.74784   0.83787   0.00000  Uiso   1.00
C14    C     0.49678   0.71086   0.93898   0.00000  Uiso   1.00
C15    C     0.50392   0.67066   0.05000   0.00000  Uiso   1.00
C16    C     0.52217   0.63397   0.98346   0.00000  Uiso   1.00
C17    C     0.52589   0.60067   0.10693   0.00000  Uiso   1.00
C18    C     0.51890   0.74584   0.04589   0.00000  Uiso   1.00
C19    C     0.54973   0.77237   0.97589   0.00000  Uiso   1.00
C20    C     0.56606   0.80236   0.09587   0.00000  Uiso   1.00
C21    C     0.44982   0.72025   0.95236   0.00000  Uiso   1.00
C22    C     0.42258   0.72528   0.80372   0.00000  Uiso   1.00
C23    C     0.38075   0.73374   0.84497   0.00000  Uiso   1.00
H24    H     0.46002   0.71954   0.41930   0.00000  Uiso   1.00
H25    H     0.48272   0.64330   0.49884   0.00000  Uiso   1.00
H26    H     0.51028   0.78168   0.49125   0.00000  Uiso   1.00
H27    H     0.38315   0.73459   0.31911   0.00000  Uiso   1.00
H28    H     0.51409   0.55732   0.50618   0.00000  Uiso   1.00
H29    H     0.57219   0.84910   0.49016   0.00000  Uiso   1.00
H30    H     0.30411   0.74982   0.12717   0.00000  Uiso   1.00
H31    H     0.50771   0.70828   0.79622   0.00000  Uiso   1.00
H32    H     0.53303   0.63142   0.84157   0.00000  Uiso   1.00
H33    H     0.56058   0.76980   0.83399   0.00000  Uiso   1.00
H34    H     0.43345   0.72271   0.66185   0.00000  Uiso   1.00
H35    H     0.55492   0.54768   0.97272   0.00000  Uiso   1.00
H36    H     0.61302   0.83947   0.95670   0.00000  Uiso   1.00
H37    H     0.34494   0.74018   0.59371   0.00000  Uiso   1.00
O38    O     0.55032   0.50214   0.28054   0.00000  Uiso   1.00
O39    O     0.62653   0.88496   0.25951   0.00000  Uiso   1.00
O40    O     0.27481   0.75470   0.78329   0.00000  Uiso   1.00
N41    N     0.52022   0.56559   0.37439   0.00000  Uiso   1.00
N42    N     0.57454   0.83839   0.35943   0.00000  Uiso   1.00
N43    N     0.32391   0.74558   0.02007   0.00000  Uiso   1.00
N44    N     0.54219   0.56041   0.08734   0.00000  Uiso   1.00
N45    N     0.59651   0.83320   0.07238   0.00000  Uiso   1.00
N46    N     0.34588   0.74039   0.73301   0.00000  Uiso   1.00
C47    C     0.52905   0.28304   0.27655   0.00000  Uiso   1.00
C48    C     0.51011   0.32603   0.23336   0.00000  Uiso   1.00
C49    C     0.50642   0.35928   0.35695   0.00000  Uiso   1.00
C50    C     0.48817   0.39601   0.29062   0.00000  Uiso   1.00
C51    C     0.46087   0.46224   0.25147   0.00000  Uiso   1.00
C52    C     0.49513   0.25085   0.22924   0.00000  Uiso   1.00
C53    C     0.47885   0.22088   0.34937   0.00000  Uiso   1.00
C54    C     0.44800   0.19432   0.27956   0.00000  Uiso   1.00
C55    C     0.39747   0.14381   0.23398   0.00000  Uiso   1.00
C56    C     0.56421   0.27643   0.13572   0.00000  Uiso   1.00
C57    C     0.60600   0.26797   0.17720   0.00000  Uiso   1.00
C58    C     0.63331   0.26294   0.02865   0.00000  Uiso   1.00
C59    C     0.69003   0.25216   0.83787   0.00000  Uiso   1.00
C60    C     0.50322   0.28914   0.93898   0.00000  Uiso   1.00
C61    C     0.49608   0.32934   0.05000   0.00000  Uiso   1.00
C62    C     0.47783   0.36603   0.98346   0.00000  Uiso   1.00
C63    C     0.47411   0.39933   0.10693   0.00000  Uiso   1.00
C64    C     0.48110   0.25416   0.04589   0.00000  Uiso   1.00
C65    C     0.45027   0.22763   0.97589   0.00000  Uiso   1.00
C66    C     0.43394   0.19764   0.09587   0.00000  Uiso   1.00
C67    C     0.55018   0.27975   0.95236   0.00000  Uiso   1.00
C68    C     0.57742   0.27472   0.80372   0.00000  Uiso   1.00
C69    C     0.61925   0.26626   0.84497   0.00000  Uiso   1.00
H70    H     0.53998   0.28046   0.41930   0.00000  Uiso   1.00
H71    H     0.51728   0.35670   0.49884   0.00000  Uiso   1.00
H72    H     0.48972   0.21832   0.49125   0.00000  Uiso   1.00
H73    H     0.61685   0.26541   0.31911   0.00000  Uiso   1.00
H74    H     0.48591   0.44268   0.50618   0.00000  Uiso   1.00
H75    H     0.42781   0.15090   0.49016   0.00000  Uiso   1.00
H76    H     0.69589   0.25018   0.12717   0.00000  Uiso   1.00
H77    H     0.49229   0.29172   0.79622   0.00000  Uiso   1.00
H78    H     0.46697   0.36858   0.84157   0.00000  Uiso   1.00
H79    H     0.43942   0.23020   0.83399   0.00000  Uiso   1.00
H80    H     0.56655   0.27729   0.66185   0.00000  Uiso   1.00
H81    H     0.44508   0.45232   0.97272   0.00000  Uiso   1.00
H82    H     0.38698   0.16053   0.95670   0.00000  Uiso   1.00
H83    H     0.65506   0.25982   0.59371   0.00000  Uiso   1.00
O84    O     0.44968   0.49786   0.28054   0.00000  Uiso   1.00
O85    O     0.37347   0.11504   0.25951   0.00000  Uiso   1.00
O86    O     0.72519   0.24530   0.78329   0.00000  Uiso   1.00
N87    N     0.47978   0.43441   0.37439   0.00000  Uiso   1.00
N88    N     0.42546   0.16161   0.35943   0.00000  Uiso   1.00
N89    N     0.67609   0.25442   0.02007   0.00000  Uiso   1.00
N90    N     0.45781   0.43959   0.08734   0.00000  Uiso   1.00
N91    N     0.40349   0.16680   0.07238   0.00000  Uiso   1.00
N92    N     0.65412   0.25961   0.73301   0.00000  Uiso   1.00
C93    C     0.71696   0.52905   0.72345   0.00000  Uiso   1.00
C94    C     0.67397   0.51011   0.76664   0.00000  Uiso   1.00
C95    C     0.64072   0.50642   0.64305   0.00000  Uiso   1.00
C96    C     0.60399   0.48817   0.70938   0.00000  Uiso   1.00
C97    C     0.53776   0.46087   0.74853   0.00000  Uiso   1.00
C98    C     0.74915   0.49513   0.77076   0.00000  Uiso   1.00
C99    C     0.77912   0.47885   0.65063   0.00000  Uiso   1.00
C100   C     0.80568   0.44800   0.72044   0.00000  Uiso   1.00
C101   C     0.85619   0.39747   0.76602   0.00000  Uiso   1.00
C102   C     0.72357   0.56421   0.86428   0.00000  Uiso   1.00
C103   C     0.73203   0.60600   0.82280   0.00000  Uiso   1.00
C104   C     0.73706   0.63331   0.97135   0.00000  Uiso   1.00
C105   C     0.74784   0.69003   0.16213   0.00000  Uiso   1.00
C106   C     0.71086   0.50322   0.06102   0.00000  Uiso   1.00
C107   C     0.67066   0.49608   0.95000   0.00000  Uiso   1.00
C108   C     0.63397   0.47783   0.01654   0.00000  Uiso   1.00
C109   C     0.60067   0.47411   0.89307   0.00000  Uiso   1.00
C110   C     0.74584   0.48110   0.95411   0.00000  Uiso   1.00
C111   C     0.77237   0.45027   0.02411   0.00000  Uiso   1.00
C112   C     0.80236   0.43394   0.90413   0.00000  Uiso   1.00
C113   C     0.72025   0.55018   0.04764   0.00000  Uiso   1.00
C114   C     0.72528   0.57742   0.19628   0.00000  Uiso   1.00
C115   C     0.73374   0.61925   0.15503   0.00000  Uiso   1.00
H116   H     0.71954   0.53998   0.58070   0.00000  Uiso   1.00
H117   H     0.64330   0.51728   0.50116   0.00000  Uiso   1.00
H118   H     0.78168   0.48972   0.50875   0.00000  Uiso   1.00
H119   H     0.73459   0.61685   0.68089   0.00000  Uiso   1.00
H120   H     0.55732   0.48591   0.49382   0.00000  Uiso   1.00
H121   H     0.84910   0.42781   0.50984   0.00000  Uiso   1.00
H122   H     0.74982   0.69589   0.87283   0.00000  Uiso   1.00
H123   H     0.70828   0.49229   0.20378   0.00000  Uiso   1.00
H124   H     0.63142   0.46697   0.15843   0.00000  Uiso   1.00
H125   H     0.76980   0.43942   0.16601   0.00000  Uiso   1.00
H126   H     0.72271   0.56655   0.33815   0.00000  Uiso   1.00
H127   H     0.54768   0.44508   0.02728   0.00000  Uiso   1.00
H128   H     0.83947   0.38698   0.04330   0.00000  Uiso   1.00
H129   H     0.74018   0.65506   0.40629   0.00000  Uiso   1.00
O130   O     0.50214   0.44968   0.71946   0.00000  Uiso   1.00
O131   O     0.88496   0.37347   0.74049   0.00000  Uiso   1.00
O132   O     0.75470   0.72519   0.21671   0.00000  Uiso   1.00
N133   N     0.56559   0.47978   0.62561   0.00000  Uiso   1.00
N134   N     0.83839   0.42546   0.64057   0.00000  Uiso   1.00
N135   N     0.74558   0.67609   0.97993   0.00000  Uiso   1.00
N136   N     0.56041   0.45781   0.91266   0.00000  Uiso   1.00
N137   N     0.83320   0.40349   0.92762   0.00000  Uiso   1.00
N138   N     0.74039   0.65412   0.26699   0.00000  Uiso   1.00
C139   C     0.28304   0.47095   0.72345   0.00000  Uiso   1.00
C140   C     0.32603   0.48989   0.76664   0.00000  Uiso   1.00
C141   C     0.35928   0.49358   0.64305   0.00000  Uiso   1.00
C142   C     0.39601   0.51183   0.70938   0.00000  Uiso   1.00
C143   C     0.46224   0.53913   0.74853   0.00000  Uiso   1.00
C144   C     0.25085   0.50487   0.77076   0.00000  Uiso   1.00
C145   C     0.22088   0.52115   0.65063   0.00000  Uiso   1.00
C146   C     0.19432   0.55200   0.72044   0.00000  Uiso   1.00
C147   C     0.14381   0.60253   0.76602   0.00000  Uiso   1.00
C148   C     0.27643   0.43579   0.86428   0.00000  Uiso   1.00
C149   C     0.26797   0.39400   0.82280   0.00000  Uiso   1.00
C150   C     0.26294   0.36669   0.97135   0.00000  Uiso   1.00
C151   C     0.25216   0.30997   0.16213   0.00000  Uiso   1.00
C152   C     0.28914   0.49678   0.06102   0.00000  Uiso   1.00
C153   C     0.32934   0.50392   0.95000   0.00000  Uiso   1.00
C154   C     0.36603   0.52217   0.01654   0.00000  Uiso   1.00
C155   C     0.39933   0.52589   0.89307   0.00000  Uiso   1.00
C156   C     0.25416   0.51890   0.95411   0.00000  Uiso   1.00
C157   C     0.22763   0.54973   0.02411   0.00000  Uiso   1.00
C158   C     0.19764   0.56606   0.90413   0.00000  Uiso   1.00
C159   C     0.27975   0.44982   0.04764   0.00000  Uiso   1.00
C160   C     0.27472   0.42258   0.19628   0.00000  Uiso   1.00
C161   C     0.26626   0.38075   0.15503   0.00000  Uiso   1.00
H162   H     0.28046   0.46002   0.58070   0.00000  Uiso   1.00
H163   H     0.35670   0.48272   0.50116   0.00000  Uiso   1.00
H164   H     0.21832   0.51028   0.50875   0.00000  Uiso   1.00
H165   H     0.26541   0.38315   0.68089   0.00000  Uiso   1.00
H166   H     0.44268   0.51409   0.49382   0.00000  Uiso   1.00
H167   H     0.15090   0.57219   0.50984   0.00000  Uiso   1.00
H168   H     0.25018   0.30411   0.87283   0.00000  Uiso   1.00
H169   H     0.29172   0.50771   0.20378   0.00000  Uiso   1.00
H170   H     0.36858   0.53303   0.15843   0.00000  Uiso   1.00
H171   H     0.23020   0.56058   0.16601   0.00000  Uiso   1.00
H172   H     0.27729   0.43345   0.33815   0.00000  Uiso   1.00
H173   H     0.45232   0.55492   0.02728   0.00000  Uiso   1.00
H174   H     0.16053   0.61302   0.04330   0.00000  Uiso   1.00
H175   H     0.25982   0.34494   0.40629   0.00000  Uiso   1.00
O176   O     0.49786   0.55032   0.71946   0.00000  Uiso   1.00
O177   O     0.11504   0.62653   0.74049   0.00000  Uiso   1.00
O178   O     0.24530   0.27481   0.21671   0.00000  Uiso   1.00
N179   N     0.43441   0.52022   0.62561   0.00000  Uiso   1.00
N180   N     0.16161   0.57454   0.64057   0.00000  Uiso   1.00
N181   N     0.25442   0.32391   0.97993   0.00000  Uiso   1.00
N182   N     0.43959   0.54219   0.91266   0.00000  Uiso   1.00
N183   N     0.16680   0.59651   0.92762   0.00000  Uiso   1.00
N184   N     0.25961   0.34588   0.26699   0.00000  Uiso   1.00
C185   C     0.97095   0.78304   0.27655   0.00000  Uiso   1.00
C186   C     0.98989   0.82603   0.23336   0.00000  Uiso   1.00
C187   C     0.99358   0.85928   0.35695   0.00000  Uiso   1.00
C188   C     0.01183   0.89601   0.29062   0.00000  Uiso   1.00
C189   C     0.03913   0.96224   0.25147   0.00000  Uiso   1.00
C190   C     0.00487   0.75085   0.22924   0.00000  Uiso   1.00
C191   C     0.02115   0.72088   0.34937   0.00000  Uiso   1.00
C192   C     0.05200   0.69432   0.27956   0.00000  Uiso   1.00
C193   C     0.10253   0.64381   0.23398   0.00000  Uiso   1.00
C194   C     0.93579   0.77643   0.13572   0.00000  Uiso   1.00
C195   C     0.89400   0.76797   0.17720   0.00000  Uiso   1.00
C196   C     0.86669   0.76294   0.02865   0.00000  Uiso   1.00
C197   C     0.80997   0.75216   0.83787   0.00000  Uiso   1.00
C198   C     0.99678   0.78914   0.93898   0.00000  Uiso   1.00
C199   C     0.00392   0.82934   0.05000   0.00000  Uiso   1.00
C200   C     0.02217   0.86603   0.98346   0.00000  Uiso   1.00
C201   C     0.02589   0.89933   0.10693   0.00000  Uiso   1.00
C202   C     0.01890   0.75416   0.04589   0.00000  Uiso   1.00
C203   C     0.04973   0.72763   0.97589   0.00000  Uiso   1.00
C204   C     0.06606   0.69764   0.09587   0.00000  Uiso   1.00
C205   C     0.94982   0.77975   0.95236   0.00000  Uiso   1.00
C206   C     0.92258   0.77472   0.80372   0.00000  Uiso   1.00
C207   C     0.88075   0.76626   0.84497   0.00000  Uiso   1.00
H208   H     0.96002   0.78046   0.41930   0.00000  Uiso   1.00
H209   H     0.98272   0.85670   0.49884   0.00000  Uiso   1.00
H210   H     0.01028   0.71832   0.49125   0.00000  Uiso   1.00
H211   H     0.88315   0.76541   0.31911   0.00000  Uiso   1.00
H212   H     0.01409   0.94268   0.50618   0.00000  Uiso   1.00
H213   H     0.07219   0.65090   0.49016   0.00000  Uiso   1.00
H214   H     0.80411   0.75018   0.12717   0.00000  Uiso   1.00
H215   H     0.00771   0.79172   0.79622   0.00000  Uiso   1.00
H216   H     0.03303   0.86858   0.84157   0.00000  Uiso   1.00
H217   H     0.06058   0.73020   0.83399   0.00000  Uiso   1.00
H218   H     0.93345   0.77729   0.66185   0.00000  Uiso   1.00
H219   H     0.05492   0.95232   0.97272   0.00000  Uiso   1.00
H220   H     0.11302   0.66053   0.95670   0.00000  Uiso   1.00
H221   H     0.84494   0.75982   0.59371   0.00000  Uiso   1.00
O222   O     0.05032   0.99786   0.28054   0.00000  Uiso   1.00
O223   O     0.12653   0.61504   0.25951   0.00000  Uiso   1.00
O224   O     0.77481   0.74530   0.78329   0.00000  Uiso   1.00
N225   N     0.02022   0.93441   0.37439   0.00000  Uiso   1.00
N226   N     0.07454   0.66161   0.35943   0.00000  Uiso   1.00
N227   N     0.82391   0.75442   0.02007   0.00000  Uiso   1.00
N228   N     0.04219   0.93959   0.08734   0.00000  Uiso   1.00
N229   N     0.09651   0.66680   0.07238   0.00000  Uiso   1.00
N230   N     0.84588   0.75961   0.73301   0.00000  Uiso   1.00
C231   C     0.02905   0.21696   0.27655   0.00000  Uiso   1.00
C232   C     0.01011   0.17397   0.23336   0.00000  Uiso   1.00
C233   C     0.00642   0.14072   0.35695   0.00000  Uiso   1.00
C234   C     0.98817   0.10399   0.29062   0.00000  Uiso   1.00
C235   C     0.96087   0.03776   0.25147   0.00000  Uiso   1.00
C236   C     0.99513   0.24915   0.22924   0.00000  Uiso   1.00
C237   C     0.97885   0.27912   0.34937   0.00000  Uiso   1.00
C238   C     0.94800   0.30568   0.27956   0.00000  Uiso   1.00
C239   C     0.89747   0.35619   0.23398   0.00000  Uiso   1.00
C240   C     0.06421   0.22357   0.13572   0.00000  Uiso   1.00
C241   C     0.10600   0.23203   0.17720   0.00000  Uiso   1.00
C242   C     0.13331   0.23706   0.02865   0.00000  Uiso   1.00
C243   C     0.19003   0.24784   0.83787   0.00000  Uiso   1.00
C244   C     0.00322   0.21086   0.93898   0.00000  Uiso   1.00
C245   C     0.99608   0.17066   0.05000   0.00000  Uiso   1.00
C246   C     0.97783   0.13397   0.98346   0.00000  Uiso   1.00
C247   C     0.97411   0.10067   0.10693   0.00000  Uiso   1.00
C248   C     0.98110   0.24584   0.04589   0.00000  Uiso   1.00
C249   C     0.95027   0.27237   0.97589   0.00000  Uiso   1.00
C250   C     0.93394   0.30236   0.09587   0.00000  Uiso   1.00
C251   C     0.05018   0.22025   0.95236   0.00000  Uiso   1.00
C252   C     0.07742   0.22528   0.80372   0.00000  Uiso   1.00
C253   C     0.11925   0.23374   0.84497   0.00000  Uiso   1.00
H254   H     0.03998   0.21954   0.41930   0.00000  Uiso   1.00
H255   H     0.01728   0.14330   0.49884   0.00000  Uiso   1.00
H256   H     0.98972   0.28168   0.49125   0.00000  Uiso   1.00
H257   H     0.11685   0.23459   0.31911   0.00000  Uiso   1.00
H258   H     0.98591   0.05732   0.50618   0.00000  Uiso   1.00
H259   H     0.92781   0.34910   0.49016   0.00000  Uiso   1.00
H260   H     0.19589   0.24982   0.12717   0.00000  Uiso   1.00
H261   H     0.99229   0.20828   0.79622   0.00000  Uiso   1.00
H262   H     0.96697   0.13142   0.84157   0.00000  Uiso   1.00
H263   H     0.93942   0.26980   0.83399   0.00000  Uiso   1.00
H264   H     0.06655   0.22271   0.66185   0.00000  Uiso   1.00
H265   H     0.94508   0.04768   0.97272   0.00000  Uiso   1.00
H266   H     0.88698   0.33947   0.95670   0.00000  Uiso   1.00
H267   H     0.15506   0.24018   0.59371   0.00000  Uiso   1.00
O268   O     0.94968   0.00214   0.28054   0.00000  Uiso   1.00
O269   O     0.87347   0.38496   0.25951   0.00000  Uiso   1.00
O270   O     0.22519   0.25470   0.78329   0.00000  Uiso   1.00
N271   N     0.97978   0.06559   0.37439   0.00000  Uiso   1.00
N272   N     0.92546   0.33839   0.35943   0.00000  Uiso   1.00
N273   N     0.17609   0.24558   0.02007   0.00000  Uiso   1.00
N274   N     0.95781   0.06041   0.08734   0.00000  Uiso   1.00
N275   N     0.90349   0.33320   0.07238   0.00000  Uiso   1.00
N276   N     0.15412   0.24039   0.73301   0.00000  Uiso   1.00
C277   C     0.21696   0.97095   0.72345   0.00000  Uiso   1.00
C278   C     0.17397   0.98989   0.76664   0.00000  Uiso   1.00
C279   C     0.14072   0.99358   0.64305   0.00000  Uiso   1.00
C280   C     0.10399   0.01183   0.70938   0.00000  Uiso   1.00
C281   C     0.03776   0.03913   0.74853   0.00000  Uiso   1.00
C282   C     0.24915   0.00487   0.77076   0.00000  Uiso   1.00
C283   C     0.27912   0.02115   0.65063   0.00000  Uiso   1.00
C284   C     0.30568   0.05200   0.72044   0.00000  Uiso   1.00
C285   C     0.35619   0.10253   0.76602   0.00000  Uiso   1.00
C286   C     0.22357   0.93579   0.86428   0.00000  Uiso   1.00
C287   C     0.23203   0.89400   0.82280   0.00000  Uiso   1.00
C288   C     0.23706   0.86669   0.97135   0.00000  Uiso   1.00
C289   C     0.24784   0.80997   0.16213   0.00000  Uiso   1.00
C290   C     0.21086   0.99678   0.06102   0.00000  Uiso   1.00
C291   C     0.17066   0.00392   0.95000   0.00000  Uiso   1.00
C292   C     0.13397   0.02217   0.01654   0.00000  Uiso   1.00
C293   C     0.10067   0.02589   0.89307   0.00000  Uiso   1.00
C294   C     0.24584   0.01890   0.95411   0.00000  Uiso   1.00
C295   C     0.27237   0.04973   0.02411   0.00000  Uiso   1.00
C296   C     0.30236   0.06606   0.90413   0.00000  Uiso   1.00
C297   C     0.22025   0.94982   0.04764   0.00000  Uiso   1.00
C298   C     0.22528   0.92258   0.19628   0.00000  Uiso   1.00
C299   C     0.23374   0.88075   0.15503   0.00000  Uiso   1.00
H300   H     0.21954   0.96002   0.58070   0.00000  Uiso   1.00
H301   H     0.14330   0.98272   0.50116   0.00000  Uiso   1.00
H302   H     0.28168   0.01028   0.50875   0.00000  Uiso   1.00
H303   H     0.23459   0.88315   0.68089   0.00000  Uiso   1.00
H304   H     0.05732   0.01409   0.49382   0.00000  Uiso   1.00
H305   H     0.34910   0.07219   0.50984   0.00000  Uiso   1.00
H306   H     0.24982   0.80411   0.87283   0.00000  Uiso   1.00
H307   H     0.20828   0.00771   0.20378   0.00000  Uiso   1.00
H308   H     0.13142   0.03303   0.15843   0.00000  Uiso   1.00
H309   H     0.26980   0.06058   0.16601   0.00000  Uiso   1.00
H310   H     0.22271   0.93345   0.33815   0.00000  Uiso   1.00
H311   H     0.04768   0.05492   0.02728   0.00000  Uiso   1.00
H312   H     0.33947   0.11302   0.04330   0.00000  Uiso   1.00
H313   H     0.24018   0.84494   0.40629   0.00000  Uiso   1.00
O314   O     0.00214   0.05032   0.71946   0.00000  Uiso   1.00
O315   O     0.38496   0.12653   0.74049   0.00000  Uiso   1.00
O316   O     0.25470   0.77481   0.21671   0.00000  Uiso   1.00
N317   N     0.06559   0.02022   0.62561   0.00000  Uiso   1.00
N318   N     0.33839   0.07454   0.64057   0.00000  Uiso   1.00
N319   N     0.24558   0.82391   0.97993   0.00000  Uiso   1.00
N320   N     0.06041   0.04219   0.91266   0.00000  Uiso   1.00
N321   N     0.33320   0.09651   0.92762   0.00000  Uiso   1.00
N322   N     0.24039   0.84588   0.26699   0.00000  Uiso   1.00
C323   C     0.78304   0.02905   0.72345   0.00000  Uiso   1.00
C324   C     0.82603   0.01011   0.76664   0.00000  Uiso   1.00
C325   C     0.85928   0.00642   0.64305   0.00000  Uiso   1.00
C326   C     0.89601   0.98817   0.70938   0.00000  Uiso   1.00
C327   C     0.96224   0.96087   0.74853   0.00000  Uiso   1.00
C328   C     0.75085   0.99513   0.77076   0.00000  Uiso   1.00
C329   C     0.72088   0.97885   0.65063   0.00000  Uiso   1.00
C330   C     0.69432   0.94800   0.72044   0.00000  Uiso   1.00
C331   C     0.64381   0.89747   0.76602   0.00000  Uiso   1.00
C332   C     0.77643   0.06421   0.86428   0.00000  Uiso   1.00
C333   C     0.76797   0.10600   0.82280   0.00000  Uiso   1.00
C334   C     0.76294   0.13331   0.97135   0.00000  Uiso   1.00
C335   C     0.75216   0.19003   0.16213   0.00000  Uiso   1.00
C336   C     0.78914   0.00322   0.06102   0.00000  Uiso   1.00
C337   C     0.82934   0.99608   0.95000   0.00000  Uiso   1.00
C338   C     0.86603   0.97783   0.01654   0.00000  Uiso   1.00
C339   C     0.89933   0.97411   0.89307   0.00000  Uiso   1.00
C340   C     0.75416   0.98110   0.95411   0.00000  Uiso   1.00
C341   C     0.72763   0.95027   0.02411   0.00000  Uiso   1.00
C342   C     0.69764   0.93394   0.90413   0.00000  Uiso   1.00
C343   C     0.77975   0.05018   0.04764   0.00000  Uiso   1.00
C344   C     0.77472   0.07742   0.19628   0.00000  Uiso   1.00
C345   C     0.76626   0.11925   0.15503   0.00000  Uiso   1.00
H346   H     0.78046   0.03998   0.58070   0.00000  Uiso   1.00
H347   H     0.85670   0.01728   0.50116   0.00000  Uiso   1.00
H348   H     0.71832   0.98972   0.50875   0.00000  Uiso   1.00
H349   H     0.76541   0.11685   0.68089   0.00000  Uiso   1.00
H350   H     0.94268   0.98591   0.49382   0.00000  Uiso   1.00
H351   H     0.65090   0.92781   0.50984   0.00000  Uiso   1.00
H352   H     0.75018   0.19589   0.87283   0.00000  Uiso   1.00
H353   H     0.79172   0.99229   0.20378   0.00000  Uiso   1.00
H354   H     0.86858   0.96697   0.15843   0.00000  Uiso   1.00
H355   H     0.73020   0.93942   0.16601   0.00000  Uiso   1.00
H356   H     0.77729   0.06655   0.33815   0.00000  Uiso   1.00
H357   H     0.95232   0.94508   0.02728   0.00000  Uiso   1.00
H358   H     0.66053   0.88698   0.04330   0.00000  Uiso   1.00
H359   H     0.75982   0.15506   0.40629   0.00000  Uiso   1.00
O360   O     0.99786   0.94968   0.71946   0.00000  Uiso   1.00
O361   O     0.61504   0.87347   0.74049   0.00000  Uiso   1.00
O362   O     0.74530   0.22519   0.21671   0.00000  Uiso   1.00
N363   N     0.93441   0.97978   0.62561   0.00000  Uiso   1.00
N364   N     0.66161   0.92546   0.64057   0.00000  Uiso   1.00
N365   N     0.75442   0.17609   0.97993   0.00000  Uiso   1.00
N366   N     0.93959   0.95781   0.91266   0.00000  Uiso   1.00
N367   N     0.66680   0.90349   0.92762   0.00000  Uiso   1.00
N368   N     0.75961   0.15412   0.26699   0.00000  Uiso   1.00
