data_job_02594
_audit_creation_date              2018-12-19
_audit_creation_method            'Materials Studio'
_symmetry_space_group_name_H-M    'P1'
_symmetry_Int_Tables_number       1
_symmetry_cell_setting            triclinic
loop_
_symmetry_equiv_pos_as_xyz
  x,y,z
_cell_length_a                    15.9141
_cell_length_b                    12.7222
_cell_length_c                    15.4446
_cell_angle_alpha                 90.0000
_cell_angle_beta                  135.2299
_cell_angle_gamma                 90.0000
loop_
_atom_site_label
_atom_site_type_symbol
_atom_site_fract_x
_atom_site_fract_y
_atom_site_fract_z
_atom_site_U_iso_or_equiv
_atom_site_adp_type
_atom_site_occupancy
C1     C     0.31594   0.91152   0.14901   0.00000  Uiso   1.00
C2     C     0.24734   0.98572   0.15828   0.00000  Uiso   1.00
C3     C     0.14735   0.95967   0.13359   0.00000  Uiso   1.00
C4     C     0.09751   0.03872   0.14746   0.00000  Uiso   1.00
C5     C     0.98358   0.13853   0.15613   0.00000  Uiso   1.00
C6     C     0.31687   0.96367   0.06079   0.00000  Uiso   1.00
C7     C     0.27535   0.91907   0.95414   0.00000  Uiso   1.00
C8     C     0.28405   0.97956   0.88596   0.00000  Uiso   1.00
C9     C     0.27814   0.04510   0.74332   0.00000  Uiso   1.00
C10    C     0.44481   0.91313   0.27491   0.00000  Uiso   1.00
C11    C     0.51089   0.82602   0.34830   0.00000  Uiso   1.00
C12    C     0.62733   0.84396   0.46038   0.00000  Uiso   1.00
C13    C     0.82007   0.83102   0.65021   0.00000  Uiso   1.00
C14    C     0.40525   0.09824   0.21755   0.00000  Uiso   1.00
C15    C     0.29585   0.08714   0.19550   0.00000  Uiso   1.00
C16    C     0.24616   0.16626   0.20942   0.00000  Uiso   1.00
C17    C     0.14611   0.14033   0.18476   0.00000  Uiso   1.00
C18    C     0.36537   0.06509   0.09801   0.00000  Uiso   1.00
C19    C     0.37416   0.12566   0.02997   0.00000  Uiso   1.00
C20    C     0.33265   0.08117   0.92325   0.00000  Uiso   1.00
C21    C     0.49332   0.01455   0.31214   0.00000  Uiso   1.00
C22    C     0.60969   0.03262   0.42413   0.00000  Uiso   1.00
C23    C     0.67593   0.94556   0.49767   0.00000  Uiso   1.00
H24    H     0.27817   0.83256   0.12002   0.00000  Uiso   1.00
H25    H     0.10983   0.88117   0.10477   0.00000  Uiso   1.00
H26    H     0.23782   0.84058   0.92537   0.00000  Uiso   1.00
H27    H     0.47332   0.74755   0.31946   0.00000  Uiso   1.00
H28    H     0.94455   0.97981   0.10424   0.00000  Uiso   1.00
H29    H     0.21446   0.89420   0.72597   0.00000  Uiso   1.00
H30    H     0.71106   0.69803   0.55700   0.00000  Uiso   1.00
H31    H     0.44302   0.17721   0.24653   0.00000  Uiso   1.00
H32    H     0.28372   0.24474   0.23823   0.00000  Uiso   1.00
H33    H     0.41171   0.20414   0.05881   0.00000  Uiso   1.00
H34    H     0.64720   0.11111   0.45291   0.00000  Uiso   1.00
H35    H     0.08568   0.27489   0.21255   0.00000  Uiso   1.00
H36    H     0.35560   0.18928   0.83428   0.00000  Uiso   1.00
H37    H     0.85219   0.99311   0.66531   0.00000  Uiso   1.00
O38    O     0.90732   0.16556   0.15061   0.00000  Uiso   1.00
O39    O     0.26146   0.05324   0.65435   0.00000  Uiso   1.00
O40    O     0.91298   0.79587   0.74463   0.00000  Uiso   1.00
N41    N     0.99964   0.03998   0.13090   0.00000  Uiso   1.00
N42    N     0.25198   0.95995   0.77722   0.00000  Uiso   1.00
N43    N     0.71627   0.77654   0.55415   0.00000  Uiso   1.00
N44    N     0.07559   0.19876   0.18918   0.00000  Uiso   1.00
N45    N     0.32792   0.11873   0.83551   0.00000  Uiso   1.00
N46    N     0.79221   0.93532   0.61243   0.00000  Uiso   1.00
C47    C     0.81594   0.41152   0.14901   0.00000  Uiso   1.00
C48    C     0.74734   0.48572   0.15828   0.00000  Uiso   1.00
C49    C     0.64735   0.45967   0.13359   0.00000  Uiso   1.00
C50    C     0.59751   0.53872   0.14746   0.00000  Uiso   1.00
C51    C     0.48358   0.63853   0.15613   0.00000  Uiso   1.00
C52    C     0.81687   0.46367   0.06079   0.00000  Uiso   1.00
C53    C     0.77535   0.41907   0.95414   0.00000  Uiso   1.00
C54    C     0.78405   0.47956   0.88596   0.00000  Uiso   1.00
C55    C     0.77814   0.54510   0.74332   0.00000  Uiso   1.00
C56    C     0.94481   0.41313   0.27491   0.00000  Uiso   1.00
C57    C     0.01089   0.32602   0.34830   0.00000  Uiso   1.00
C58    C     0.12733   0.34396   0.46038   0.00000  Uiso   1.00
C59    C     0.32007   0.33102   0.65021   0.00000  Uiso   1.00
C60    C     0.90525   0.59824   0.21755   0.00000  Uiso   1.00
C61    C     0.79585   0.58714   0.19550   0.00000  Uiso   1.00
C62    C     0.74616   0.66626   0.20942   0.00000  Uiso   1.00
C63    C     0.64611   0.64033   0.18476   0.00000  Uiso   1.00
C64    C     0.86537   0.56509   0.09801   0.00000  Uiso   1.00
C65    C     0.87416   0.62566   0.02997   0.00000  Uiso   1.00
C66    C     0.83265   0.58117   0.92325   0.00000  Uiso   1.00
C67    C     0.99332   0.51455   0.31214   0.00000  Uiso   1.00
C68    C     0.10969   0.53262   0.42413   0.00000  Uiso   1.00
C69    C     0.17593   0.44556   0.49767   0.00000  Uiso   1.00
H70    H     0.77817   0.33256   0.12002   0.00000  Uiso   1.00
H71    H     0.60983   0.38117   0.10477   0.00000  Uiso   1.00
H72    H     0.73782   0.34058   0.92537   0.00000  Uiso   1.00
H73    H     0.97332   0.24755   0.31946   0.00000  Uiso   1.00
H74    H     0.44455   0.47981   0.10424   0.00000  Uiso   1.00
H75    H     0.71446   0.39420   0.72597   0.00000  Uiso   1.00
H76    H     0.21106   0.19803   0.55700   0.00000  Uiso   1.00
H77    H     0.94302   0.67721   0.24653   0.00000  Uiso   1.00
H78    H     0.78372   0.74474   0.23823   0.00000  Uiso   1.00
H79    H     0.91171   0.70414   0.05881   0.00000  Uiso   1.00
H80    H     0.14720   0.61111   0.45291   0.00000  Uiso   1.00
H81    H     0.58568   0.77489   0.21255   0.00000  Uiso   1.00
H82    H     0.85560   0.68928   0.83428   0.00000  Uiso   1.00
H83    H     0.35219   0.49311   0.66531   0.00000  Uiso   1.00
O84    O     0.40732   0.66556   0.15061   0.00000  Uiso   1.00
O85    O     0.76146   0.55324   0.65435   0.00000  Uiso   1.00
O86    O     0.41298   0.29587   0.74463   0.00000  Uiso   1.00
N87    N     0.49964   0.53998   0.13090   0.00000  Uiso   1.00
N88    N     0.75198   0.45995   0.77722   0.00000  Uiso   1.00
N89    N     0.21627   0.27654   0.55415   0.00000  Uiso   1.00
N90    N     0.57559   0.69876   0.18918   0.00000  Uiso   1.00
N91    N     0.82792   0.61873   0.83551   0.00000  Uiso   1.00
N92    N     0.29221   0.43532   0.61243   0.00000  Uiso   1.00
C93    C     0.68406   0.91152   0.85099   0.00000  Uiso   1.00
C94    C     0.75266   0.98572   0.84172   0.00000  Uiso   1.00
C95    C     0.85265   0.95967   0.86641   0.00000  Uiso   1.00
C96    C     0.90249   0.03872   0.85254   0.00000  Uiso   1.00
C97    C     0.01642   0.13853   0.84387   0.00000  Uiso   1.00
C98    C     0.68313   0.96367   0.93921   0.00000  Uiso   1.00
C99    C     0.72465   0.91907   0.04586   0.00000  Uiso   1.00
C100   C     0.71595   0.97956   0.11404   0.00000  Uiso   1.00
C101   C     0.72186   0.04510   0.25668   0.00000  Uiso   1.00
C102   C     0.55519   0.91313   0.72509   0.00000  Uiso   1.00
C103   C     0.48911   0.82602   0.65170   0.00000  Uiso   1.00
C104   C     0.37267   0.84396   0.53962   0.00000  Uiso   1.00
C105   C     0.17993   0.83102   0.34979   0.00000  Uiso   1.00
C106   C     0.59475   0.09824   0.78245   0.00000  Uiso   1.00
C107   C     0.70415   0.08714   0.80450   0.00000  Uiso   1.00
C108   C     0.75384   0.16626   0.79058   0.00000  Uiso   1.00
C109   C     0.85389   0.14033   0.81524   0.00000  Uiso   1.00
C110   C     0.63463   0.06509   0.90199   0.00000  Uiso   1.00
C111   C     0.62584   0.12566   0.97003   0.00000  Uiso   1.00
C112   C     0.66735   0.08117   0.07675   0.00000  Uiso   1.00
C113   C     0.50668   0.01455   0.68786   0.00000  Uiso   1.00
C114   C     0.39031   0.03262   0.57587   0.00000  Uiso   1.00
C115   C     0.32407   0.94556   0.50233   0.00000  Uiso   1.00
H116   H     0.72183   0.83256   0.87998   0.00000  Uiso   1.00
H117   H     0.89017   0.88117   0.89523   0.00000  Uiso   1.00
H118   H     0.76218   0.84058   0.07463   0.00000  Uiso   1.00
H119   H     0.52668   0.74755   0.68054   0.00000  Uiso   1.00
H120   H     0.05545   0.97981   0.89576   0.00000  Uiso   1.00
H121   H     0.78554   0.89420   0.27403   0.00000  Uiso   1.00
H122   H     0.28894   0.69803   0.44300   0.00000  Uiso   1.00
H123   H     0.55698   0.17721   0.75347   0.00000  Uiso   1.00
H124   H     0.71628   0.24474   0.76177   0.00000  Uiso   1.00
H125   H     0.58829   0.20414   0.94119   0.00000  Uiso   1.00
H126   H     0.35280   0.11111   0.54709   0.00000  Uiso   1.00
H127   H     0.91432   0.27489   0.78745   0.00000  Uiso   1.00
H128   H     0.64440   0.18928   0.16572   0.00000  Uiso   1.00
H129   H     0.14781   0.99311   0.33469   0.00000  Uiso   1.00
O130   O     0.09268   0.16556   0.84939   0.00000  Uiso   1.00
O131   O     0.73854   0.05324   0.34565   0.00000  Uiso   1.00
O132   O     0.08702   0.79587   0.25537   0.00000  Uiso   1.00
N133   N     0.00036   0.03998   0.86910   0.00000  Uiso   1.00
N134   N     0.74802   0.95995   0.22278   0.00000  Uiso   1.00
N135   N     0.28373   0.77654   0.44585   0.00000  Uiso   1.00
N136   N     0.92441   0.19876   0.81082   0.00000  Uiso   1.00
N137   N     0.67208   0.11873   0.16449   0.00000  Uiso   1.00
N138   N     0.20779   0.93532   0.38757   0.00000  Uiso   1.00
C139   C     0.18406   0.41152   0.85099   0.00000  Uiso   1.00
C140   C     0.25266   0.48572   0.84172   0.00000  Uiso   1.00
C141   C     0.35265   0.45967   0.86641   0.00000  Uiso   1.00
C142   C     0.40249   0.53872   0.85254   0.00000  Uiso   1.00
C143   C     0.51642   0.63853   0.84387   0.00000  Uiso   1.00
C144   C     0.18313   0.46367   0.93921   0.00000  Uiso   1.00
C145   C     0.22465   0.41907   0.04586   0.00000  Uiso   1.00
C146   C     0.21595   0.47956   0.11404   0.00000  Uiso   1.00
C147   C     0.22186   0.54510   0.25668   0.00000  Uiso   1.00
C148   C     0.05519   0.41313   0.72509   0.00000  Uiso   1.00
C149   C     0.98911   0.32602   0.65170   0.00000  Uiso   1.00
C150   C     0.87267   0.34396   0.53962   0.00000  Uiso   1.00
C151   C     0.67993   0.33102   0.34979   0.00000  Uiso   1.00
C152   C     0.09475   0.59824   0.78245   0.00000  Uiso   1.00
C153   C     0.20415   0.58714   0.80450   0.00000  Uiso   1.00
C154   C     0.25384   0.66626   0.79058   0.00000  Uiso   1.00
C155   C     0.35389   0.64033   0.81524   0.00000  Uiso   1.00
C156   C     0.13463   0.56509   0.90199   0.00000  Uiso   1.00
C157   C     0.12584   0.62566   0.97003   0.00000  Uiso   1.00
C158   C     0.16735   0.58117   0.07675   0.00000  Uiso   1.00
C159   C     0.00668   0.51455   0.68786   0.00000  Uiso   1.00
C160   C     0.89031   0.53262   0.57587   0.00000  Uiso   1.00
C161   C     0.82407   0.44556   0.50233   0.00000  Uiso   1.00
H162   H     0.22183   0.33256   0.87998   0.00000  Uiso   1.00
H163   H     0.39017   0.38117   0.89523   0.00000  Uiso   1.00
H164   H     0.26218   0.34058   0.07463   0.00000  Uiso   1.00
H165   H     0.02668   0.24755   0.68054   0.00000  Uiso   1.00
H166   H     0.55545   0.47981   0.89576   0.00000  Uiso   1.00
H167   H     0.28554   0.39420   0.27403   0.00000  Uiso   1.00
H168   H     0.78894   0.19803   0.44300   0.00000  Uiso   1.00
H169   H     0.05698   0.67721   0.75347   0.00000  Uiso   1.00
H170   H     0.21628   0.74474   0.76177   0.00000  Uiso   1.00
H171   H     0.08829   0.70414   0.94119   0.00000  Uiso   1.00
H172   H     0.85280   0.61111   0.54709   0.00000  Uiso   1.00
H173   H     0.41432   0.77489   0.78745   0.00000  Uiso   1.00
H174   H     0.14440   0.68928   0.16572   0.00000  Uiso   1.00
H175   H     0.64781   0.49311   0.33469   0.00000  Uiso   1.00
O176   O     0.59268   0.66556   0.84939   0.00000  Uiso   1.00
O177   O     0.23854   0.55324   0.34565   0.00000  Uiso   1.00
O178   O     0.58702   0.29587   0.25537   0.00000  Uiso   1.00
N179   N     0.50036   0.53998   0.86910   0.00000  Uiso   1.00
N180   N     0.24802   0.45995   0.22278   0.00000  Uiso   1.00
N181   N     0.78373   0.27654   0.44585   0.00000  Uiso   1.00
N182   N     0.42441   0.69876   0.81082   0.00000  Uiso   1.00
N183   N     0.17208   0.61873   0.16449   0.00000  Uiso   1.00
N184   N     0.70779   0.43532   0.38757   0.00000  Uiso   1.00
