data_job_01303
_audit_creation_date              2018-12-19
_audit_creation_method            'Materials Studio'
_symmetry_space_group_name_H-M    'P1'
_symmetry_Int_Tables_number       1
_symmetry_cell_setting            triclinic
loop_
_symmetry_equiv_pos_as_xyz
  x,y,z
_cell_length_a                    19.2043
_cell_length_b                    15.9084
_cell_length_c                    27.0826
_cell_angle_alpha                 90.0000
_cell_angle_beta                  140.3500
_cell_angle_gamma                 90.0000
loop_
_atom_site_label
_atom_site_type_symbol
_atom_site_fract_x
_atom_site_fract_y
_atom_site_fract_z
_atom_site_U_iso_or_equiv
_atom_site_adp_type
_atom_site_occupancy
C1     C     0.68787   0.57891   0.47479   0.00000  Uiso   1.00
C2     C     0.77928   0.51390   0.52592   0.00000  Uiso   1.00
C3     C     0.87560   0.52059   0.60517   0.00000  Uiso   1.00
C4     C     0.94892   0.45437   0.64141   0.00000  Uiso   1.00
C5     C     0.09428   0.36415   0.72712   0.00000  Uiso   1.00
C6     C     0.67152   0.60136   0.41163   0.00000  Uiso   1.00
C7     C     0.67722   0.68159   0.39478   0.00000  Uiso   1.00
C8     C     0.65981   0.68899   0.33480   0.00000  Uiso   1.00
C9     C     0.63779   0.73456   0.24303   0.00000  Uiso   1.00
C10    C     0.58466   0.53271   0.43436   0.00000  Uiso   1.00
C11    C     0.51731   0.55524   0.43660   0.00000  Uiso   1.00
C12    C     0.42676   0.50485   0.39575   0.00000  Uiso   1.00
C13    C     0.26988   0.44385   0.33927   0.00000  Uiso   1.00
C14    C     0.64680   0.44940   0.39823   0.00000  Uiso   1.00
C15    C     0.75697   0.44356   0.48433   0.00000  Uiso   1.00
C16    C     0.83017   0.37731   0.52047   0.00000  Uiso   1.00
C17    C     0.92658   0.38390   0.59976   0.00000  Uiso   1.00
C18    C     0.64922   0.53102   0.37004   0.00000  Uiso   1.00
C19    C     0.63178   0.53830   0.31007   0.00000  Uiso   1.00
C20    C     0.63747   0.61852   0.29314   0.00000  Uiso   1.00
C21    C     0.56236   0.46237   0.39277   0.00000  Uiso   1.00
C22    C     0.47188   0.41195   0.35190   0.00000  Uiso   1.00
C23    C     0.40441   0.43439   0.35408   0.00000  Uiso   1.00
H24    H     0.70523   0.63367   0.50716   0.00000  Uiso   1.00
H25    H     0.89284   0.57504   0.63733   0.00000  Uiso   1.00
H26    H     0.69448   0.73601   0.42696   0.00000  Uiso   1.00
H27    H     0.53460   0.60968   0.46879   0.00000  Uiso   1.00
H28    H     0.09102   0.47903   0.76330   0.00000  Uiso   1.00
H29    H     0.67272   0.81845   0.31972   0.00000  Uiso   1.00
H30    H     0.33558   0.55205   0.40790   0.00000  Uiso   1.00
H31    H     0.62943   0.39463   0.36585   0.00000  Uiso   1.00
H32    H     0.81288   0.32288   0.48827   0.00000  Uiso   1.00
H33    H     0.61452   0.48385   0.27790   0.00000  Uiso   1.00
H34    H     0.45464   0.35752   0.31973   0.00000  Uiso   1.00
H35    H     0.02612   0.27437   0.64232   0.00000  Uiso   1.00
H36    H     0.60782   0.61379   0.19873   0.00000  Uiso   1.00
H37    H     0.27069   0.34739   0.28692   0.00000  Uiso   1.00
O38    O     0.18063   0.33382   0.78588   0.00000  Uiso   1.00
O39    O     0.63182   0.77913   0.20391   0.00000  Uiso   1.00
O40    O     0.18951   0.42962   0.31962   0.00000  Uiso   1.00
N41    N     0.05056   0.44070   0.71803   0.00000  Uiso   1.00
N42    N     0.65949   0.75804   0.30331   0.00000  Uiso   1.00
N43    N     0.34428   0.50899   0.38574   0.00000  Uiso   1.00
N44    N     0.01564   0.33057   0.65293   0.00000  Uiso   1.00
N45    N     0.62457   0.64791   0.23822   0.00000  Uiso   1.00
N46    N     0.30936   0.39886   0.32064   0.00000  Uiso   1.00
C47    C     0.18787   0.07891   0.47479   0.00000  Uiso   1.00
C48    C     0.27928   0.01390   0.52592   0.00000  Uiso   1.00
C49    C     0.37560   0.02059   0.60517   0.00000  Uiso   1.00
C50    C     0.44892   0.95437   0.64141   0.00000  Uiso   1.00
C51    C     0.59428   0.86415   0.72712   0.00000  Uiso   1.00
C52    C     0.17152   0.10136   0.41163   0.00000  Uiso   1.00
C53    C     0.17722   0.18159   0.39478   0.00000  Uiso   1.00
C54    C     0.15981   0.18899   0.33480   0.00000  Uiso   1.00
C55    C     0.13779   0.23456   0.24303   0.00000  Uiso   1.00
C56    C     0.08466   0.03271   0.43436   0.00000  Uiso   1.00
C57    C     0.01731   0.05524   0.43660   0.00000  Uiso   1.00
C58    C     0.92676   0.00485   0.39575   0.00000  Uiso   1.00
C59    C     0.76988   0.94385   0.33927   0.00000  Uiso   1.00
C60    C     0.14680   0.94940   0.39823   0.00000  Uiso   1.00
C61    C     0.25697   0.94356   0.48433   0.00000  Uiso   1.00
C62    C     0.33017   0.87731   0.52047   0.00000  Uiso   1.00
C63    C     0.42658   0.88390   0.59976   0.00000  Uiso   1.00
C64    C     0.14922   0.03102   0.37004   0.00000  Uiso   1.00
C65    C     0.13178   0.03830   0.31007   0.00000  Uiso   1.00
C66    C     0.13747   0.11852   0.29314   0.00000  Uiso   1.00
C67    C     0.06236   0.96237   0.39277   0.00000  Uiso   1.00
C68    C     0.97188   0.91195   0.35190   0.00000  Uiso   1.00
C69    C     0.90441   0.93439   0.35408   0.00000  Uiso   1.00
H70    H     0.20523   0.13367   0.50716   0.00000  Uiso   1.00
H71    H     0.39284   0.07504   0.63733   0.00000  Uiso   1.00
H72    H     0.19448   0.23601   0.42696   0.00000  Uiso   1.00
H73    H     0.03460   0.10968   0.46879   0.00000  Uiso   1.00
H74    H     0.59102   0.97903   0.76330   0.00000  Uiso   1.00
H75    H     0.17272   0.31845   0.31972   0.00000  Uiso   1.00
H76    H     0.83558   0.05205   0.40790   0.00000  Uiso   1.00
H77    H     0.12943   0.89463   0.36585   0.00000  Uiso   1.00
H78    H     0.31288   0.82288   0.48827   0.00000  Uiso   1.00
H79    H     0.11452   0.98385   0.27790   0.00000  Uiso   1.00
H80    H     0.95464   0.85752   0.31973   0.00000  Uiso   1.00
H81    H     0.52612   0.77437   0.64232   0.00000  Uiso   1.00
H82    H     0.10782   0.11379   0.19873   0.00000  Uiso   1.00
H83    H     0.77069   0.84739   0.28692   0.00000  Uiso   1.00
O84    O     0.68063   0.83382   0.78588   0.00000  Uiso   1.00
O85    O     0.13182   0.27913   0.20391   0.00000  Uiso   1.00
O86    O     0.68951   0.92962   0.31962   0.00000  Uiso   1.00
N87    N     0.55056   0.94070   0.71803   0.00000  Uiso   1.00
N88    N     0.15949   0.25804   0.30331   0.00000  Uiso   1.00
N89    N     0.84428   0.00899   0.38574   0.00000  Uiso   1.00
N90    N     0.51564   0.83057   0.65293   0.00000  Uiso   1.00
N91    N     0.12457   0.14791   0.23822   0.00000  Uiso   1.00
N92    N     0.80936   0.89886   0.32064   0.00000  Uiso   1.00
C93    C     0.31213   0.57891   0.02521   0.00000  Uiso   1.00
C94    C     0.22072   0.51390   0.97408   0.00000  Uiso   1.00
C95    C     0.12440   0.52059   0.89483   0.00000  Uiso   1.00
C96    C     0.05108   0.45437   0.85859   0.00000  Uiso   1.00
C97    C     0.90572   0.36415   0.77288   0.00000  Uiso   1.00
C98    C     0.32848   0.60136   0.08837   0.00000  Uiso   1.00
C99    C     0.32278   0.68159   0.10522   0.00000  Uiso   1.00
C100   C     0.34019   0.68899   0.16520   0.00000  Uiso   1.00
C101   C     0.36221   0.73456   0.25697   0.00000  Uiso   1.00
C102   C     0.41534   0.53271   0.06564   0.00000  Uiso   1.00
C103   C     0.48269   0.55524   0.06340   0.00000  Uiso   1.00
C104   C     0.57324   0.50485   0.10425   0.00000  Uiso   1.00
C105   C     0.73012   0.44385   0.16073   0.00000  Uiso   1.00
C106   C     0.35320   0.44940   0.10177   0.00000  Uiso   1.00
C107   C     0.24303   0.44356   0.01567   0.00000  Uiso   1.00
C108   C     0.16983   0.37731   0.97953   0.00000  Uiso   1.00
C109   C     0.07342   0.38390   0.90024   0.00000  Uiso   1.00
C110   C     0.35078   0.53102   0.12996   0.00000  Uiso   1.00
C111   C     0.36822   0.53830   0.18993   0.00000  Uiso   1.00
C112   C     0.36253   0.61852   0.20686   0.00000  Uiso   1.00
C113   C     0.43764   0.46237   0.10723   0.00000  Uiso   1.00
C114   C     0.52812   0.41195   0.14810   0.00000  Uiso   1.00
C115   C     0.59559   0.43439   0.14592   0.00000  Uiso   1.00
H116   H     0.29477   0.63367   0.99284   0.00000  Uiso   1.00
H117   H     0.10716   0.57504   0.86267   0.00000  Uiso   1.00
H118   H     0.30552   0.73601   0.07304   0.00000  Uiso   1.00
H119   H     0.46540   0.60968   0.03121   0.00000  Uiso   1.00
H120   H     0.90898   0.47903   0.73670   0.00000  Uiso   1.00
H121   H     0.32728   0.81845   0.18028   0.00000  Uiso   1.00
H122   H     0.66442   0.55205   0.09210   0.00000  Uiso   1.00
H123   H     0.37057   0.39463   0.13415   0.00000  Uiso   1.00
H124   H     0.18712   0.32288   0.01173   0.00000  Uiso   1.00
H125   H     0.38548   0.48385   0.22210   0.00000  Uiso   1.00
H126   H     0.54536   0.35752   0.18027   0.00000  Uiso   1.00
H127   H     0.97388   0.27437   0.85768   0.00000  Uiso   1.00
H128   H     0.39218   0.61379   0.30127   0.00000  Uiso   1.00
H129   H     0.72931   0.34739   0.21308   0.00000  Uiso   1.00
O130   O     0.81937   0.33382   0.71412   0.00000  Uiso   1.00
O131   O     0.36818   0.77913   0.29609   0.00000  Uiso   1.00
O132   O     0.81049   0.42962   0.18038   0.00000  Uiso   1.00
N133   N     0.94944   0.44070   0.78197   0.00000  Uiso   1.00
N134   N     0.34051   0.75804   0.19669   0.00000  Uiso   1.00
N135   N     0.65572   0.50899   0.11426   0.00000  Uiso   1.00
N136   N     0.98436   0.33057   0.84707   0.00000  Uiso   1.00
N137   N     0.37543   0.64791   0.26178   0.00000  Uiso   1.00
N138   N     0.69064   0.39886   0.17936   0.00000  Uiso   1.00
C139   C     0.81213   0.07891   0.02521   0.00000  Uiso   1.00
C140   C     0.72072   0.01390   0.97408   0.00000  Uiso   1.00
C141   C     0.62440   0.02059   0.89483   0.00000  Uiso   1.00
C142   C     0.55108   0.95437   0.85859   0.00000  Uiso   1.00
C143   C     0.40572   0.86415   0.77288   0.00000  Uiso   1.00
C144   C     0.82848   0.10136   0.08837   0.00000  Uiso   1.00
C145   C     0.82278   0.18159   0.10522   0.00000  Uiso   1.00
C146   C     0.84019   0.18899   0.16520   0.00000  Uiso   1.00
C147   C     0.86221   0.23456   0.25697   0.00000  Uiso   1.00
C148   C     0.91534   0.03271   0.06564   0.00000  Uiso   1.00
C149   C     0.98269   0.05524   0.06340   0.00000  Uiso   1.00
C150   C     0.07324   0.00485   0.10425   0.00000  Uiso   1.00
C151   C     0.23012   0.94385   0.16073   0.00000  Uiso   1.00
C152   C     0.85320   0.94940   0.10177   0.00000  Uiso   1.00
C153   C     0.74303   0.94356   0.01567   0.00000  Uiso   1.00
C154   C     0.66983   0.87731   0.97953   0.00000  Uiso   1.00
C155   C     0.57342   0.88390   0.90024   0.00000  Uiso   1.00
C156   C     0.85078   0.03102   0.12996   0.00000  Uiso   1.00
C157   C     0.86822   0.03830   0.18993   0.00000  Uiso   1.00
C158   C     0.86253   0.11852   0.20686   0.00000  Uiso   1.00
C159   C     0.93764   0.96237   0.10723   0.00000  Uiso   1.00
C160   C     0.02812   0.91195   0.14810   0.00000  Uiso   1.00
C161   C     0.09559   0.93439   0.14592   0.00000  Uiso   1.00
H162   H     0.79477   0.13367   0.99284   0.00000  Uiso   1.00
H163   H     0.60716   0.07504   0.86267   0.00000  Uiso   1.00
H164   H     0.80552   0.23601   0.07304   0.00000  Uiso   1.00
H165   H     0.96540   0.10968   0.03121   0.00000  Uiso   1.00
H166   H     0.40898   0.97903   0.73670   0.00000  Uiso   1.00
H167   H     0.82728   0.31845   0.18028   0.00000  Uiso   1.00
H168   H     0.16442   0.05205   0.09210   0.00000  Uiso   1.00
H169   H     0.87057   0.89463   0.13415   0.00000  Uiso   1.00
H170   H     0.68712   0.82288   0.01173   0.00000  Uiso   1.00
H171   H     0.88548   0.98385   0.22210   0.00000  Uiso   1.00
H172   H     0.04536   0.85752   0.18027   0.00000  Uiso   1.00
H173   H     0.47388   0.77437   0.85768   0.00000  Uiso   1.00
H174   H     0.89218   0.11379   0.30127   0.00000  Uiso   1.00
H175   H     0.22931   0.84739   0.21308   0.00000  Uiso   1.00
O176   O     0.31937   0.83382   0.71412   0.00000  Uiso   1.00
O177   O     0.86818   0.27913   0.29609   0.00000  Uiso   1.00
O178   O     0.31049   0.92962   0.18038   0.00000  Uiso   1.00
N179   N     0.44944   0.94070   0.78197   0.00000  Uiso   1.00
N180   N     0.84051   0.25804   0.19669   0.00000  Uiso   1.00
N181   N     0.15572   0.00899   0.11426   0.00000  Uiso   1.00
N182   N     0.48436   0.83057   0.84707   0.00000  Uiso   1.00
N183   N     0.87543   0.14791   0.26178   0.00000  Uiso   1.00
N184   N     0.19064   0.89886   0.17936   0.00000  Uiso   1.00
C185   C     0.31213   0.42109   0.52521   0.00000  Uiso   1.00
C186   C     0.22072   0.48610   0.47408   0.00000  Uiso   1.00
C187   C     0.12440   0.47941   0.39483   0.00000  Uiso   1.00
C188   C     0.05108   0.54563   0.35859   0.00000  Uiso   1.00
C189   C     0.90572   0.63585   0.27288   0.00000  Uiso   1.00
C190   C     0.32848   0.39864   0.58837   0.00000  Uiso   1.00
C191   C     0.32278   0.31841   0.60522   0.00000  Uiso   1.00
C192   C     0.34019   0.31101   0.66520   0.00000  Uiso   1.00
C193   C     0.36221   0.26544   0.75697   0.00000  Uiso   1.00
C194   C     0.41534   0.46729   0.56564   0.00000  Uiso   1.00
C195   C     0.48269   0.44476   0.56340   0.00000  Uiso   1.00
C196   C     0.57324   0.49515   0.60425   0.00000  Uiso   1.00
C197   C     0.73012   0.55615   0.66073   0.00000  Uiso   1.00
C198   C     0.35320   0.55060   0.60177   0.00000  Uiso   1.00
C199   C     0.24303   0.55644   0.51567   0.00000  Uiso   1.00
C200   C     0.16983   0.62269   0.47953   0.00000  Uiso   1.00
C201   C     0.07342   0.61610   0.40024   0.00000  Uiso   1.00
C202   C     0.35078   0.46898   0.62996   0.00000  Uiso   1.00
C203   C     0.36822   0.46170   0.68993   0.00000  Uiso   1.00
C204   C     0.36253   0.38148   0.70686   0.00000  Uiso   1.00
C205   C     0.43764   0.53763   0.60723   0.00000  Uiso   1.00
C206   C     0.52812   0.58805   0.64810   0.00000  Uiso   1.00
C207   C     0.59559   0.56561   0.64592   0.00000  Uiso   1.00
H208   H     0.29477   0.36633   0.49284   0.00000  Uiso   1.00
H209   H     0.10716   0.42496   0.36267   0.00000  Uiso   1.00
H210   H     0.30552   0.26399   0.57304   0.00000  Uiso   1.00
H211   H     0.46540   0.39032   0.53121   0.00000  Uiso   1.00
H212   H     0.90898   0.52097   0.23670   0.00000  Uiso   1.00
H213   H     0.32728   0.18155   0.68028   0.00000  Uiso   1.00
H214   H     0.66442   0.44795   0.59210   0.00000  Uiso   1.00
H215   H     0.37057   0.60537   0.63415   0.00000  Uiso   1.00
H216   H     0.18712   0.67712   0.51173   0.00000  Uiso   1.00
H217   H     0.38548   0.51615   0.72210   0.00000  Uiso   1.00
H218   H     0.54536   0.64248   0.68027   0.00000  Uiso   1.00
H219   H     0.97388   0.72563   0.35768   0.00000  Uiso   1.00
H220   H     0.39218   0.38621   0.80127   0.00000  Uiso   1.00
H221   H     0.72931   0.65261   0.71308   0.00000  Uiso   1.00
O222   O     0.81937   0.66618   0.21412   0.00000  Uiso   1.00
O223   O     0.36818   0.22087   0.79609   0.00000  Uiso   1.00
O224   O     0.81049   0.57038   0.68038   0.00000  Uiso   1.00
N225   N     0.94944   0.55930   0.28197   0.00000  Uiso   1.00
N226   N     0.34051   0.24196   0.69669   0.00000  Uiso   1.00
N227   N     0.65572   0.49101   0.61426   0.00000  Uiso   1.00
N228   N     0.98436   0.66943   0.34707   0.00000  Uiso   1.00
N229   N     0.37543   0.35209   0.76178   0.00000  Uiso   1.00
N230   N     0.69064   0.60114   0.67936   0.00000  Uiso   1.00
C231   C     0.81213   0.92109   0.52521   0.00000  Uiso   1.00
C232   C     0.72072   0.98610   0.47408   0.00000  Uiso   1.00
C233   C     0.62440   0.97941   0.39483   0.00000  Uiso   1.00
C234   C     0.55108   0.04563   0.35859   0.00000  Uiso   1.00
C235   C     0.40572   0.13585   0.27288   0.00000  Uiso   1.00
C236   C     0.82848   0.89864   0.58837   0.00000  Uiso   1.00
C237   C     0.82278   0.81841   0.60522   0.00000  Uiso   1.00
C238   C     0.84019   0.81101   0.66520   0.00000  Uiso   1.00
C239   C     0.86221   0.76544   0.75697   0.00000  Uiso   1.00
C240   C     0.91534   0.96729   0.56564   0.00000  Uiso   1.00
C241   C     0.98269   0.94476   0.56340   0.00000  Uiso   1.00
C242   C     0.07324   0.99515   0.60425   0.00000  Uiso   1.00
C243   C     0.23012   0.05615   0.66073   0.00000  Uiso   1.00
C244   C     0.85320   0.05060   0.60177   0.00000  Uiso   1.00
C245   C     0.74303   0.05644   0.51567   0.00000  Uiso   1.00
C246   C     0.66983   0.12269   0.47953   0.00000  Uiso   1.00
C247   C     0.57342   0.11610   0.40024   0.00000  Uiso   1.00
C248   C     0.85078   0.96898   0.62996   0.00000  Uiso   1.00
C249   C     0.86822   0.96170   0.68993   0.00000  Uiso   1.00
C250   C     0.86253   0.88148   0.70686   0.00000  Uiso   1.00
C251   C     0.93764   0.03763   0.60723   0.00000  Uiso   1.00
C252   C     0.02812   0.08805   0.64810   0.00000  Uiso   1.00
C253   C     0.09559   0.06561   0.64592   0.00000  Uiso   1.00
H254   H     0.79477   0.86633   0.49284   0.00000  Uiso   1.00
H255   H     0.60716   0.92496   0.36267   0.00000  Uiso   1.00
H256   H     0.80552   0.76399   0.57304   0.00000  Uiso   1.00
H257   H     0.96540   0.89032   0.53121   0.00000  Uiso   1.00
H258   H     0.40898   0.02097   0.23670   0.00000  Uiso   1.00
H259   H     0.82728   0.68155   0.68028   0.00000  Uiso   1.00
H260   H     0.16442   0.94795   0.59210   0.00000  Uiso   1.00
H261   H     0.87057   0.10537   0.63415   0.00000  Uiso   1.00
H262   H     0.68712   0.17712   0.51173   0.00000  Uiso   1.00
H263   H     0.88548   0.01615   0.72210   0.00000  Uiso   1.00
H264   H     0.04536   0.14248   0.68027   0.00000  Uiso   1.00
H265   H     0.47388   0.22563   0.35768   0.00000  Uiso   1.00
H266   H     0.89218   0.88621   0.80127   0.00000  Uiso   1.00
H267   H     0.22931   0.15261   0.71308   0.00000  Uiso   1.00
O268   O     0.31937   0.16618   0.21412   0.00000  Uiso   1.00
O269   O     0.86818   0.72087   0.79609   0.00000  Uiso   1.00
O270   O     0.31049   0.07038   0.68038   0.00000  Uiso   1.00
N271   N     0.44944   0.05930   0.28197   0.00000  Uiso   1.00
N272   N     0.84051   0.74196   0.69669   0.00000  Uiso   1.00
N273   N     0.15572   0.99101   0.61426   0.00000  Uiso   1.00
N274   N     0.48436   0.16943   0.34707   0.00000  Uiso   1.00
N275   N     0.87543   0.85209   0.76178   0.00000  Uiso   1.00
N276   N     0.19064   0.10114   0.67936   0.00000  Uiso   1.00
C277   C     0.68787   0.42109   0.97479   0.00000  Uiso   1.00
C278   C     0.77928   0.48610   0.02592   0.00000  Uiso   1.00
C279   C     0.87560   0.47941   0.10517   0.00000  Uiso   1.00
C280   C     0.94892   0.54563   0.14141   0.00000  Uiso   1.00
C281   C     0.09428   0.63585   0.22712   0.00000  Uiso   1.00
C282   C     0.67152   0.39864   0.91163   0.00000  Uiso   1.00
C283   C     0.67722   0.31841   0.89478   0.00000  Uiso   1.00
C284   C     0.65981   0.31101   0.83480   0.00000  Uiso   1.00
C285   C     0.63779   0.26544   0.74303   0.00000  Uiso   1.00
C286   C     0.58466   0.46729   0.93436   0.00000  Uiso   1.00
C287   C     0.51731   0.44476   0.93660   0.00000  Uiso   1.00
C288   C     0.42676   0.49515   0.89575   0.00000  Uiso   1.00
C289   C     0.26988   0.55615   0.83927   0.00000  Uiso   1.00
C290   C     0.64680   0.55060   0.89823   0.00000  Uiso   1.00
C291   C     0.75697   0.55644   0.98433   0.00000  Uiso   1.00
C292   C     0.83017   0.62269   0.02047   0.00000  Uiso   1.00
C293   C     0.92658   0.61610   0.09976   0.00000  Uiso   1.00
C294   C     0.64922   0.46898   0.87004   0.00000  Uiso   1.00
C295   C     0.63178   0.46170   0.81007   0.00000  Uiso   1.00
C296   C     0.63747   0.38148   0.79314   0.00000  Uiso   1.00
C297   C     0.56236   0.53763   0.89277   0.00000  Uiso   1.00
C298   C     0.47188   0.58805   0.85190   0.00000  Uiso   1.00
C299   C     0.40441   0.56561   0.85408   0.00000  Uiso   1.00
H300   H     0.70523   0.36633   0.00716   0.00000  Uiso   1.00
H301   H     0.89284   0.42496   0.13733   0.00000  Uiso   1.00
H302   H     0.69448   0.26399   0.92696   0.00000  Uiso   1.00
H303   H     0.53460   0.39032   0.96879   0.00000  Uiso   1.00
H304   H     0.09102   0.52097   0.26330   0.00000  Uiso   1.00
H305   H     0.67272   0.18155   0.81972   0.00000  Uiso   1.00
H306   H     0.33558   0.44795   0.90790   0.00000  Uiso   1.00
H307   H     0.62943   0.60537   0.86585   0.00000  Uiso   1.00
H308   H     0.81288   0.67712   0.98827   0.00000  Uiso   1.00
H309   H     0.61452   0.51615   0.77790   0.00000  Uiso   1.00
H310   H     0.45464   0.64248   0.81973   0.00000  Uiso   1.00
H311   H     0.02612   0.72563   0.14232   0.00000  Uiso   1.00
H312   H     0.60782   0.38621   0.69873   0.00000  Uiso   1.00
H313   H     0.27069   0.65261   0.78692   0.00000  Uiso   1.00
O314   O     0.18063   0.66618   0.28588   0.00000  Uiso   1.00
O315   O     0.63182   0.22087   0.70391   0.00000  Uiso   1.00
O316   O     0.18951   0.57038   0.81962   0.00000  Uiso   1.00
N317   N     0.05056   0.55930   0.21803   0.00000  Uiso   1.00
N318   N     0.65949   0.24196   0.80331   0.00000  Uiso   1.00
N319   N     0.34428   0.49101   0.88574   0.00000  Uiso   1.00
N320   N     0.01564   0.66943   0.15293   0.00000  Uiso   1.00
N321   N     0.62457   0.35209   0.73822   0.00000  Uiso   1.00
N322   N     0.30936   0.60114   0.82064   0.00000  Uiso   1.00
C323   C     0.18787   0.92109   0.97479   0.00000  Uiso   1.00
C324   C     0.27928   0.98610   0.02592   0.00000  Uiso   1.00
C325   C     0.37560   0.97941   0.10517   0.00000  Uiso   1.00
C326   C     0.44892   0.04563   0.14141   0.00000  Uiso   1.00
C327   C     0.59428   0.13585   0.22712   0.00000  Uiso   1.00
C328   C     0.17152   0.89864   0.91163   0.00000  Uiso   1.00
C329   C     0.17722   0.81841   0.89478   0.00000  Uiso   1.00
C330   C     0.15981   0.81101   0.83480   0.00000  Uiso   1.00
C331   C     0.13779   0.76544   0.74303   0.00000  Uiso   1.00
C332   C     0.08466   0.96729   0.93436   0.00000  Uiso   1.00
C333   C     0.01731   0.94476   0.93660   0.00000  Uiso   1.00
C334   C     0.92676   0.99515   0.89575   0.00000  Uiso   1.00
C335   C     0.76988   0.05615   0.83927   0.00000  Uiso   1.00
C336   C     0.14680   0.05060   0.89823   0.00000  Uiso   1.00
C337   C     0.25697   0.05644   0.98433   0.00000  Uiso   1.00
C338   C     0.33017   0.12269   0.02047   0.00000  Uiso   1.00
C339   C     0.42658   0.11610   0.09976   0.00000  Uiso   1.00
C340   C     0.14922   0.96898   0.87004   0.00000  Uiso   1.00
C341   C     0.13178   0.96170   0.81007   0.00000  Uiso   1.00
C342   C     0.13747   0.88148   0.79314   0.00000  Uiso   1.00
C343   C     0.06236   0.03763   0.89277   0.00000  Uiso   1.00
C344   C     0.97188   0.08805   0.85190   0.00000  Uiso   1.00
C345   C     0.90441   0.06561   0.85408   0.00000  Uiso   1.00
H346   H     0.20523   0.86633   0.00716   0.00000  Uiso   1.00
H347   H     0.39284   0.92496   0.13733   0.00000  Uiso   1.00
H348   H     0.19448   0.76399   0.92696   0.00000  Uiso   1.00
H349   H     0.03460   0.89032   0.96879   0.00000  Uiso   1.00
H350   H     0.59102   0.02097   0.26330   0.00000  Uiso   1.00
H351   H     0.17272   0.68155   0.81972   0.00000  Uiso   1.00
H352   H     0.83558   0.94795   0.90790   0.00000  Uiso   1.00
H353   H     0.12943   0.10537   0.86585   0.00000  Uiso   1.00
H354   H     0.31288   0.17712   0.98827   0.00000  Uiso   1.00
H355   H     0.11452   0.01615   0.77790   0.00000  Uiso   1.00
H356   H     0.95464   0.14248   0.81973   0.00000  Uiso   1.00
H357   H     0.52612   0.22563   0.14232   0.00000  Uiso   1.00
H358   H     0.10782   0.88621   0.69873   0.00000  Uiso   1.00
H359   H     0.77069   0.15261   0.78692   0.00000  Uiso   1.00
O360   O     0.68063   0.16618   0.28588   0.00000  Uiso   1.00
O361   O     0.13182   0.72087   0.70391   0.00000  Uiso   1.00
O362   O     0.68951   0.07038   0.81962   0.00000  Uiso   1.00
N363   N     0.55056   0.05930   0.21803   0.00000  Uiso   1.00
N364   N     0.15949   0.74196   0.80331   0.00000  Uiso   1.00
N365   N     0.84428   0.99101   0.88574   0.00000  Uiso   1.00
N366   N     0.51564   0.16943   0.15293   0.00000  Uiso   1.00
N367   N     0.12457   0.85209   0.73822   0.00000  Uiso   1.00
N368   N     0.80936   0.10114   0.82064   0.00000  Uiso   1.00
