data_job_05941
_audit_creation_date              2018-12-19
_audit_creation_method            'Materials Studio'
_symmetry_space_group_name_H-M    'P1'
_symmetry_Int_Tables_number       1
_symmetry_cell_setting            triclinic
loop_
_symmetry_equiv_pos_as_xyz
  x,y,z
_cell_length_a                    7.5036
_cell_length_b                    23.7635
_cell_length_c                    23.7968
_cell_angle_alpha                 118.9370
_cell_angle_beta                  83.7551
_cell_angle_gamma                 84.3885
loop_
_atom_site_label
_atom_site_type_symbol
_atom_site_fract_x
_atom_site_fract_y
_atom_site_fract_z
_atom_site_U_iso_or_equiv
_atom_site_adp_type
_atom_site_occupancy
C1     C     0.70254   0.66513   0.94359   0.00000  Uiso   1.00
C2     C     0.82481   0.62590   0.87666   0.00000  Uiso   1.00
C3     C     0.76613   0.59278   0.81750   0.00000  Uiso   1.00
C4     C     0.89934   0.55977   0.76169   0.00000  Uiso   1.00
C5     C     0.06103   0.49880   0.65727   0.00000  Uiso   1.00
C6     C     0.76676   0.63606   0.98420   0.00000  Uiso   1.00
C7     C     0.65925   0.61150   0.01545   0.00000  Uiso   1.00
C8     C     0.74360   0.58705   0.05018   0.00000  Uiso   1.00
C9     C     0.81513   0.54190   0.11275   0.00000  Uiso   1.00
C10    C     0.74968   0.73361   0.97410   0.00000  Uiso   1.00
C11    C     0.62782   0.79107   0.99688   0.00000  Uiso   1.00
C12    C     0.69778   0.84874   0.02312   0.00000  Uiso   1.00
C13    C     0.74281   0.95505   0.07001   0.00000  Uiso   1.00
C14    C     0.04347   0.66539   0.94970   0.00000  Uiso   1.00
C15    C     0.00999   0.62604   0.87998   0.00000  Uiso   1.00
C16    C     0.14333   0.59307   0.82426   0.00000  Uiso   1.00
C17    C     0.08485   0.55991   0.76502   0.00000  Uiso   1.00
C18    C     0.95193   0.63620   0.98752   0.00000  Uiso   1.00
C19    C     0.03645   0.61178   0.02221   0.00000  Uiso   1.00
C20    C     0.92911   0.58718   0.05351   0.00000  Uiso   1.00
C21    C     0.93486   0.73375   0.97742   0.00000  Uiso   1.00
C22    C     0.00503   0.79135   0.00364   0.00000  Uiso   1.00
C23    C     0.88330   0.84888   0.02645   0.00000  Uiso   1.00
H24    H     0.55837   0.66502   0.94101   0.00000  Uiso   1.00
H25    H     0.62280   0.59268   0.81495   0.00000  Uiso   1.00
H26    H     0.51595   0.61140   0.01288   0.00000  Uiso   1.00
H27    H     0.48453   0.79094   0.99431   0.00000  Uiso   1.00
H28    H     0.77592   0.51252   0.67665   0.00000  Uiso   1.00
H29    H     0.55059   0.55201   0.09402   0.00000  Uiso   1.00
H30    H     0.48432   0.93061   0.05485   0.00000  Uiso   1.00
H31    H     0.18764   0.66550   0.95229   0.00000  Uiso   1.00
H32    H     0.28662   0.59318   0.82684   0.00000  Uiso   1.00
H33    H     0.17975   0.61190   0.02477   0.00000  Uiso   1.00
H34    H     0.14833   0.79144   0.00620   0.00000  Uiso   1.00
H35    H     0.31469   0.51292   0.68631   0.00000  Uiso   1.00
H36    H     0.08936   0.55242   0.10368   0.00000  Uiso   1.00
H37    H     0.02310   0.93101   0.06451   0.00000  Uiso   1.00
O38    O     0.09906   0.46512   0.59875   0.00000  Uiso   1.00
O39    O     0.80343   0.51695   0.14633   0.00000  Uiso   1.00
O40    O     0.71649   0.01365   0.09495   0.00000  Uiso   1.00
N41    N     0.88913   0.52255   0.69614   0.00000  Uiso   1.00
N42    N     0.67847   0.55946   0.08634   0.00000  Uiso   1.00
N43    N     0.61651   0.91342   0.04974   0.00000  Uiso   1.00
N44    N     0.17904   0.52277   0.70133   0.00000  Uiso   1.00
N45    N     0.96838   0.55968   0.09154   0.00000  Uiso   1.00
N46    N     0.90642   0.91364   0.05494   0.00000  Uiso   1.00
C47    C     0.64727   0.05628   0.72175   0.00000  Uiso   1.00
C48    C     0.70330   0.12333   0.74933   0.00000  Uiso   1.00
C49    C     0.58602   0.18240   0.77549   0.00000  Uiso   1.00
C50    C     0.66400   0.23835   0.79815   0.00000  Uiso   1.00
C51    C     0.72233   0.34293   0.84147   0.00000  Uiso   1.00
C52    C     0.75259   0.01576   0.65200   0.00000  Uiso   1.00
C53    C     0.67675   0.98437   0.59633   0.00000  Uiso   1.00
C54    C     0.79623   0.94975   0.53706   0.00000  Uiso   1.00
C55    C     0.93108   0.88729   0.42928   0.00000  Uiso   1.00
C56    C     0.72377   0.02585   0.75960   0.00000  Uiso   1.00
C57    C     0.62371   0.00293   0.79437   0.00000  Uiso   1.00
C58    C     0.71894   0.97679   0.82568   0.00000  Uiso   1.00
C59    C     0.80904   0.92999   0.88496   0.00000  Uiso   1.00
C60    C     0.99431   0.05059   0.71548   0.00000  Uiso   1.00
C61    C     0.89180   0.12024   0.74592   0.00000  Uiso   1.00
C62    C     0.96998   0.17611   0.76855   0.00000  Uiso   1.00
C63    C     0.85284   0.23526   0.79474   0.00000  Uiso   1.00
C64    C     0.94108   0.01267   0.64860   0.00000  Uiso   1.00
C65    C     0.06070   0.97808   0.58939   0.00000  Uiso   1.00
C66    C     0.98507   0.94666   0.53364   0.00000  Uiso   1.00
C67    C     0.91226   0.02276   0.75619   0.00000  Uiso   1.00
C68    C     0.00767   0.99665   0.78744   0.00000  Uiso   1.00
C69    C     0.90777   0.97370   0.82226   0.00000  Uiso   1.00
H70    H     0.50053   0.05868   0.72439   0.00000  Uiso   1.00
H71    H     0.44015   0.18477   0.77811   0.00000  Uiso   1.00
H72    H     0.53087   0.98677   0.59898   0.00000  Uiso   1.00
H73    H     0.47784   0.00533   0.79700   0.00000  Uiso   1.00
H74    H     0.45636   0.32320   0.83614   0.00000  Uiso   1.00
H75    H     0.64764   0.90568   0.45844   0.00000  Uiso   1.00
H76    H     0.53581   0.94482   0.87600   0.00000  Uiso   1.00
H77    H     0.14107   0.04819   0.71282   0.00000  Uiso   1.00
H78    H     0.11585   0.17371   0.76591   0.00000  Uiso   1.00
H79    H     0.20657   0.97570   0.58678   0.00000  Uiso   1.00
H80    H     0.15354   0.99426   0.78480   0.00000  Uiso   1.00
H81    H     0.00478   0.31422   0.82624   0.00000  Uiso   1.00
H82    H     0.19606   0.89670   0.44853   0.00000  Uiso   1.00
H83    H     0.08424   0.93584   0.86609   0.00000  Uiso   1.00
O84    O     0.70242   0.40147   0.86630   0.00000  Uiso   1.00
O85    O     0.95338   0.85369   0.37077   0.00000  Uiso   1.00
O86    O     0.80666   0.90504   0.91860   0.00000  Uiso   1.00
N87    N     0.58889   0.30386   0.82654   0.00000  Uiso   1.00
N88    N     0.76772   0.91352   0.47340   0.00000  Uiso   1.00
N89    N     0.66318   0.95009   0.86377   0.00000  Uiso   1.00
N90    N     0.88399   0.29903   0.82121   0.00000  Uiso   1.00
N91    N     0.06282   0.90868   0.46808   0.00000  Uiso   1.00
N92    N     0.95828   0.94526   0.85845   0.00000  Uiso   1.00
C93    C     0.36775   0.27806   0.33466   0.00000  Uiso   1.00
C94    C     0.45022   0.25056   0.37400   0.00000  Uiso   1.00
C95    C     0.35810   0.22428   0.40701   0.00000  Uiso   1.00
C96    C     0.45779   0.20173   0.44016   0.00000  Uiso   1.00
C97    C     0.55766   0.15851   0.50126   0.00000  Uiso   1.00
C98    C     0.40402   0.34790   0.36380   0.00000  Uiso   1.00
C99    C     0.27305   0.40346   0.38821   0.00000  Uiso   1.00
C100   C     0.33386   0.46286   0.41276   0.00000  Uiso   1.00
C101   C     0.36201   0.57076   0.45797   0.00000  Uiso   1.00
C102   C     0.48260   0.24031   0.26630   0.00000  Uiso   1.00
C103   C     0.41770   0.20541   0.20874   0.00000  Uiso   1.00
C104   C     0.54467   0.17423   0.15120   0.00000  Uiso   1.00
C105   C     0.69483   0.11508   0.04504   0.00000  Uiso   1.00
C106   C     0.70863   0.28476   0.33483   0.00000  Uiso   1.00
C107   C     0.63537   0.25420   0.37410   0.00000  Uiso   1.00
C108   C     0.73523   0.23169   0.40720   0.00000  Uiso   1.00
C109   C     0.64327   0.20537   0.44025   0.00000  Uiso   1.00
C110   C     0.58916   0.35155   0.36389   0.00000  Uiso   1.00
C111   C     0.65018   0.41087   0.38840   0.00000  Uiso   1.00
C112   C     0.51934   0.46651   0.41285   0.00000  Uiso   1.00
C113   C     0.66776   0.24394   0.26639   0.00000  Uiso   1.00
C114   C     0.79484   0.21282   0.20893   0.00000  Uiso   1.00
C115   C     0.73015   0.17788   0.15129   0.00000  Uiso   1.00
H116   H     0.22361   0.27523   0.33459   0.00000  Uiso   1.00
H117   H     0.21481   0.22147   0.40693   0.00000  Uiso   1.00
H118   H     0.12979   0.40063   0.38813   0.00000  Uiso   1.00
H119   H     0.27442   0.20261   0.20869   0.00000  Uiso   1.00
H120   H     0.28669   0.16350   0.48720   0.00000  Uiso   1.00
H121   H     0.10741   0.54126   0.44753   0.00000  Uiso   1.00
H122   H     0.41240   0.12369   0.06914   0.00000  Uiso   1.00
H123   H     0.85278   0.28759   0.33490   0.00000  Uiso   1.00
H124   H     0.87851   0.23451   0.40726   0.00000  Uiso   1.00
H125   H     0.79347   0.41367   0.38846   0.00000  Uiso   1.00
H126   H     0.93811   0.21564   0.20902   0.00000  Uiso   1.00
H127   H     0.82537   0.17408   0.48747   0.00000  Uiso   1.00
H128   H     0.64609   0.55185   0.44780   0.00000  Uiso   1.00
H129   H     0.95108   0.13428   0.06941   0.00000  Uiso   1.00
O130   O     0.56159   0.13367   0.53495   0.00000  Uiso   1.00
O131   O     0.32638   0.62928   0.48290   0.00000  Uiso   1.00
O132   O     0.72652   0.08143   0.98645   0.00000  Uiso   1.00
N133   N     0.40995   0.17327   0.47732   0.00000  Uiso   1.00
N134   N     0.24233   0.52645   0.44025   0.00000  Uiso   1.00
N135   N     0.52746   0.13607   0.08648   0.00000  Uiso   1.00
N136   N     0.69981   0.17896   0.47747   0.00000  Uiso   1.00
N137   N     0.53219   0.53215   0.44039   0.00000  Uiso   1.00
N138   N     0.81732   0.14176   0.08662   0.00000  Uiso   1.00
C139   C     0.29746   0.33487   0.05641   0.00000  Uiso   1.00
C140   C     0.17519   0.37410   0.12334   0.00000  Uiso   1.00
C141   C     0.23387   0.40722   0.18250   0.00000  Uiso   1.00
C142   C     0.10066   0.44023   0.23831   0.00000  Uiso   1.00
C143   C     0.93897   0.50120   0.34273   0.00000  Uiso   1.00
C144   C     0.23324   0.36394   0.01580   0.00000  Uiso   1.00
C145   C     0.34075   0.38850   0.98455   0.00000  Uiso   1.00
C146   C     0.25640   0.41295   0.94982   0.00000  Uiso   1.00
C147   C     0.18487   0.45810   0.88725   0.00000  Uiso   1.00
C148   C     0.25032   0.26639   0.02590   0.00000  Uiso   1.00
C149   C     0.37218   0.20893   0.00312   0.00000  Uiso   1.00
C150   C     0.30222   0.15126   0.97688   0.00000  Uiso   1.00
C151   C     0.25719   0.04495   0.92999   0.00000  Uiso   1.00
C152   C     0.95653   0.33461   0.05030   0.00000  Uiso   1.00
C153   C     0.99001   0.37396   0.12002   0.00000  Uiso   1.00
C154   C     0.85667   0.40693   0.17574   0.00000  Uiso   1.00
C155   C     0.91515   0.44009   0.23498   0.00000  Uiso   1.00
C156   C     0.04807   0.36380   0.01248   0.00000  Uiso   1.00
C157   C     0.96355   0.38822   0.97779   0.00000  Uiso   1.00
C158   C     0.07089   0.41282   0.94649   0.00000  Uiso   1.00
C159   C     0.06514   0.26625   0.02258   0.00000  Uiso   1.00
C160   C     0.99497   0.20865   0.99636   0.00000  Uiso   1.00
C161   C     0.11670   0.15112   0.97355   0.00000  Uiso   1.00
H162   H     0.44163   0.33498   0.05899   0.00000  Uiso   1.00
H163   H     0.37720   0.40732   0.18505   0.00000  Uiso   1.00
H164   H     0.48405   0.38860   0.98712   0.00000  Uiso   1.00
H165   H     0.51547   0.20906   0.00569   0.00000  Uiso   1.00
H166   H     0.22408   0.48748   0.32335   0.00000  Uiso   1.00
H167   H     0.44941   0.44799   0.90598   0.00000  Uiso   1.00
H168   H     0.51568   0.06939   0.94515   0.00000  Uiso   1.00
H169   H     0.81236   0.33450   0.04771   0.00000  Uiso   1.00
H170   H     0.71338   0.40682   0.17316   0.00000  Uiso   1.00
H171   H     0.82025   0.38810   0.97523   0.00000  Uiso   1.00
H172   H     0.85167   0.20856   0.99380   0.00000  Uiso   1.00
H173   H     0.68531   0.48708   0.31369   0.00000  Uiso   1.00
H174   H     0.91064   0.44758   0.89632   0.00000  Uiso   1.00
H175   H     0.97690   0.06899   0.93549   0.00000  Uiso   1.00
O176   O     0.90094   0.53488   0.40125   0.00000  Uiso   1.00
O177   O     0.19657   0.48305   0.85366   0.00000  Uiso   1.00
O178   O     0.28351   0.98635   0.90505   0.00000  Uiso   1.00
N179   N     0.11087   0.47745   0.30386   0.00000  Uiso   1.00
N180   N     0.32153   0.44054   0.91366   0.00000  Uiso   1.00
N181   N     0.38349   0.08658   0.95026   0.00000  Uiso   1.00
N182   N     0.82096   0.47723   0.29867   0.00000  Uiso   1.00
N183   N     0.03162   0.44032   0.90846   0.00000  Uiso   1.00
N184   N     0.09358   0.08636   0.94506   0.00000  Uiso   1.00
C185   C     0.35273   0.94372   0.27825   0.00000  Uiso   1.00
C186   C     0.29670   0.87667   0.25067   0.00000  Uiso   1.00
C187   C     0.41398   0.81760   0.22451   0.00000  Uiso   1.00
C188   C     0.33600   0.76165   0.20185   0.00000  Uiso   1.00
C189   C     0.27767   0.65707   0.15853   0.00000  Uiso   1.00
C190   C     0.24741   0.98424   0.34800   0.00000  Uiso   1.00
C191   C     0.32325   0.01563   0.40367   0.00000  Uiso   1.00
C192   C     0.20377   0.05025   0.46294   0.00000  Uiso   1.00
C193   C     0.06892   0.11271   0.57072   0.00000  Uiso   1.00
C194   C     0.27623   0.97415   0.24040   0.00000  Uiso   1.00
C195   C     0.37629   0.99707   0.20563   0.00000  Uiso   1.00
C196   C     0.28106   0.02321   0.17432   0.00000  Uiso   1.00
C197   C     0.19096   0.07001   0.11504   0.00000  Uiso   1.00
C198   C     0.00569   0.94941   0.28452   0.00000  Uiso   1.00
C199   C     0.10820   0.87976   0.25408   0.00000  Uiso   1.00
C200   C     0.03002   0.82389   0.23145   0.00000  Uiso   1.00
C201   C     0.14716   0.76474   0.20526   0.00000  Uiso   1.00
C202   C     0.05892   0.98733   0.35140   0.00000  Uiso   1.00
C203   C     0.93930   0.02192   0.41061   0.00000  Uiso   1.00
C204   C     0.01493   0.05334   0.46636   0.00000  Uiso   1.00
C205   C     0.08774   0.97724   0.24381   0.00000  Uiso   1.00
C206   C     0.99233   0.00335   0.21256   0.00000  Uiso   1.00
C207   C     0.09223   0.02630   0.17774   0.00000  Uiso   1.00
H208   H     0.49947   0.94132   0.27561   0.00000  Uiso   1.00
H209   H     0.55985   0.81523   0.22189   0.00000  Uiso   1.00
H210   H     0.46913   0.01324   0.40102   0.00000  Uiso   1.00
H211   H     0.52216   0.99467   0.20300   0.00000  Uiso   1.00
H212   H     0.54364   0.67680   0.16386   0.00000  Uiso   1.00
H213   H     0.35236   0.09432   0.54156   0.00000  Uiso   1.00
H214   H     0.46419   0.05518   0.12400   0.00000  Uiso   1.00
H215   H     0.85893   0.95181   0.28718   0.00000  Uiso   1.00
H216   H     0.88415   0.82629   0.23409   0.00000  Uiso   1.00
H217   H     0.79343   0.02430   0.41322   0.00000  Uiso   1.00
H218   H     0.84646   0.00574   0.21520   0.00000  Uiso   1.00
H219   H     0.99522   0.68578   0.17376   0.00000  Uiso   1.00
H220   H     0.80394   0.10330   0.55147   0.00000  Uiso   1.00
H221   H     0.91576   0.06416   0.13391   0.00000  Uiso   1.00
O222   O     0.29758   0.59853   0.13370   0.00000  Uiso   1.00
O223   O     0.04662   0.14631   0.62923   0.00000  Uiso   1.00
O224   O     0.19334   0.09496   0.08140   0.00000  Uiso   1.00
N225   N     0.41111   0.69614   0.17346   0.00000  Uiso   1.00
N226   N     0.23228   0.08648   0.52660   0.00000  Uiso   1.00
N227   N     0.33682   0.04991   0.13623   0.00000  Uiso   1.00
N228   N     0.11601   0.70097   0.17879   0.00000  Uiso   1.00
N229   N     0.93718   0.09132   0.53192   0.00000  Uiso   1.00
N230   N     0.04172   0.05474   0.14155   0.00000  Uiso   1.00
C231   C     0.63225   0.72194   0.66534   0.00000  Uiso   1.00
C232   C     0.54978   0.74944   0.62600   0.00000  Uiso   1.00
C233   C     0.64190   0.77572   0.59299   0.00000  Uiso   1.00
C234   C     0.54221   0.79827   0.55984   0.00000  Uiso   1.00
C235   C     0.44234   0.84149   0.49874   0.00000  Uiso   1.00
C236   C     0.59597   0.65210   0.63620   0.00000  Uiso   1.00
C237   C     0.72695   0.59654   0.61179   0.00000  Uiso   1.00
C238   C     0.66614   0.53714   0.58724   0.00000  Uiso   1.00
C239   C     0.63799   0.42924   0.54203   0.00000  Uiso   1.00
C240   C     0.51739   0.75969   0.73370   0.00000  Uiso   1.00
C241   C     0.58230   0.79459   0.79126   0.00000  Uiso   1.00
C242   C     0.45533   0.82577   0.84880   0.00000  Uiso   1.00
C243   C     0.30517   0.88493   0.95496   0.00000  Uiso   1.00
C244   C     0.29137   0.71524   0.66517   0.00000  Uiso   1.00
C245   C     0.36463   0.74580   0.62590   0.00000  Uiso   1.00
C246   C     0.26477   0.76831   0.59280   0.00000  Uiso   1.00
C247   C     0.35673   0.79463   0.55975   0.00000  Uiso   1.00
C248   C     0.41084   0.64845   0.63611   0.00000  Uiso   1.00
C249   C     0.34982   0.58913   0.61160   0.00000  Uiso   1.00
C250   C     0.48066   0.53349   0.58715   0.00000  Uiso   1.00
C251   C     0.33224   0.75606   0.73361   0.00000  Uiso   1.00
C252   C     0.20516   0.78718   0.79107   0.00000  Uiso   1.00
C253   C     0.26985   0.82212   0.84871   0.00000  Uiso   1.00
H254   H     0.77639   0.72477   0.66541   0.00000  Uiso   1.00
H255   H     0.78519   0.77853   0.59307   0.00000  Uiso   1.00
H256   H     0.87021   0.59937   0.61187   0.00000  Uiso   1.00
H257   H     0.72558   0.79739   0.79131   0.00000  Uiso   1.00
H258   H     0.71331   0.83650   0.51280   0.00000  Uiso   1.00
H259   H     0.89259   0.45874   0.55247   0.00000  Uiso   1.00
H260   H     0.58760   0.87631   0.93086   0.00000  Uiso   1.00
H261   H     0.14722   0.71241   0.66510   0.00000  Uiso   1.00
H262   H     0.12149   0.76549   0.59274   0.00000  Uiso   1.00
H263   H     0.20653   0.58633   0.61154   0.00000  Uiso   1.00
H264   H     0.06189   0.78436   0.79098   0.00000  Uiso   1.00
H265   H     0.17463   0.82592   0.51253   0.00000  Uiso   1.00
H266   H     0.35391   0.44815   0.55220   0.00000  Uiso   1.00
H267   H     0.04892   0.86572   0.93059   0.00000  Uiso   1.00
O268   O     0.43841   0.86633   0.46505   0.00000  Uiso   1.00
O269   O     0.67362   0.37072   0.51710   0.00000  Uiso   1.00
O270   O     0.27348   0.91857   0.01355   0.00000  Uiso   1.00
N271   N     0.59005   0.82674   0.52268   0.00000  Uiso   1.00
N272   N     0.75767   0.47355   0.55975   0.00000  Uiso   1.00
N273   N     0.47254   0.86393   0.91352   0.00000  Uiso   1.00
N274   N     0.30019   0.82104   0.52253   0.00000  Uiso   1.00
N275   N     0.46781   0.46785   0.55961   0.00000  Uiso   1.00
N276   N     0.18268   0.85824   0.91338   0.00000  Uiso   1.00
