data_job_02426
_audit_creation_date              2018-12-19
_audit_creation_method            'Materials Studio'
_symmetry_space_group_name_H-M    'P1'
_symmetry_Int_Tables_number       1
_symmetry_cell_setting            triclinic
loop_
_symmetry_equiv_pos_as_xyz
  x,y,z
_cell_length_a                    20.2817
_cell_length_b                    14.4015
_cell_length_c                    37.2285
_cell_angle_alpha                 90.0000
_cell_angle_beta                  143.3690
_cell_angle_gamma                 90.0000
loop_
_atom_site_label
_atom_site_type_symbol
_atom_site_fract_x
_atom_site_fract_y
_atom_site_fract_z
_atom_site_U_iso_or_equiv
_atom_site_adp_type
_atom_site_occupancy
C1     C     0.73946   0.25473   0.34732   0.00000  Uiso   1.00
C2     C     0.84706   0.30953   0.39662   0.00000  Uiso   1.00
C3     C     0.86632   0.39580   0.38966   0.00000  Uiso   1.00
C4     C     0.97027   0.43439   0.44023   0.00000  Uiso   1.00
C5     C     0.12494   0.52647   0.50832   0.00000  Uiso   1.00
C6     C     0.76976   0.16059   0.34462   0.00000  Uiso   1.00
C7     C     0.72402   0.12162   0.29394   0.00000  Uiso   1.00
C8     C     0.76289   0.03482   0.30075   0.00000  Uiso   1.00
C9     C     0.79749   0.89562   0.28811   0.00000  Uiso   1.00
C10    C     0.70459   0.23592   0.37076   0.00000  Uiso   1.00
C11    C     0.60403   0.26027   0.34205   0.00000  Uiso   1.00
C12    C     0.58802   0.23687   0.37085   0.00000  Uiso   1.00
C13    C     0.52143   0.21464   0.39879   0.00000  Uiso   1.00
C14    C     0.88981   0.16986   0.44952   0.00000  Uiso   1.00
C15    C     0.92873   0.26343   0.45213   0.00000  Uiso   1.00
C16    C     0.03267   0.30190   0.50273   0.00000  Uiso   1.00
C17    C     0.05208   0.38821   0.49584   0.00000  Uiso   1.00
C18    C     0.85143   0.11448   0.40013   0.00000  Uiso   1.00
C19    C     0.89037   0.02772   0.40701   0.00000  Uiso   1.00
C20    C     0.84470   0.98863   0.35636   0.00000  Uiso   1.00
C21    C     0.78626   0.18982   0.42627   0.00000  Uiso   1.00
C22    C     0.77039   0.16637   0.45512   0.00000  Uiso   1.00
C23    C     0.66983   0.19068   0.42646   0.00000  Uiso   1.00
H24    H     0.67588   0.29062   0.30410   0.00000  Uiso   1.00
H25    H     0.80310   0.43145   0.34669   0.00000  Uiso   1.00
H26    H     0.66081   0.15731   0.25099   0.00000  Uiso   1.00
H27    H     0.54085   0.29594   0.29909   0.00000  Uiso   1.00
H28    H     0.98018   0.56725   0.41837   0.00000  Uiso   1.00
H29    H     0.68013   0.98919   0.21658   0.00000  Uiso   1.00
H30    H     0.42717   0.28151   0.31801   0.00000  Uiso   1.00
H31    H     0.95340   0.13396   0.49274   0.00000  Uiso   1.00
H32    H     0.09585   0.26621   0.54568   0.00000  Uiso   1.00
H33    H     0.95356   0.99206   0.44998   0.00000  Uiso   1.00
H34    H     0.83360   0.13069   0.49808   0.00000  Uiso   1.00
H35    H     0.21779   0.43313   0.57988   0.00000  Uiso   1.00
H36    H     0.91774   0.85506   0.37809   0.00000  Uiso   1.00
H37    H     0.66478   0.14739   0.47952   0.00000  Uiso   1.00
O38    O     0.18770   0.58999   0.53054   0.00000  Uiso   1.00
O39    O     0.79403   0.83159   0.26580   0.00000  Uiso   1.00
O40    O     0.46215   0.21512   0.39887   0.00000  Uiso   1.00
N41    N     0.01655   0.51754   0.44912   0.00000  Uiso   1.00
N42    N     0.73603   0.97709   0.26046   0.00000  Uiso   1.00
N43    N     0.49952   0.25037   0.35528   0.00000  Uiso   1.00
N44    N     0.14440   0.44537   0.53603   0.00000  Uiso   1.00
N45    N     0.86388   0.90492   0.34737   0.00000  Uiso   1.00
N46    N     0.62737   0.17820   0.44219   0.00000  Uiso   1.00
C47    C     0.23946   0.75473   0.34732   0.00000  Uiso   1.00
C48    C     0.34706   0.80953   0.39662   0.00000  Uiso   1.00
C49    C     0.36632   0.89580   0.38966   0.00000  Uiso   1.00
C50    C     0.47027   0.93439   0.44023   0.00000  Uiso   1.00
C51    C     0.62494   0.02647   0.50832   0.00000  Uiso   1.00
C52    C     0.26976   0.66059   0.34462   0.00000  Uiso   1.00
C53    C     0.22402   0.62162   0.29394   0.00000  Uiso   1.00
C54    C     0.26289   0.53482   0.30075   0.00000  Uiso   1.00
C55    C     0.29749   0.39562   0.28811   0.00000  Uiso   1.00
C56    C     0.20459   0.73592   0.37076   0.00000  Uiso   1.00
C57    C     0.10403   0.76027   0.34205   0.00000  Uiso   1.00
C58    C     0.08802   0.73687   0.37085   0.00000  Uiso   1.00
C59    C     0.02143   0.71464   0.39879   0.00000  Uiso   1.00
C60    C     0.38981   0.66986   0.44952   0.00000  Uiso   1.00
C61    C     0.42873   0.76343   0.45213   0.00000  Uiso   1.00
C62    C     0.53267   0.80190   0.50273   0.00000  Uiso   1.00
C63    C     0.55208   0.88821   0.49584   0.00000  Uiso   1.00
C64    C     0.35143   0.61448   0.40013   0.00000  Uiso   1.00
C65    C     0.39037   0.52772   0.40701   0.00000  Uiso   1.00
C66    C     0.34470   0.48863   0.35636   0.00000  Uiso   1.00
C67    C     0.28626   0.68982   0.42627   0.00000  Uiso   1.00
C68    C     0.27039   0.66637   0.45512   0.00000  Uiso   1.00
C69    C     0.16983   0.69068   0.42646   0.00000  Uiso   1.00
H70    H     0.17588   0.79062   0.30410   0.00000  Uiso   1.00
H71    H     0.30310   0.93145   0.34669   0.00000  Uiso   1.00
H72    H     0.16081   0.65731   0.25099   0.00000  Uiso   1.00
H73    H     0.04085   0.79594   0.29909   0.00000  Uiso   1.00
H74    H     0.48018   0.06725   0.41837   0.00000  Uiso   1.00
H75    H     0.18013   0.48919   0.21658   0.00000  Uiso   1.00
H76    H     0.92717   0.78151   0.31801   0.00000  Uiso   1.00
H77    H     0.45340   0.63396   0.49274   0.00000  Uiso   1.00
H78    H     0.59585   0.76621   0.54568   0.00000  Uiso   1.00
H79    H     0.45356   0.49206   0.44998   0.00000  Uiso   1.00
H80    H     0.33360   0.63069   0.49808   0.00000  Uiso   1.00
H81    H     0.71779   0.93313   0.57988   0.00000  Uiso   1.00
H82    H     0.41774   0.35506   0.37809   0.00000  Uiso   1.00
H83    H     0.16478   0.64739   0.47952   0.00000  Uiso   1.00
O84    O     0.68770   0.08999   0.53054   0.00000  Uiso   1.00
O85    O     0.29403   0.33159   0.26580   0.00000  Uiso   1.00
O86    O     0.96215   0.71512   0.39887   0.00000  Uiso   1.00
N87    N     0.51655   0.01754   0.44912   0.00000  Uiso   1.00
N88    N     0.23603   0.47709   0.26046   0.00000  Uiso   1.00
N89    N     0.99952   0.75037   0.35528   0.00000  Uiso   1.00
N90    N     0.64440   0.94537   0.53603   0.00000  Uiso   1.00
N91    N     0.36388   0.40492   0.34737   0.00000  Uiso   1.00
N92    N     0.12737   0.67820   0.44219   0.00000  Uiso   1.00
C93    C     0.26054   0.25473   0.15268   0.00000  Uiso   1.00
C94    C     0.15294   0.30953   0.10338   0.00000  Uiso   1.00
C95    C     0.13368   0.39580   0.11034   0.00000  Uiso   1.00
C96    C     0.02973   0.43439   0.05977   0.00000  Uiso   1.00
C97    C     0.87506   0.52647   0.99168   0.00000  Uiso   1.00
C98    C     0.23024   0.16059   0.15538   0.00000  Uiso   1.00
C99    C     0.27598   0.12162   0.20606   0.00000  Uiso   1.00
C100   C     0.23711   0.03482   0.19925   0.00000  Uiso   1.00
C101   C     0.20251   0.89562   0.21189   0.00000  Uiso   1.00
C102   C     0.29541   0.23592   0.12924   0.00000  Uiso   1.00
C103   C     0.39597   0.26027   0.15795   0.00000  Uiso   1.00
C104   C     0.41198   0.23687   0.12915   0.00000  Uiso   1.00
C105   C     0.47857   0.21464   0.10121   0.00000  Uiso   1.00
C106   C     0.11019   0.16986   0.05048   0.00000  Uiso   1.00
C107   C     0.07127   0.26343   0.04787   0.00000  Uiso   1.00
C108   C     0.96733   0.30190   0.99727   0.00000  Uiso   1.00
C109   C     0.94792   0.38821   0.00416   0.00000  Uiso   1.00
C110   C     0.14857   0.11448   0.09987   0.00000  Uiso   1.00
C111   C     0.10963   0.02772   0.09299   0.00000  Uiso   1.00
C112   C     0.15530   0.98863   0.14364   0.00000  Uiso   1.00
C113   C     0.21374   0.18982   0.07373   0.00000  Uiso   1.00
C114   C     0.22961   0.16637   0.04488   0.00000  Uiso   1.00
C115   C     0.33017   0.19068   0.07354   0.00000  Uiso   1.00
H116   H     0.32412   0.29062   0.19590   0.00000  Uiso   1.00
H117   H     0.19690   0.43145   0.15331   0.00000  Uiso   1.00
H118   H     0.33919   0.15731   0.24901   0.00000  Uiso   1.00
H119   H     0.45915   0.29594   0.20091   0.00000  Uiso   1.00
H120   H     0.01982   0.56725   0.08163   0.00000  Uiso   1.00
H121   H     0.31987   0.98919   0.28342   0.00000  Uiso   1.00
H122   H     0.57283   0.28151   0.18199   0.00000  Uiso   1.00
H123   H     0.04660   0.13396   0.00726   0.00000  Uiso   1.00
H124   H     0.90415   0.26621   0.95432   0.00000  Uiso   1.00
H125   H     0.04644   0.99206   0.05002   0.00000  Uiso   1.00
H126   H     0.16640   0.13069   0.00192   0.00000  Uiso   1.00
H127   H     0.78221   0.43313   0.92012   0.00000  Uiso   1.00
H128   H     0.08226   0.85506   0.12191   0.00000  Uiso   1.00
H129   H     0.33522   0.14739   0.02048   0.00000  Uiso   1.00
O130   O     0.81230   0.58999   0.96946   0.00000  Uiso   1.00
O131   O     0.20597   0.83159   0.23420   0.00000  Uiso   1.00
O132   O     0.53785   0.21512   0.10113   0.00000  Uiso   1.00
N133   N     0.98345   0.51754   0.05088   0.00000  Uiso   1.00
N134   N     0.26397   0.97709   0.23954   0.00000  Uiso   1.00
N135   N     0.50048   0.25037   0.14472   0.00000  Uiso   1.00
N136   N     0.85560   0.44537   0.96397   0.00000  Uiso   1.00
N137   N     0.13612   0.90492   0.15263   0.00000  Uiso   1.00
N138   N     0.37263   0.17820   0.05781   0.00000  Uiso   1.00
C139   C     0.76054   0.75473   0.15268   0.00000  Uiso   1.00
C140   C     0.65294   0.80953   0.10338   0.00000  Uiso   1.00
C141   C     0.63368   0.89580   0.11034   0.00000  Uiso   1.00
C142   C     0.52973   0.93439   0.05977   0.00000  Uiso   1.00
C143   C     0.37506   0.02647   0.99168   0.00000  Uiso   1.00
C144   C     0.73024   0.66059   0.15538   0.00000  Uiso   1.00
C145   C     0.77598   0.62162   0.20606   0.00000  Uiso   1.00
C146   C     0.73711   0.53482   0.19925   0.00000  Uiso   1.00
C147   C     0.70251   0.39562   0.21189   0.00000  Uiso   1.00
C148   C     0.79541   0.73592   0.12924   0.00000  Uiso   1.00
C149   C     0.89597   0.76027   0.15795   0.00000  Uiso   1.00
C150   C     0.91198   0.73687   0.12915   0.00000  Uiso   1.00
C151   C     0.97857   0.71464   0.10121   0.00000  Uiso   1.00
C152   C     0.61019   0.66986   0.05048   0.00000  Uiso   1.00
C153   C     0.57127   0.76343   0.04787   0.00000  Uiso   1.00
C154   C     0.46733   0.80190   0.99727   0.00000  Uiso   1.00
C155   C     0.44792   0.88821   0.00416   0.00000  Uiso   1.00
C156   C     0.64857   0.61448   0.09987   0.00000  Uiso   1.00
C157   C     0.60963   0.52772   0.09299   0.00000  Uiso   1.00
C158   C     0.65530   0.48863   0.14364   0.00000  Uiso   1.00
C159   C     0.71374   0.68982   0.07373   0.00000  Uiso   1.00
C160   C     0.72961   0.66637   0.04488   0.00000  Uiso   1.00
C161   C     0.83017   0.69068   0.07354   0.00000  Uiso   1.00
H162   H     0.82412   0.79062   0.19590   0.00000  Uiso   1.00
H163   H     0.69690   0.93145   0.15331   0.00000  Uiso   1.00
H164   H     0.83919   0.65731   0.24901   0.00000  Uiso   1.00
H165   H     0.95915   0.79594   0.20091   0.00000  Uiso   1.00
H166   H     0.51982   0.06725   0.08163   0.00000  Uiso   1.00
H167   H     0.81987   0.48919   0.28342   0.00000  Uiso   1.00
H168   H     0.07283   0.78151   0.18199   0.00000  Uiso   1.00
H169   H     0.54660   0.63396   0.00726   0.00000  Uiso   1.00
H170   H     0.40415   0.76621   0.95432   0.00000  Uiso   1.00
H171   H     0.54644   0.49206   0.05002   0.00000  Uiso   1.00
H172   H     0.66640   0.63069   0.00192   0.00000  Uiso   1.00
H173   H     0.28221   0.93313   0.92012   0.00000  Uiso   1.00
H174   H     0.58226   0.35506   0.12191   0.00000  Uiso   1.00
H175   H     0.83522   0.64739   0.02048   0.00000  Uiso   1.00
O176   O     0.31230   0.08999   0.96946   0.00000  Uiso   1.00
O177   O     0.70597   0.33159   0.23420   0.00000  Uiso   1.00
O178   O     0.03785   0.71512   0.10113   0.00000  Uiso   1.00
N179   N     0.48345   0.01754   0.05088   0.00000  Uiso   1.00
N180   N     0.76397   0.47709   0.23954   0.00000  Uiso   1.00
N181   N     0.00048   0.75037   0.14472   0.00000  Uiso   1.00
N182   N     0.35560   0.94537   0.96397   0.00000  Uiso   1.00
N183   N     0.63612   0.40492   0.15263   0.00000  Uiso   1.00
N184   N     0.87263   0.67820   0.05781   0.00000  Uiso   1.00
C185   C     0.26054   0.74527   0.65268   0.00000  Uiso   1.00
C186   C     0.15294   0.69047   0.60338   0.00000  Uiso   1.00
C187   C     0.13368   0.60420   0.61034   0.00000  Uiso   1.00
C188   C     0.02973   0.56561   0.55977   0.00000  Uiso   1.00
C189   C     0.87506   0.47353   0.49168   0.00000  Uiso   1.00
C190   C     0.23024   0.83941   0.65538   0.00000  Uiso   1.00
C191   C     0.27598   0.87838   0.70606   0.00000  Uiso   1.00
C192   C     0.23711   0.96518   0.69925   0.00000  Uiso   1.00
C193   C     0.20251   0.10438   0.71189   0.00000  Uiso   1.00
C194   C     0.29541   0.76408   0.62924   0.00000  Uiso   1.00
C195   C     0.39597   0.73973   0.65795   0.00000  Uiso   1.00
C196   C     0.41198   0.76313   0.62915   0.00000  Uiso   1.00
C197   C     0.47857   0.78536   0.60121   0.00000  Uiso   1.00
C198   C     0.11019   0.83014   0.55048   0.00000  Uiso   1.00
C199   C     0.07127   0.73657   0.54787   0.00000  Uiso   1.00
C200   C     0.96733   0.69810   0.49727   0.00000  Uiso   1.00
C201   C     0.94792   0.61179   0.50416   0.00000  Uiso   1.00
C202   C     0.14857   0.88552   0.59987   0.00000  Uiso   1.00
C203   C     0.10963   0.97228   0.59299   0.00000  Uiso   1.00
C204   C     0.15530   0.01137   0.64364   0.00000  Uiso   1.00
C205   C     0.21374   0.81018   0.57373   0.00000  Uiso   1.00
C206   C     0.22961   0.83363   0.54488   0.00000  Uiso   1.00
C207   C     0.33017   0.80932   0.57354   0.00000  Uiso   1.00
H208   H     0.32412   0.70938   0.69590   0.00000  Uiso   1.00
H209   H     0.19690   0.56855   0.65331   0.00000  Uiso   1.00
H210   H     0.33919   0.84269   0.74901   0.00000  Uiso   1.00
H211   H     0.45915   0.70406   0.70091   0.00000  Uiso   1.00
H212   H     0.01982   0.43275   0.58163   0.00000  Uiso   1.00
H213   H     0.31987   0.01081   0.78342   0.00000  Uiso   1.00
H214   H     0.57283   0.71849   0.68199   0.00000  Uiso   1.00
H215   H     0.04660   0.86604   0.50726   0.00000  Uiso   1.00
H216   H     0.90415   0.73379   0.45432   0.00000  Uiso   1.00
H217   H     0.04644   0.00794   0.55002   0.00000  Uiso   1.00
H218   H     0.16640   0.86931   0.50192   0.00000  Uiso   1.00
H219   H     0.78221   0.56687   0.42012   0.00000  Uiso   1.00
H220   H     0.08226   0.14494   0.62191   0.00000  Uiso   1.00
H221   H     0.33522   0.85261   0.52048   0.00000  Uiso   1.00
O222   O     0.81230   0.41001   0.46946   0.00000  Uiso   1.00
O223   O     0.20597   0.16841   0.73420   0.00000  Uiso   1.00
O224   O     0.53785   0.78488   0.60113   0.00000  Uiso   1.00
N225   N     0.98345   0.48246   0.55088   0.00000  Uiso   1.00
N226   N     0.26397   0.02291   0.73954   0.00000  Uiso   1.00
N227   N     0.50048   0.74963   0.64472   0.00000  Uiso   1.00
N228   N     0.85560   0.55463   0.46397   0.00000  Uiso   1.00
N229   N     0.13612   0.09508   0.65263   0.00000  Uiso   1.00
N230   N     0.37263   0.82180   0.55781   0.00000  Uiso   1.00
C231   C     0.76054   0.24527   0.65268   0.00000  Uiso   1.00
C232   C     0.65294   0.19047   0.60338   0.00000  Uiso   1.00
C233   C     0.63368   0.10420   0.61034   0.00000  Uiso   1.00
C234   C     0.52973   0.06561   0.55977   0.00000  Uiso   1.00
C235   C     0.37506   0.97353   0.49168   0.00000  Uiso   1.00
C236   C     0.73024   0.33941   0.65538   0.00000  Uiso   1.00
C237   C     0.77598   0.37838   0.70606   0.00000  Uiso   1.00
C238   C     0.73711   0.46518   0.69925   0.00000  Uiso   1.00
C239   C     0.70251   0.60438   0.71189   0.00000  Uiso   1.00
C240   C     0.79541   0.26408   0.62924   0.00000  Uiso   1.00
C241   C     0.89597   0.23973   0.65795   0.00000  Uiso   1.00
C242   C     0.91198   0.26313   0.62915   0.00000  Uiso   1.00
C243   C     0.97857   0.28536   0.60121   0.00000  Uiso   1.00
C244   C     0.61019   0.33014   0.55048   0.00000  Uiso   1.00
C245   C     0.57127   0.23657   0.54787   0.00000  Uiso   1.00
C246   C     0.46733   0.19810   0.49727   0.00000  Uiso   1.00
C247   C     0.44792   0.11179   0.50416   0.00000  Uiso   1.00
C248   C     0.64857   0.38552   0.59987   0.00000  Uiso   1.00
C249   C     0.60963   0.47228   0.59299   0.00000  Uiso   1.00
C250   C     0.65530   0.51137   0.64364   0.00000  Uiso   1.00
C251   C     0.71374   0.31018   0.57373   0.00000  Uiso   1.00
C252   C     0.72961   0.33363   0.54488   0.00000  Uiso   1.00
C253   C     0.83017   0.30932   0.57354   0.00000  Uiso   1.00
H254   H     0.82412   0.20938   0.69590   0.00000  Uiso   1.00
H255   H     0.69690   0.06855   0.65331   0.00000  Uiso   1.00
H256   H     0.83919   0.34269   0.74901   0.00000  Uiso   1.00
H257   H     0.95915   0.20406   0.70091   0.00000  Uiso   1.00
H258   H     0.51982   0.93275   0.58163   0.00000  Uiso   1.00
H259   H     0.81987   0.51081   0.78342   0.00000  Uiso   1.00
H260   H     0.07283   0.21849   0.68199   0.00000  Uiso   1.00
H261   H     0.54660   0.36604   0.50726   0.00000  Uiso   1.00
H262   H     0.40415   0.23379   0.45432   0.00000  Uiso   1.00
H263   H     0.54644   0.50794   0.55002   0.00000  Uiso   1.00
H264   H     0.66640   0.36931   0.50192   0.00000  Uiso   1.00
H265   H     0.28221   0.06687   0.42012   0.00000  Uiso   1.00
H266   H     0.58226   0.64494   0.62191   0.00000  Uiso   1.00
H267   H     0.83522   0.35261   0.52048   0.00000  Uiso   1.00
O268   O     0.31230   0.91001   0.46946   0.00000  Uiso   1.00
O269   O     0.70597   0.66841   0.73420   0.00000  Uiso   1.00
O270   O     0.03785   0.28488   0.60113   0.00000  Uiso   1.00
N271   N     0.48345   0.98246   0.55088   0.00000  Uiso   1.00
N272   N     0.76397   0.52291   0.73954   0.00000  Uiso   1.00
N273   N     0.00048   0.24963   0.64472   0.00000  Uiso   1.00
N274   N     0.35560   0.05463   0.46397   0.00000  Uiso   1.00
N275   N     0.63612   0.59508   0.65263   0.00000  Uiso   1.00
N276   N     0.87263   0.32180   0.55781   0.00000  Uiso   1.00
C277   C     0.73946   0.74527   0.84732   0.00000  Uiso   1.00
C278   C     0.84706   0.69047   0.89662   0.00000  Uiso   1.00
C279   C     0.86632   0.60420   0.88966   0.00000  Uiso   1.00
C280   C     0.97027   0.56561   0.94023   0.00000  Uiso   1.00
C281   C     0.12494   0.47353   0.00832   0.00000  Uiso   1.00
C282   C     0.76976   0.83941   0.84462   0.00000  Uiso   1.00
C283   C     0.72402   0.87838   0.79394   0.00000  Uiso   1.00
C284   C     0.76289   0.96518   0.80075   0.00000  Uiso   1.00
C285   C     0.79749   0.10438   0.78811   0.00000  Uiso   1.00
C286   C     0.70459   0.76408   0.87076   0.00000  Uiso   1.00
C287   C     0.60403   0.73973   0.84205   0.00000  Uiso   1.00
C288   C     0.58802   0.76313   0.87085   0.00000  Uiso   1.00
C289   C     0.52143   0.78536   0.89879   0.00000  Uiso   1.00
C290   C     0.88981   0.83014   0.94952   0.00000  Uiso   1.00
C291   C     0.92873   0.73657   0.95213   0.00000  Uiso   1.00
C292   C     0.03267   0.69810   0.00273   0.00000  Uiso   1.00
C293   C     0.05208   0.61179   0.99584   0.00000  Uiso   1.00
C294   C     0.85143   0.88552   0.90013   0.00000  Uiso   1.00
C295   C     0.89037   0.97228   0.90701   0.00000  Uiso   1.00
C296   C     0.84470   0.01137   0.85636   0.00000  Uiso   1.00
C297   C     0.78626   0.81018   0.92627   0.00000  Uiso   1.00
C298   C     0.77039   0.83363   0.95512   0.00000  Uiso   1.00
C299   C     0.66983   0.80932   0.92646   0.00000  Uiso   1.00
H300   H     0.67588   0.70938   0.80410   0.00000  Uiso   1.00
H301   H     0.80310   0.56855   0.84669   0.00000  Uiso   1.00
H302   H     0.66081   0.84269   0.75099   0.00000  Uiso   1.00
H303   H     0.54085   0.70406   0.79909   0.00000  Uiso   1.00
H304   H     0.98018   0.43275   0.91837   0.00000  Uiso   1.00
H305   H     0.68013   0.01081   0.71658   0.00000  Uiso   1.00
H306   H     0.42717   0.71849   0.81801   0.00000  Uiso   1.00
H307   H     0.95340   0.86604   0.99274   0.00000  Uiso   1.00
H308   H     0.09585   0.73379   0.04568   0.00000  Uiso   1.00
H309   H     0.95356   0.00794   0.94998   0.00000  Uiso   1.00
H310   H     0.83360   0.86931   0.99808   0.00000  Uiso   1.00
H311   H     0.21779   0.56687   0.07988   0.00000  Uiso   1.00
H312   H     0.91774   0.14494   0.87809   0.00000  Uiso   1.00
H313   H     0.66478   0.85261   0.97952   0.00000  Uiso   1.00
O314   O     0.18770   0.41001   0.03054   0.00000  Uiso   1.00
O315   O     0.79403   0.16841   0.76580   0.00000  Uiso   1.00
O316   O     0.46215   0.78488   0.89887   0.00000  Uiso   1.00
N317   N     0.01655   0.48246   0.94912   0.00000  Uiso   1.00
N318   N     0.73603   0.02291   0.76046   0.00000  Uiso   1.00
N319   N     0.49952   0.74963   0.85528   0.00000  Uiso   1.00
N320   N     0.14440   0.55463   0.03603   0.00000  Uiso   1.00
N321   N     0.86388   0.09508   0.84737   0.00000  Uiso   1.00
N322   N     0.62737   0.82180   0.94219   0.00000  Uiso   1.00
C323   C     0.23946   0.24527   0.84732   0.00000  Uiso   1.00
C324   C     0.34706   0.19047   0.89662   0.00000  Uiso   1.00
C325   C     0.36632   0.10420   0.88966   0.00000  Uiso   1.00
C326   C     0.47027   0.06561   0.94023   0.00000  Uiso   1.00
C327   C     0.62494   0.97353   0.00832   0.00000  Uiso   1.00
C328   C     0.26976   0.33941   0.84462   0.00000  Uiso   1.00
C329   C     0.22402   0.37838   0.79394   0.00000  Uiso   1.00
C330   C     0.26289   0.46518   0.80075   0.00000  Uiso   1.00
C331   C     0.29749   0.60438   0.78811   0.00000  Uiso   1.00
C332   C     0.20459   0.26408   0.87076   0.00000  Uiso   1.00
C333   C     0.10403   0.23973   0.84205   0.00000  Uiso   1.00
C334   C     0.08802   0.26313   0.87085   0.00000  Uiso   1.00
C335   C     0.02143   0.28536   0.89879   0.00000  Uiso   1.00
C336   C     0.38981   0.33014   0.94952   0.00000  Uiso   1.00
C337   C     0.42873   0.23657   0.95213   0.00000  Uiso   1.00
C338   C     0.53267   0.19810   0.00273   0.00000  Uiso   1.00
C339   C     0.55208   0.11179   0.99584   0.00000  Uiso   1.00
C340   C     0.35143   0.38552   0.90013   0.00000  Uiso   1.00
C341   C     0.39037   0.47228   0.90701   0.00000  Uiso   1.00
C342   C     0.34470   0.51137   0.85636   0.00000  Uiso   1.00
C343   C     0.28626   0.31018   0.92627   0.00000  Uiso   1.00
C344   C     0.27039   0.33363   0.95512   0.00000  Uiso   1.00
C345   C     0.16983   0.30932   0.92646   0.00000  Uiso   1.00
H346   H     0.17588   0.20938   0.80410   0.00000  Uiso   1.00
H347   H     0.30310   0.06855   0.84669   0.00000  Uiso   1.00
H348   H     0.16081   0.34269   0.75099   0.00000  Uiso   1.00
H349   H     0.04085   0.20406   0.79909   0.00000  Uiso   1.00
H350   H     0.48018   0.93275   0.91837   0.00000  Uiso   1.00
H351   H     0.18013   0.51081   0.71658   0.00000  Uiso   1.00
H352   H     0.92717   0.21849   0.81801   0.00000  Uiso   1.00
H353   H     0.45340   0.36604   0.99274   0.00000  Uiso   1.00
H354   H     0.59585   0.23379   0.04568   0.00000  Uiso   1.00
H355   H     0.45356   0.50794   0.94998   0.00000  Uiso   1.00
H356   H     0.33360   0.36931   0.99808   0.00000  Uiso   1.00
H357   H     0.71779   0.06687   0.07988   0.00000  Uiso   1.00
H358   H     0.41774   0.64494   0.87809   0.00000  Uiso   1.00
H359   H     0.16478   0.35261   0.97952   0.00000  Uiso   1.00
O360   O     0.68770   0.91001   0.03054   0.00000  Uiso   1.00
O361   O     0.29403   0.66841   0.76580   0.00000  Uiso   1.00
O362   O     0.96215   0.28488   0.89887   0.00000  Uiso   1.00
N363   N     0.51655   0.98246   0.94912   0.00000  Uiso   1.00
N364   N     0.23603   0.52291   0.76046   0.00000  Uiso   1.00
N365   N     0.99952   0.24963   0.85528   0.00000  Uiso   1.00
N366   N     0.64440   0.05463   0.03603   0.00000  Uiso   1.00
N367   N     0.36388   0.59508   0.84737   0.00000  Uiso   1.00
N368   N     0.12737   0.32180   0.94219   0.00000  Uiso   1.00
