data_job_05156
_audit_creation_date              2018-12-19
_audit_creation_method            'Materials Studio'
_symmetry_space_group_name_H-M    'P1'
_symmetry_Int_Tables_number       1
_symmetry_cell_setting            triclinic
loop_
_symmetry_equiv_pos_as_xyz
  x,y,z
_cell_length_a                    12.5150
_cell_length_b                    26.0240
_cell_length_c                    20.4333
_cell_angle_alpha                 90.0000
_cell_angle_beta                  130.6286
_cell_angle_gamma                 90.0000
loop_
_atom_site_label
_atom_site_type_symbol
_atom_site_fract_x
_atom_site_fract_y
_atom_site_fract_z
_atom_site_U_iso_or_equiv
_atom_site_adp_type
_atom_site_occupancy
C1     C     0.02253   0.09031   0.65199   0.00000  Uiso   1.00
C2     C     0.94580   0.10413   0.68453   0.00000  Uiso   1.00
C3     C     0.84051   0.14078   0.64878   0.00000  Uiso   1.00
C4     C     0.78358   0.14772   0.68802   0.00000  Uiso   1.00
C5     C     0.65737   0.17355   0.72757   0.00000  Uiso   1.00
C6     C     0.17885   0.09794   0.72830   0.00000  Uiso   1.00
C7     C     0.26951   0.12938   0.72934   0.00000  Uiso   1.00
C8     C     0.40876   0.13111   0.80543   0.00000  Uiso   1.00
C9     C     0.64439   0.14731   0.91291   0.00000  Uiso   1.00
C10    C     0.00195   0.03266   0.63446   0.00000  Uiso   1.00
C11    C     0.94392   0.00922   0.55660   0.00000  Uiso   1.00
C12    C     0.93427   0.95599   0.55369   0.00000  Uiso   1.00
C13    C     0.89524   0.87084   0.51547   0.00000  Uiso   1.00
C14    C     0.10863   0.03747   0.78527   0.00000  Uiso   1.00
C15    C     0.99257   0.07542   0.75693   0.00000  Uiso   1.00
C16    C     0.93577   0.08231   0.79624   0.00000  Uiso   1.00
C17    C     0.83042   0.11896   0.76054   0.00000  Uiso   1.00
C18    C     0.22561   0.06924   0.80070   0.00000  Uiso   1.00
C19    C     0.36476   0.07091   0.87680   0.00000  Uiso   1.00
C20    C     0.45561   0.10235   0.87795   0.00000  Uiso   1.00
C21    C     0.04872   0.00396   0.70686   0.00000  Uiso   1.00
C22    C     0.03917   0.95075   0.70406   0.00000  Uiso   1.00
C23    C     0.98112   0.92723   0.62621   0.00000  Uiso   1.00
H24    H     0.98613   0.11266   0.59563   0.00000  Uiso   1.00
H25    H     0.80436   0.16299   0.59276   0.00000  Uiso   1.00
H26    H     0.23329   0.15159   0.67331   0.00000  Uiso   1.00
H27    H     0.90774   0.03144   0.50060   0.00000  Uiso   1.00
H28    H     0.62350   0.20613   0.62152   0.00000  Uiso   1.00
H29    H     0.52793   0.18208   0.79135   0.00000  Uiso   1.00
H30    H     0.84145   0.92874   0.42715   0.00000  Uiso   1.00
H31    H     0.14504   0.01512   0.84163   0.00000  Uiso   1.00
H32    H     0.97198   0.06009   0.85226   0.00000  Uiso   1.00
H33    H     0.40092   0.04869   0.93281   0.00000  Uiso   1.00
H34    H     0.07537   0.92855   0.76010   0.00000  Uiso   1.00
H35    H     0.75955   0.12262   0.83214   0.00000  Uiso   1.00
H36    H     0.66399   0.09857   0.00197   0.00000  Uiso   1.00
H37    H     0.97750   0.84523   0.63778   0.00000  Uiso   1.00
O38    O     0.57485   0.19573   0.72940   0.00000  Uiso   1.00
O39    O     0.76143   0.16418   0.95220   0.00000  Uiso   1.00
O40    O     0.86078   0.83180   0.47439   0.00000  Uiso   1.00
N41    N     0.67925   0.18030   0.66962   0.00000  Uiso   1.00
N42    N     0.52483   0.15782   0.82841   0.00000  Uiso   1.00
N43    N     0.88307   0.92097   0.48792   0.00000  Uiso   1.00
N44    N     0.75245   0.13536   0.78295   0.00000  Uiso   1.00
N45    N     0.59804   0.11289   0.94174   0.00000  Uiso   1.00
N46    N     0.95627   0.87603   0.60126   0.00000  Uiso   1.00
C47    C     0.47628   0.64176   0.10549   0.00000  Uiso   1.00
C48    C     0.39853   0.66104   0.13498   0.00000  Uiso   1.00
C49    C     0.28575   0.69494   0.09009   0.00000  Uiso   1.00
C50    C     0.22920   0.70787   0.12800   0.00000  Uiso   1.00
C51    C     0.10025   0.74091   0.16166   0.00000  Uiso   1.00
C52    C     0.63081   0.65538   0.17756   0.00000  Uiso   1.00
C53    C     0.71332   0.68452   0.16845   0.00000  Uiso   1.00
C54    C     0.85231   0.69267   0.24220   0.00000  Uiso   1.00
C55    C     0.08400   0.71690   0.34194   0.00000  Uiso   1.00
C56    C     0.46812   0.58328   0.10477   0.00000  Uiso   1.00
C57    C     0.41388   0.55178   0.03447   0.00000  Uiso   1.00
C58    C     0.41593   0.49922   0.04693   0.00000  Uiso   1.00
C59    C     0.39503   0.41149   0.03366   0.00000  Uiso   1.00
C60    C     0.57640   0.60442   0.25263   0.00000  Uiso   1.00
C61    C     0.45292   0.64076   0.21491   0.00000  Uiso   1.00
C62    C     0.39652   0.65364   0.25289   0.00000  Uiso   1.00
C63    C     0.28367   0.68755   0.20806   0.00000  Uiso   1.00
C64    C     0.68519   0.63510   0.25748   0.00000  Uiso   1.00
C65    C     0.82409   0.64321   0.33125   0.00000  Uiso   1.00
C66    C     0.90679   0.67236   0.32226   0.00000  Uiso   1.00
C67    C     0.52250   0.56299   0.18469   0.00000  Uiso   1.00
C68    C     0.52465   0.51047   0.19726   0.00000  Uiso   1.00
C69    C     0.47042   0.47891   0.12700   0.00000  Uiso   1.00
H70    H     0.43395   0.65755   0.04327   0.00000  Uiso   1.00
H71    H     0.24370   0.71063   0.02825   0.00000  Uiso   1.00
H72    H     0.67121   0.70021   0.10660   0.00000  Uiso   1.00
H73    H     0.37181   0.56749   0.97263   0.00000  Uiso   1.00
H74    H     0.05680   0.76056   0.04685   0.00000  Uiso   1.00
H75    H     0.95823   0.73856   0.21205   0.00000  Uiso   1.00
H76    H     0.32689   0.45869   0.92956   0.00000  Uiso   1.00
H77    H     0.61874   0.58863   0.31486   0.00000  Uiso   1.00
H78    H     0.43863   0.63794   0.31474   0.00000  Uiso   1.00
H79    H     0.86614   0.62751   0.39308   0.00000  Uiso   1.00
H80    H     0.56674   0.49479   0.25912   0.00000  Uiso   1.00
H81    H     0.21501   0.70156   0.27938   0.00000  Uiso   1.00
H82    H     0.11645   0.67955   0.44457   0.00000  Uiso   1.00
H83    H     0.48511   0.39969   0.16208   0.00000  Uiso   1.00
O84    O     0.01412   0.76475   0.15815   0.00000  Uiso   1.00
O85    O     0.19676   0.73587   0.37487   0.00000  Uiso   1.00
O86    O     0.36846   0.36870   0.00425   0.00000  Uiso   1.00
N87    N     0.11873   0.73990   0.10159   0.00000  Uiso   1.00
N88    N     0.96151   0.71933   0.25604   0.00000  Uiso   1.00
N89    N     0.37130   0.45769   0.99194   0.00000  Uiso   1.00
N90    N     0.20386   0.70815   0.22671   0.00000  Uiso   1.00
N91    N     0.04664   0.68758   0.38116   0.00000  Uiso   1.00
N92    N     0.45643   0.42594   0.11706   0.00000  Uiso   1.00
C93    C     0.97747   0.59031   0.84801   0.00000  Uiso   1.00
C94    C     0.05420   0.60413   0.81547   0.00000  Uiso   1.00
C95    C     0.15949   0.64078   0.85122   0.00000  Uiso   1.00
C96    C     0.21642   0.64772   0.81198   0.00000  Uiso   1.00
C97    C     0.34263   0.67355   0.77243   0.00000  Uiso   1.00
C98    C     0.82115   0.59794   0.77170   0.00000  Uiso   1.00
C99    C     0.73049   0.62938   0.77066   0.00000  Uiso   1.00
C100   C     0.59124   0.63111   0.69457   0.00000  Uiso   1.00
C101   C     0.35561   0.64731   0.58709   0.00000  Uiso   1.00
C102   C     0.99805   0.53266   0.86554   0.00000  Uiso   1.00
C103   C     0.05608   0.50922   0.94340   0.00000  Uiso   1.00
C104   C     0.06573   0.45599   0.94631   0.00000  Uiso   1.00
C105   C     0.10476   0.37084   0.98453   0.00000  Uiso   1.00
C106   C     0.89137   0.53747   0.71473   0.00000  Uiso   1.00
C107   C     0.00743   0.57542   0.74307   0.00000  Uiso   1.00
C108   C     0.06423   0.58231   0.70376   0.00000  Uiso   1.00
C109   C     0.16958   0.61896   0.73946   0.00000  Uiso   1.00
C110   C     0.77439   0.56924   0.69930   0.00000  Uiso   1.00
C111   C     0.63524   0.57091   0.62320   0.00000  Uiso   1.00
C112   C     0.54439   0.60235   0.62205   0.00000  Uiso   1.00
C113   C     0.95128   0.50396   0.79314   0.00000  Uiso   1.00
C114   C     0.96083   0.45075   0.79594   0.00000  Uiso   1.00
C115   C     0.01888   0.42723   0.87379   0.00000  Uiso   1.00
H116   H     0.01387   0.61266   0.90437   0.00000  Uiso   1.00
H117   H     0.19564   0.66299   0.90724   0.00000  Uiso   1.00
H118   H     0.76671   0.65159   0.82669   0.00000  Uiso   1.00
H119   H     0.09226   0.53144   0.99940   0.00000  Uiso   1.00
H120   H     0.37650   0.70613   0.87848   0.00000  Uiso   1.00
H121   H     0.47207   0.68208   0.70865   0.00000  Uiso   1.00
H122   H     0.15855   0.42874   0.07285   0.00000  Uiso   1.00
H123   H     0.85496   0.51512   0.65837   0.00000  Uiso   1.00
H124   H     0.02802   0.56009   0.64774   0.00000  Uiso   1.00
H125   H     0.59908   0.54869   0.56719   0.00000  Uiso   1.00
H126   H     0.92463   0.42855   0.73990   0.00000  Uiso   1.00
H127   H     0.24045   0.62262   0.66786   0.00000  Uiso   1.00
H128   H     0.33601   0.59857   0.49803   0.00000  Uiso   1.00
H129   H     0.02250   0.34523   0.86222   0.00000  Uiso   1.00
O130   O     0.42515   0.69573   0.77060   0.00000  Uiso   1.00
O131   O     0.23857   0.66418   0.54780   0.00000  Uiso   1.00
O132   O     0.13922   0.33180   0.02561   0.00000  Uiso   1.00
N133   N     0.32075   0.68030   0.83038   0.00000  Uiso   1.00
N134   N     0.47517   0.65782   0.67159   0.00000  Uiso   1.00
N135   N     0.11693   0.42097   0.01208   0.00000  Uiso   1.00
N136   N     0.24755   0.63536   0.71705   0.00000  Uiso   1.00
N137   N     0.40196   0.61289   0.55826   0.00000  Uiso   1.00
N138   N     0.04373   0.37603   0.89874   0.00000  Uiso   1.00
C139   C     0.52372   0.14176   0.39451   0.00000  Uiso   1.00
C140   C     0.60147   0.16104   0.36502   0.00000  Uiso   1.00
C141   C     0.71425   0.19494   0.40991   0.00000  Uiso   1.00
C142   C     0.77080   0.20787   0.37200   0.00000  Uiso   1.00
C143   C     0.89975   0.24091   0.33834   0.00000  Uiso   1.00
C144   C     0.36919   0.15538   0.32244   0.00000  Uiso   1.00
C145   C     0.28668   0.18452   0.33155   0.00000  Uiso   1.00
C146   C     0.14769   0.19267   0.25780   0.00000  Uiso   1.00
C147   C     0.91600   0.21690   0.15806   0.00000  Uiso   1.00
C148   C     0.53188   0.08328   0.39523   0.00000  Uiso   1.00
C149   C     0.58612   0.05178   0.46553   0.00000  Uiso   1.00
C150   C     0.58407   0.99922   0.45307   0.00000  Uiso   1.00
C151   C     0.60497   0.91149   0.46634   0.00000  Uiso   1.00
C152   C     0.42360   0.10442   0.24737   0.00000  Uiso   1.00
C153   C     0.54708   0.14076   0.28509   0.00000  Uiso   1.00
C154   C     0.60348   0.15364   0.24711   0.00000  Uiso   1.00
C155   C     0.71633   0.18755   0.29194   0.00000  Uiso   1.00
C156   C     0.31481   0.13510   0.24252   0.00000  Uiso   1.00
C157   C     0.17591   0.14321   0.16875   0.00000  Uiso   1.00
C158   C     0.09321   0.17236   0.17774   0.00000  Uiso   1.00
C159   C     0.47750   0.06299   0.31531   0.00000  Uiso   1.00
C160   C     0.47535   0.01047   0.30274   0.00000  Uiso   1.00
C161   C     0.52958   0.97891   0.37300   0.00000  Uiso   1.00
H162   H     0.56605   0.15755   0.45673   0.00000  Uiso   1.00
H163   H     0.75630   0.21063   0.47175   0.00000  Uiso   1.00
H164   H     0.32879   0.20021   0.39340   0.00000  Uiso   1.00
H165   H     0.62819   0.06749   0.52737   0.00000  Uiso   1.00
H166   H     0.94320   0.26056   0.45315   0.00000  Uiso   1.00
H167   H     0.04177   0.23856   0.28795   0.00000  Uiso   1.00
H168   H     0.67311   0.95869   0.57044   0.00000  Uiso   1.00
H169   H     0.38126   0.08863   0.18514   0.00000  Uiso   1.00
H170   H     0.56137   0.13794   0.18526   0.00000  Uiso   1.00
H171   H     0.13386   0.12751   0.10692   0.00000  Uiso   1.00
H172   H     0.43326   0.99479   0.24088   0.00000  Uiso   1.00
H173   H     0.78499   0.20156   0.22062   0.00000  Uiso   1.00
H174   H     0.88355   0.17955   0.05543   0.00000  Uiso   1.00
H175   H     0.51489   0.89969   0.33792   0.00000  Uiso   1.00
O176   O     0.98588   0.26475   0.34185   0.00000  Uiso   1.00
O177   O     0.80324   0.23587   0.12513   0.00000  Uiso   1.00
O178   O     0.63154   0.86870   0.49575   0.00000  Uiso   1.00
N179   N     0.88127   0.23990   0.39841   0.00000  Uiso   1.00
N180   N     0.03849   0.21933   0.24396   0.00000  Uiso   1.00
N181   N     0.62870   0.95769   0.50806   0.00000  Uiso   1.00
N182   N     0.79614   0.20815   0.27329   0.00000  Uiso   1.00
N183   N     0.95336   0.18758   0.11884   0.00000  Uiso   1.00
N184   N     0.54357   0.92594   0.38294   0.00000  Uiso   1.00
C185   C     0.97747   0.90969   0.34801   0.00000  Uiso   1.00
C186   C     0.05420   0.89587   0.31547   0.00000  Uiso   1.00
C187   C     0.15949   0.85922   0.35122   0.00000  Uiso   1.00
C188   C     0.21642   0.85228   0.31198   0.00000  Uiso   1.00
C189   C     0.34263   0.82645   0.27243   0.00000  Uiso   1.00
C190   C     0.82115   0.90206   0.27170   0.00000  Uiso   1.00
C191   C     0.73049   0.87062   0.27066   0.00000  Uiso   1.00
C192   C     0.59124   0.86889   0.19457   0.00000  Uiso   1.00
C193   C     0.35561   0.85269   0.08709   0.00000  Uiso   1.00
C194   C     0.99805   0.96734   0.36554   0.00000  Uiso   1.00
C195   C     0.05608   0.99078   0.44340   0.00000  Uiso   1.00
C196   C     0.06573   0.04401   0.44631   0.00000  Uiso   1.00
C197   C     0.10476   0.12916   0.48453   0.00000  Uiso   1.00
C198   C     0.89137   0.96253   0.21473   0.00000  Uiso   1.00
C199   C     0.00743   0.92458   0.24307   0.00000  Uiso   1.00
C200   C     0.06423   0.91769   0.20376   0.00000  Uiso   1.00
C201   C     0.16958   0.88104   0.23946   0.00000  Uiso   1.00
C202   C     0.77439   0.93076   0.19930   0.00000  Uiso   1.00
C203   C     0.63524   0.92909   0.12320   0.00000  Uiso   1.00
C204   C     0.54439   0.89765   0.12205   0.00000  Uiso   1.00
C205   C     0.95128   0.99604   0.29314   0.00000  Uiso   1.00
C206   C     0.96083   0.04925   0.29594   0.00000  Uiso   1.00
C207   C     0.01888   0.07277   0.37379   0.00000  Uiso   1.00
H208   H     0.01387   0.88734   0.40437   0.00000  Uiso   1.00
H209   H     0.19564   0.83701   0.40724   0.00000  Uiso   1.00
H210   H     0.76671   0.84841   0.32669   0.00000  Uiso   1.00
H211   H     0.09226   0.96856   0.49940   0.00000  Uiso   1.00
H212   H     0.37650   0.79387   0.37848   0.00000  Uiso   1.00
H213   H     0.47207   0.81792   0.20865   0.00000  Uiso   1.00
H214   H     0.15855   0.07126   0.57285   0.00000  Uiso   1.00
H215   H     0.85496   0.98488   0.15837   0.00000  Uiso   1.00
H216   H     0.02802   0.93991   0.14774   0.00000  Uiso   1.00
H217   H     0.59908   0.95131   0.06719   0.00000  Uiso   1.00
H218   H     0.92463   0.07145   0.23990   0.00000  Uiso   1.00
H219   H     0.24045   0.87738   0.16786   0.00000  Uiso   1.00
H220   H     0.33601   0.90143   0.99803   0.00000  Uiso   1.00
H221   H     0.02250   0.15477   0.36222   0.00000  Uiso   1.00
O222   O     0.42515   0.80427   0.27060   0.00000  Uiso   1.00
O223   O     0.23857   0.83582   0.04780   0.00000  Uiso   1.00
O224   O     0.13922   0.16820   0.52561   0.00000  Uiso   1.00
N225   N     0.32075   0.81970   0.33038   0.00000  Uiso   1.00
N226   N     0.47517   0.84218   0.17159   0.00000  Uiso   1.00
N227   N     0.11693   0.07903   0.51208   0.00000  Uiso   1.00
N228   N     0.24755   0.86464   0.21705   0.00000  Uiso   1.00
N229   N     0.40196   0.88711   0.05826   0.00000  Uiso   1.00
N230   N     0.04373   0.12397   0.39874   0.00000  Uiso   1.00
C231   C     0.52372   0.35824   0.89451   0.00000  Uiso   1.00
C232   C     0.60147   0.33896   0.86502   0.00000  Uiso   1.00
C233   C     0.71425   0.30506   0.90991   0.00000  Uiso   1.00
C234   C     0.77080   0.29213   0.87200   0.00000  Uiso   1.00
C235   C     0.89975   0.25909   0.83834   0.00000  Uiso   1.00
C236   C     0.36919   0.34462   0.82244   0.00000  Uiso   1.00
C237   C     0.28668   0.31548   0.83155   0.00000  Uiso   1.00
C238   C     0.14769   0.30733   0.75780   0.00000  Uiso   1.00
C239   C     0.91600   0.28310   0.65806   0.00000  Uiso   1.00
C240   C     0.53188   0.41672   0.89523   0.00000  Uiso   1.00
C241   C     0.58612   0.44822   0.96553   0.00000  Uiso   1.00
C242   C     0.58407   0.50078   0.95307   0.00000  Uiso   1.00
C243   C     0.60497   0.58851   0.96634   0.00000  Uiso   1.00
C244   C     0.42360   0.39558   0.74737   0.00000  Uiso   1.00
C245   C     0.54708   0.35924   0.78509   0.00000  Uiso   1.00
C246   C     0.60348   0.34636   0.74711   0.00000  Uiso   1.00
C247   C     0.71633   0.31245   0.79194   0.00000  Uiso   1.00
C248   C     0.31481   0.36490   0.74252   0.00000  Uiso   1.00
C249   C     0.17591   0.35679   0.66875   0.00000  Uiso   1.00
C250   C     0.09321   0.32764   0.67774   0.00000  Uiso   1.00
C251   C     0.47750   0.43701   0.81531   0.00000  Uiso   1.00
C252   C     0.47535   0.48953   0.80274   0.00000  Uiso   1.00
C253   C     0.52958   0.52109   0.87300   0.00000  Uiso   1.00
H254   H     0.56605   0.34245   0.95673   0.00000  Uiso   1.00
H255   H     0.75630   0.28937   0.97175   0.00000  Uiso   1.00
H256   H     0.32879   0.29979   0.89340   0.00000  Uiso   1.00
H257   H     0.62819   0.43251   0.02737   0.00000  Uiso   1.00
H258   H     0.94320   0.23944   0.95315   0.00000  Uiso   1.00
H259   H     0.04177   0.26144   0.78795   0.00000  Uiso   1.00
H260   H     0.67311   0.54131   0.07044   0.00000  Uiso   1.00
H261   H     0.38126   0.41137   0.68514   0.00000  Uiso   1.00
H262   H     0.56137   0.36206   0.68526   0.00000  Uiso   1.00
H263   H     0.13386   0.37249   0.60692   0.00000  Uiso   1.00
H264   H     0.43326   0.50521   0.74088   0.00000  Uiso   1.00
H265   H     0.78499   0.29844   0.72062   0.00000  Uiso   1.00
H266   H     0.88355   0.32045   0.55543   0.00000  Uiso   1.00
H267   H     0.51489   0.60031   0.83792   0.00000  Uiso   1.00
O268   O     0.98588   0.23525   0.84185   0.00000  Uiso   1.00
O269   O     0.80324   0.26413   0.62513   0.00000  Uiso   1.00
O270   O     0.63154   0.63130   0.99575   0.00000  Uiso   1.00
N271   N     0.88127   0.26010   0.89841   0.00000  Uiso   1.00
N272   N     0.03849   0.28067   0.74396   0.00000  Uiso   1.00
N273   N     0.62870   0.54231   0.00806   0.00000  Uiso   1.00
N274   N     0.79614   0.29185   0.77329   0.00000  Uiso   1.00
N275   N     0.95336   0.31242   0.61884   0.00000  Uiso   1.00
N276   N     0.54357   0.57406   0.88294   0.00000  Uiso   1.00
C277   C     0.02253   0.40969   0.15199   0.00000  Uiso   1.00
C278   C     0.94580   0.39587   0.18453   0.00000  Uiso   1.00
C279   C     0.84051   0.35922   0.14878   0.00000  Uiso   1.00
C280   C     0.78358   0.35228   0.18802   0.00000  Uiso   1.00
C281   C     0.65737   0.32645   0.22757   0.00000  Uiso   1.00
C282   C     0.17885   0.40206   0.22830   0.00000  Uiso   1.00
C283   C     0.26951   0.37062   0.22934   0.00000  Uiso   1.00
C284   C     0.40876   0.36889   0.30543   0.00000  Uiso   1.00
C285   C     0.64439   0.35269   0.41291   0.00000  Uiso   1.00
C286   C     0.00195   0.46734   0.13446   0.00000  Uiso   1.00
C287   C     0.94392   0.49078   0.05660   0.00000  Uiso   1.00
C288   C     0.93427   0.54401   0.05369   0.00000  Uiso   1.00
C289   C     0.89524   0.62916   0.01547   0.00000  Uiso   1.00
C290   C     0.10863   0.46253   0.28527   0.00000  Uiso   1.00
C291   C     0.99257   0.42458   0.25693   0.00000  Uiso   1.00
C292   C     0.93577   0.41769   0.29624   0.00000  Uiso   1.00
C293   C     0.83042   0.38104   0.26054   0.00000  Uiso   1.00
C294   C     0.22561   0.43076   0.30070   0.00000  Uiso   1.00
C295   C     0.36476   0.42909   0.37680   0.00000  Uiso   1.00
C296   C     0.45561   0.39765   0.37795   0.00000  Uiso   1.00
C297   C     0.04872   0.49604   0.20686   0.00000  Uiso   1.00
C298   C     0.03917   0.54925   0.20406   0.00000  Uiso   1.00
C299   C     0.98112   0.57277   0.12621   0.00000  Uiso   1.00
H300   H     0.98613   0.38734   0.09563   0.00000  Uiso   1.00
H301   H     0.80436   0.33701   0.09276   0.00000  Uiso   1.00
H302   H     0.23329   0.34841   0.17331   0.00000  Uiso   1.00
H303   H     0.90774   0.46856   0.00060   0.00000  Uiso   1.00
H304   H     0.62350   0.29387   0.12152   0.00000  Uiso   1.00
H305   H     0.52793   0.31792   0.29135   0.00000  Uiso   1.00
H306   H     0.84145   0.57126   0.92715   0.00000  Uiso   1.00
H307   H     0.14504   0.48488   0.34163   0.00000  Uiso   1.00
H308   H     0.97198   0.43991   0.35226   0.00000  Uiso   1.00
H309   H     0.40092   0.45131   0.43281   0.00000  Uiso   1.00
H310   H     0.07537   0.57145   0.26010   0.00000  Uiso   1.00
H311   H     0.75955   0.37738   0.33214   0.00000  Uiso   1.00
H312   H     0.66399   0.40143   0.50197   0.00000  Uiso   1.00
H313   H     0.97750   0.65477   0.13778   0.00000  Uiso   1.00
O314   O     0.57485   0.30427   0.22940   0.00000  Uiso   1.00
O315   O     0.76143   0.33582   0.45220   0.00000  Uiso   1.00
O316   O     0.86078   0.66820   0.97439   0.00000  Uiso   1.00
N317   N     0.67925   0.31970   0.16962   0.00000  Uiso   1.00
N318   N     0.52483   0.34218   0.32841   0.00000  Uiso   1.00
N319   N     0.88307   0.57903   0.98792   0.00000  Uiso   1.00
N320   N     0.75245   0.36464   0.28295   0.00000  Uiso   1.00
N321   N     0.59804   0.38711   0.44174   0.00000  Uiso   1.00
N322   N     0.95627   0.62397   0.10126   0.00000  Uiso   1.00
C323   C     0.47628   0.85824   0.60549   0.00000  Uiso   1.00
C324   C     0.39853   0.83896   0.63498   0.00000  Uiso   1.00
C325   C     0.28575   0.80506   0.59009   0.00000  Uiso   1.00
C326   C     0.22920   0.79213   0.62800   0.00000  Uiso   1.00
C327   C     0.10025   0.75909   0.66166   0.00000  Uiso   1.00
C328   C     0.63081   0.84462   0.67756   0.00000  Uiso   1.00
C329   C     0.71332   0.81548   0.66845   0.00000  Uiso   1.00
C330   C     0.85231   0.80733   0.74220   0.00000  Uiso   1.00
C331   C     0.08400   0.78310   0.84194   0.00000  Uiso   1.00
C332   C     0.46812   0.91672   0.60477   0.00000  Uiso   1.00
C333   C     0.41388   0.94822   0.53447   0.00000  Uiso   1.00
C334   C     0.41593   0.00078   0.54693   0.00000  Uiso   1.00
C335   C     0.39503   0.08851   0.53366   0.00000  Uiso   1.00
C336   C     0.57640   0.89558   0.75263   0.00000  Uiso   1.00
C337   C     0.45292   0.85924   0.71491   0.00000  Uiso   1.00
C338   C     0.39652   0.84636   0.75289   0.00000  Uiso   1.00
C339   C     0.28367   0.81245   0.70806   0.00000  Uiso   1.00
C340   C     0.68519   0.86490   0.75748   0.00000  Uiso   1.00
C341   C     0.82409   0.85679   0.83125   0.00000  Uiso   1.00
C342   C     0.90679   0.82764   0.82226   0.00000  Uiso   1.00
C343   C     0.52250   0.93701   0.68469   0.00000  Uiso   1.00
C344   C     0.52465   0.98953   0.69726   0.00000  Uiso   1.00
C345   C     0.47042   0.02109   0.62700   0.00000  Uiso   1.00
H346   H     0.43395   0.84245   0.54327   0.00000  Uiso   1.00
H347   H     0.24370   0.78937   0.52825   0.00000  Uiso   1.00
H348   H     0.67121   0.79979   0.60660   0.00000  Uiso   1.00
H349   H     0.37181   0.93251   0.47263   0.00000  Uiso   1.00
H350   H     0.05680   0.73944   0.54685   0.00000  Uiso   1.00
H351   H     0.95823   0.76144   0.71205   0.00000  Uiso   1.00
H352   H     0.32689   0.04131   0.42956   0.00000  Uiso   1.00
H353   H     0.61874   0.91137   0.81486   0.00000  Uiso   1.00
H354   H     0.43863   0.86206   0.81474   0.00000  Uiso   1.00
H355   H     0.86614   0.87249   0.89308   0.00000  Uiso   1.00
H356   H     0.56674   0.00521   0.75912   0.00000  Uiso   1.00
H357   H     0.21501   0.79844   0.77938   0.00000  Uiso   1.00
H358   H     0.11645   0.82045   0.94457   0.00000  Uiso   1.00
H359   H     0.48511   0.10031   0.66208   0.00000  Uiso   1.00
O360   O     0.01412   0.73525   0.65815   0.00000  Uiso   1.00
O361   O     0.19676   0.76413   0.87487   0.00000  Uiso   1.00
O362   O     0.36846   0.13130   0.50425   0.00000  Uiso   1.00
N363   N     0.11873   0.76010   0.60159   0.00000  Uiso   1.00
N364   N     0.96151   0.78067   0.75604   0.00000  Uiso   1.00
N365   N     0.37130   0.04231   0.49194   0.00000  Uiso   1.00
N366   N     0.20386   0.79185   0.72671   0.00000  Uiso   1.00
N367   N     0.04664   0.81242   0.88116   0.00000  Uiso   1.00
N368   N     0.45643   0.07406   0.61706   0.00000  Uiso   1.00
