data_job_06771
_audit_creation_date              2018-12-19
_audit_creation_method            'Materials Studio'
_symmetry_space_group_name_H-M    'P1'
_symmetry_Int_Tables_number       1
_symmetry_cell_setting            triclinic
loop_
_symmetry_equiv_pos_as_xyz
  x,y,z
_cell_length_a                    21.0068
_cell_length_b                    21.4863
_cell_length_c                    23.1822
_cell_angle_alpha                 75.8205
_cell_angle_beta                  77.6474
_cell_angle_gamma                 119.0520
loop_
_atom_site_label
_atom_site_type_symbol
_atom_site_fract_x
_atom_site_fract_y
_atom_site_fract_z
_atom_site_U_iso_or_equiv
_atom_site_adp_type
_atom_site_occupancy
C1     C     0.40609   0.00289   0.97037   0.00000  Uiso   1.00
C2     C     0.31660   0.94445   0.00546   0.00000  Uiso   1.00
C3     C     0.26030   0.94907   0.98621   0.00000  Uiso   1.00
C4     C     0.18140   0.88981   0.02490   0.00000  Uiso   1.00
C5     C     0.04574   0.80846   0.07091   0.00000  Uiso   1.00
C6     C     0.43547   0.03038   0.01984   0.00000  Uiso   1.00
C7     C     0.47913   0.10726   0.01266   0.00000  Uiso   1.00
C8     C     0.50031   0.12033   0.06345   0.00000  Uiso   1.00
C9     C     0.54925   0.17241   0.13175   0.00000  Uiso   1.00
C10    C     0.43880   0.95607   0.95636   0.00000  Uiso   1.00
C11    C     0.48527   0.97047   0.89582   0.00000  Uiso   1.00
C12    C     0.50927   0.92098   0.89317   0.00000  Uiso   1.00
C13    C     0.56337   0.85768   0.86292   0.00000  Uiso   1.00
C14    C     0.36609   0.88941   0.07331   0.00000  Uiso   1.00
C15    C     0.29487   0.88281   0.06138   0.00000  Uiso   1.00
C16    C     0.21604   0.82352   0.10011   0.00000  Uiso   1.00
C17    C     0.15963   0.82805   0.08092   0.00000  Uiso   1.00
C18    C     0.41374   0.96875   0.07575   0.00000  Uiso   1.00
C19    C     0.43487   0.98171   0.12656   0.00000  Uiso   1.00
C20    C     0.47854   0.05858   0.11947   0.00000  Uiso   1.00
C21    C     0.41707   0.89443   0.01228   0.00000  Uiso   1.00
C22    C     0.44100   0.84492   0.00972   0.00000  Uiso   1.00
C23    C     0.48750   0.85924   0.94919   0.00000  Uiso   1.00
H24    H     0.42301   0.05088   0.92684   0.00000  Uiso   1.00
H25    H     0.27714   0.99679   0.94294   0.00000  Uiso   1.00
H26    H     0.49594   0.15495   0.96939   0.00000  Uiso   1.00
H27    H     0.50207   0.01818   0.85257   0.00000  Uiso   1.00
H28    H     0.10582   0.90965   0.98546   0.00000  Uiso   1.00
H29    H     0.56721   0.24314   0.04121   0.00000  Uiso   1.00
H30    H     0.58014   0.95474   0.79487   0.00000  Uiso   1.00
H31    H     0.34917   0.84142   0.11685   0.00000  Uiso   1.00
H32    H     0.19924   0.77583   0.14337   0.00000  Uiso   1.00
H33    H     0.41805   0.93400   0.16982   0.00000  Uiso   1.00
H34    H     0.42418   0.79722   0.05300   0.00000  Uiso   1.00
H35    H     0.04260   0.73031   0.14814   0.00000  Uiso   1.00
H36    H     0.50399   0.06381   0.20389   0.00000  Uiso   1.00
H37    H     0.51692   0.77540   0.95755   0.00000  Uiso   1.00
O38    O     0.97691   0.78063   0.08084   0.00000  Uiso   1.00
O39    O     0.58225   0.21816   0.15397   0.00000  Uiso   1.00
O40    O     0.59921   0.83978   0.83078   0.00000  Uiso   1.00
N41    N     0.11152   0.87644   0.02010   0.00000  Uiso   1.00
N42    N     0.54288   0.18823   0.07223   0.00000  Uiso   1.00
N43    N     0.55499   0.91861   0.84192   0.00000  Uiso   1.00
N44    N     0.07750   0.77994   0.10764   0.00000  Uiso   1.00
N45    N     0.50886   0.09174   0.15977   0.00000  Uiso   1.00
N46    N     0.52097   0.82211   0.92946   0.00000  Uiso   1.00
C47    C     0.00509   0.04821   0.98191   0.00000  Uiso   1.00
C48    C     0.94284   0.96133   0.00457   0.00000  Uiso   1.00
C49    C     0.89250   0.90889   0.06822   0.00000  Uiso   1.00
C50    C     0.83972   0.83188   0.07894   0.00000  Uiso   1.00
C51    C     0.74343   0.70057   0.12190   0.00000  Uiso   1.00
C52    C     0.08358   0.06309   0.94391   0.00000  Uiso   1.00
C53    C     0.15157   0.09621   0.95655   0.00000  Uiso   1.00
C54    C     0.21727   0.10487   0.91619   0.00000  Uiso   1.00
C55    C     0.33950   0.13159   0.86495   0.00000  Uiso   1.00
C56    C     0.98599   0.09040   0.93274   0.00000  Uiso   1.00
C57    C     0.97195   0.14651   0.93597   0.00000  Uiso   1.00
C58    C     0.95551   0.17818   0.88620   0.00000  Uiso   1.00
C59    C     0.92622   0.24731   0.81761   0.00000  Uiso   1.00
C60    C     0.00090   0.00472   0.88775   0.00000  Uiso   1.00
C61    C     0.94057   0.93771   0.95342   0.00000  Uiso   1.00
C62    C     0.88786   0.86077   0.96404   0.00000  Uiso   1.00
C63    C     0.83744   0.80822   0.02770   0.00000  Uiso   1.00
C64    C     0.08131   0.03947   0.89276   0.00000  Uiso   1.00
C65    C     0.14693   0.04809   0.85237   0.00000  Uiso   1.00
C66    C     0.21499   0.08120   0.86495   0.00000  Uiso   1.00
C67    C     0.98372   0.06678   0.88159   0.00000  Uiso   1.00
C68    C     0.96730   0.09838   0.83180   0.00000  Uiso   1.00
C69    C     0.95323   0.15452   0.83496   0.00000  Uiso   1.00
H70    H     0.00687   0.06660   0.02173   0.00000  Uiso   1.00
H71    H     0.89428   0.92719   0.10779   0.00000  Uiso   1.00
H72    H     0.15331   0.11449   0.99613   0.00000  Uiso   1.00
H73    H     0.97372   0.16477   0.97556   0.00000  Uiso   1.00
H74    H     0.76847   0.76220   0.18065   0.00000  Uiso   1.00
H75    H     0.31466   0.15715   0.94520   0.00000  Uiso   1.00
H76    H     0.93595   0.26319   0.90182   0.00000  Uiso   1.00
H77    H     0.99913   0.98633   0.84793   0.00000  Uiso   1.00
H78    H     0.88611   0.84250   0.92446   0.00000  Uiso   1.00
H79    H     0.14514   0.02980   0.81280   0.00000  Uiso   1.00
H80    H     0.96555   0.08009   0.79223   0.00000  Uiso   1.00
H81    H     0.76184   0.69347   0.03185   0.00000  Uiso   1.00
H82    H     0.30803   0.08842   0.79639   0.00000  Uiso   1.00
H83    H     0.92932   0.19446   0.75302   0.00000  Uiso   1.00
O84    O     0.69096   0.63467   0.15973   0.00000  Uiso   1.00
O85    O     0.40754   0.15284   0.85082   0.00000  Uiso   1.00
O86    O     0.91068   0.29196   0.79391   0.00000  Uiso   1.00
N87    N     0.78241   0.76576   0.13513   0.00000  Uiso   1.00
N88    N     0.29306   0.13501   0.91500   0.00000  Uiso   1.00
N89    N     0.93902   0.23416   0.87444   0.00000  Uiso   1.00
N90    N     0.77884   0.72878   0.05506   0.00000  Uiso   1.00
N91    N     0.28949   0.09802   0.83493   0.00000  Uiso   1.00
N92    N     0.93545   0.19718   0.79437   0.00000  Uiso   1.00
C93    C     0.03543   0.76497   0.28967   0.00000  Uiso   1.00
C94    C     0.97215   0.71223   0.26965   0.00000  Uiso   1.00
C95    C     0.96281   0.64751   0.26009   0.00000  Uiso   1.00
C96    C     0.90133   0.60694   0.24185   0.00000  Uiso   1.00
C97    C     0.81075   0.52151   0.21200   0.00000  Uiso   1.00
C98    C     0.07959   0.84730   0.23770   0.00000  Uiso   1.00
C99    C     0.16059   0.89615   0.20129   0.00000  Uiso   1.00
C100   C     0.18954   0.96929   0.15617   0.00000  Uiso   1.00
C101   C     0.26578   0.09359   0.07675   0.00000  Uiso   1.00
C102   C     0.99110   0.76487   0.35112   0.00000  Uiso   1.00
C103   C     0.99770   0.74444   0.41007   0.00000  Uiso   1.00
C104   C     0.95216   0.74819   0.46043   0.00000  Uiso   1.00
C105   C     0.89099   0.74451   0.55710   0.00000  Uiso   1.00
C106   C     0.94284   0.80800   0.27428   0.00000  Uiso   1.00
C107   C     0.92186   0.73561   0.26128   0.00000  Uiso   1.00
C108   C     0.86037   0.69512   0.24306   0.00000  Uiso   1.00
C109   C     0.85094   0.63035   0.23348   0.00000  Uiso   1.00
C110   C     0.02930   0.87068   0.22934   0.00000  Uiso   1.00
C111   C     0.05815   0.94376   0.18426   0.00000  Uiso   1.00
C112   C     0.13916   0.99271   0.14779   0.00000  Uiso   1.00
C113   C     0.94080   0.78825   0.34275   0.00000  Uiso   1.00
C114   C     0.89525   0.79205   0.39303   0.00000  Uiso   1.00
C115   C     0.90178   0.77161   0.45205   0.00000  Uiso   1.00
H116   H     0.07459   0.74678   0.29618   0.00000  Uiso   1.00
H117   H     0.00175   0.62944   0.26657   0.00000  Uiso   1.00
H118   H     0.19949   0.87805   0.20778   0.00000  Uiso   1.00
H119   H     0.03662   0.72635   0.41652   0.00000  Uiso   1.00
H120   H     0.89884   0.50968   0.23002   0.00000  Uiso   1.00
H121   H     0.31579   0.03389   0.10608   0.00000  Uiso   1.00
H122   H     0.97236   0.71401   0.54625   0.00000  Uiso   1.00
H123   H     0.90368   0.82621   0.26776   0.00000  Uiso   1.00
H124   H     0.82146   0.71322   0.23659   0.00000  Uiso   1.00
H125   H     0.01921   0.96183   0.17780   0.00000  Uiso   1.00
H126   H     0.85634   0.81014   0.38654   0.00000  Uiso   1.00
H127   H     0.75252   0.57768   0.20568   0.00000  Uiso   1.00
H128   H     0.16947   0.10189   0.08175   0.00000  Uiso   1.00
H129   H     0.82603   0.78201   0.52192   0.00000  Uiso   1.00
O130   O     0.77469   0.46794   0.19783   0.00000  Uiso   1.00
O131   O     0.32172   0.15569   0.03525   0.00000  Uiso   1.00
O132   O     0.87114   0.73601   0.61274   0.00000  Uiso   1.00
N133   N     0.87568   0.54118   0.22858   0.00000  Uiso   1.00
N134   N     0.26550   0.03128   0.11270   0.00000  Uiso   1.00
N135   N     0.94443   0.73224   0.52422   0.00000  Uiso   1.00
N136   N     0.79694   0.57777   0.21549   0.00000  Uiso   1.00
N137   N     0.18676   0.06787   0.09961   0.00000  Uiso   1.00
N138   N     0.86569   0.76883   0.51113   0.00000  Uiso   1.00
C139   C     0.62389   0.42520   0.50576   0.00000  Uiso   1.00
C140   C     0.53590   0.36168   0.52992   0.00000  Uiso   1.00
C141   C     0.48461   0.31365   0.59419   0.00000  Uiso   1.00
C142   C     0.40628   0.25917   0.60628   0.00000  Uiso   1.00
C143   C     0.27361   0.16150   0.65146   0.00000  Uiso   1.00
C144   C     0.63600   0.50036   0.46457   0.00000  Uiso   1.00
C145   C     0.66889   0.56893   0.47390   0.00000  Uiso   1.00
C146   C     0.67484   0.63119   0.43098   0.00000  Uiso   1.00
C147   C     0.69764   0.74883   0.37468   0.00000  Uiso   1.00
C148   C     0.66692   0.40581   0.45919   0.00000  Uiso   1.00
C149   C     0.72582   0.39490   0.46398   0.00000  Uiso   1.00
C150   C     0.75781   0.37758   0.41651   0.00000  Uiso   1.00
C151   C     0.82861   0.34843   0.35186   0.00000  Uiso   1.00
C152   C     0.57597   0.41386   0.41294   0.00000  Uiso   1.00
C153   C     0.50987   0.35552   0.47950   0.00000  Uiso   1.00
C154   C     0.43160   0.30110   0.49150   0.00000  Uiso   1.00
C155   C     0.38021   0.25300   0.55578   0.00000  Uiso   1.00
C156   C     0.60998   0.49420   0.41416   0.00000  Uiso   1.00
C157   C     0.61588   0.55638   0.37121   0.00000  Uiso   1.00
C158   C     0.64877   0.62502   0.38047   0.00000  Uiso   1.00
C159   C     0.64090   0.39965   0.40877   0.00000  Uiso   1.00
C160   C     0.67281   0.38235   0.36129   0.00000  Uiso   1.00
C161   C     0.73174   0.37141   0.36601   0.00000  Uiso   1.00
H162   H     0.64415   0.43001   0.54501   0.00000  Uiso   1.00
H163   H     0.50477   0.31844   0.63319   0.00000  Uiso   1.00
H164   H     0.68904   0.57368   0.51291   0.00000  Uiso   1.00
H165   H     0.74595   0.39968   0.50300   0.00000  Uiso   1.00
H166   H     0.33877   0.19205   0.70873   0.00000  Uiso   1.00
H167   H     0.72732   0.73024   0.45510   0.00000  Uiso   1.00
H168   H     0.84733   0.36333   0.43419   0.00000  Uiso   1.00
H169   H     0.55571   0.40907   0.37369   0.00000  Uiso   1.00
H170   H     0.41148   0.29635   0.45247   0.00000  Uiso   1.00
H171   H     0.59574   0.55159   0.33220   0.00000  Uiso   1.00
H172   H     0.65265   0.37759   0.32228   0.00000  Uiso   1.00
H173   H     0.26304   0.17412   0.56205   0.00000  Uiso   1.00
H174   H     0.65160   0.71232   0.30843   0.00000  Uiso   1.00
H175   H     0.77161   0.34540   0.28752   0.00000  Uiso   1.00
O176   O     0.20761   0.10933   0.69031   0.00000  Uiso   1.00
O177   O     0.71739   0.81542   0.35756   0.00000  Uiso   1.00
O178   O     0.87485   0.33404   0.33012   0.00000  Uiso   1.00
N179   N     0.34074   0.20329   0.66340   0.00000  Uiso   1.00
N180   N     0.70400   0.70646   0.42628   0.00000  Uiso   1.00
N181   N     0.81622   0.36345   0.40672   0.00000  Uiso   1.00
N182   N     0.30000   0.19364   0.58447   0.00000  Uiso   1.00
N183   N     0.66326   0.69682   0.34735   0.00000  Uiso   1.00
N184   N     0.77548   0.35380   0.32779   0.00000  Uiso   1.00
C185   C     0.33315   0.47371   0.77734   0.00000  Uiso   1.00
C186   C     0.28367   0.41538   0.75254   0.00000  Uiso   1.00
C187   C     0.21964   0.40778   0.73903   0.00000  Uiso   1.00
C188   C     0.18220   0.35091   0.71676   0.00000  Uiso   1.00
C189   C     0.10148   0.26758   0.67950   0.00000  Uiso   1.00
C190   C     0.41856   0.52020   0.72891   0.00000  Uiso   1.00
C191   C     0.46795   0.60073   0.69555   0.00000  Uiso   1.00
C192   C     0.54406   0.63209   0.65340   0.00000  Uiso   1.00
C193   C     0.67278   0.71151   0.57951   0.00000  Uiso   1.00
C194   C     0.32969   0.42561   0.83992   0.00000  Uiso   1.00
C195   C     0.30437   0.42663   0.89989   0.00000  Uiso   1.00
C196   C     0.30567   0.37837   0.95120   0.00000  Uiso   1.00
C197   C     0.29640   0.31093   0.04965   0.00000  Uiso   1.00
C198   C     0.38052   0.38622   0.76181   0.00000  Uiso   1.00
C199   C     0.30940   0.36786   0.74410   0.00000  Uiso   1.00
C200   C     0.27204   0.31098   0.72185   0.00000  Uiso   1.00
C201   C     0.20797   0.30330   0.70832   0.00000  Uiso   1.00
C202   C     0.44429   0.47268   0.72048   0.00000  Uiso   1.00
C203   C     0.52035   0.50393   0.67838   0.00000  Uiso   1.00
C204   C     0.56984   0.58449   0.64496   0.00000  Uiso   1.00
C205   C     0.35541   0.37809   0.83149   0.00000  Uiso   1.00
C206   C     0.35676   0.32983   0.88271   0.00000  Uiso   1.00
C207   C     0.33145   0.33077   0.94275   0.00000  Uiso   1.00
H208   H     0.31313   0.51071   0.78390   0.00000  Uiso   1.00
H209   H     0.19976   0.44457   0.74556   0.00000  Uiso   1.00
H210   H     0.44803   0.63749   0.70209   0.00000  Uiso   1.00
H211   H     0.28446   0.46341   0.90640   0.00000  Uiso   1.00
H212   H     0.08542   0.35030   0.69930   0.00000  Uiso   1.00
H213   H     0.60892   0.75708   0.60767   0.00000  Uiso   1.00
H214   H     0.26402   0.39001   0.03849   0.00000  Uiso   1.00
H215   H     0.40055   0.34923   0.75525   0.00000  Uiso   1.00
H216   H     0.29196   0.27422   0.71533   0.00000  Uiso   1.00
H217   H     0.54024   0.46714   0.67187   0.00000  Uiso   1.00
H218   H     0.37668   0.29306   0.87617   0.00000  Uiso   1.00
H219   H     0.16026   0.21204   0.67477   0.00000  Uiso   1.00
H220   H     0.68377   0.61883   0.58314   0.00000  Uiso   1.00
H221   H     0.33887   0.25175   0.01396   0.00000  Uiso   1.00
O222   O     0.04985   0.23476   0.66127   0.00000  Uiso   1.00
O223   O     0.73667   0.76844   0.54107   0.00000  Uiso   1.00
O224   O     0.28417   0.28685   0.10629   0.00000  Uiso   1.00
N225   N     0.11793   0.32804   0.69902   0.00000  Uiso   1.00
N226   N     0.60737   0.70836   0.61334   0.00000  Uiso   1.00
N227   N     0.28493   0.36519   0.01612   0.00000  Uiso   1.00
N228   N     0.15820   0.25365   0.68582   0.00000  Uiso   1.00
N229   N     0.64764   0.63397   0.60014   0.00000  Uiso   1.00
N230   N     0.32521   0.29080   0.00292   0.00000  Uiso   1.00
C231   C     0.56994   0.96639   0.41028   0.00000  Uiso   1.00
C232   C     0.52825   0.88252   0.41631   0.00000  Uiso   1.00
C233   C     0.56189   0.85372   0.38238   0.00000  Uiso   1.00
C234   C     0.51392   0.77529   0.39477   0.00000  Uiso   1.00
C235   C     0.46118   0.65233   0.39735   0.00000  Uiso   1.00
C236   C     0.56240   0.96174   0.47835   0.00000  Uiso   1.00
C237   C     0.62476   0.99956   0.49658   0.00000  Uiso   1.00
C238   C     0.60553   0.98782   0.56120   0.00000  Uiso   1.00
C239   C     0.60582   0.98790   0.66008   0.00000  Uiso   1.00
C240   C     0.51979   0.99454   0.39262   0.00000  Uiso   1.00
C241   C     0.54632   0.05995   0.33878   0.00000  Uiso   1.00
C242   C     0.49122   0.07584   0.33123   0.00000  Uiso   1.00
C243   C     0.42534   0.12684   0.29701   0.00000  Uiso   1.00
C244   C     0.42493   0.87830   0.49262   0.00000  Uiso   1.00
C245   C     0.44949   0.83467   0.46103   0.00000  Uiso   1.00
C246   C     0.40145   0.75626   0.47348   0.00000  Uiso   1.00
C247   C     0.43501   0.72736   0.43957   0.00000  Uiso   1.00
C248   C     0.48364   0.91389   0.52307   0.00000  Uiso   1.00
C249   C     0.46432   0.90210   0.58768   0.00000  Uiso   1.00
C250   C     0.52663   0.93989   0.60600   0.00000  Uiso   1.00
C251   C     0.44102   0.94669   0.43734   0.00000  Uiso   1.00
C252   C     0.38588   0.96248   0.42988   0.00000  Uiso   1.00
C253   C     0.41232   0.02790   0.37603   0.00000  Uiso   1.00
H254   H     0.63126   0.00364   0.37547   0.00000  Uiso   1.00
H255   H     0.62285   0.89077   0.34778   0.00000  Uiso   1.00
H256   H     0.68570   0.03659   0.46196   0.00000  Uiso   1.00
H257   H     0.60727   0.09696   0.30419   0.00000  Uiso   1.00
H258   H     0.57880   0.74453   0.33682   0.00000  Uiso   1.00
H259   H     0.71133   0.05202   0.57757   0.00000  Uiso   1.00
H260   H     0.54595   0.17933   0.24487   0.00000  Uiso   1.00
H261   H     0.36360   0.84105   0.52744   0.00000  Uiso   1.00
H262   H     0.34050   0.71925   0.50809   0.00000  Uiso   1.00
H263   H     0.40336   0.86508   0.62227   0.00000  Uiso   1.00
H264   H     0.32493   0.92545   0.46449   0.00000  Uiso   1.00
H265   H     0.34964   0.60532   0.46694   0.00000  Uiso   1.00
H266   H     0.48217   0.91281   0.70769   0.00000  Uiso   1.00
H267   H     0.31679   0.04012   0.37499   0.00000  Uiso   1.00
O268   O     0.45386   0.59773   0.38642   0.00000  Uiso   1.00
O269   O     0.62773   0.00116   0.70227   0.00000  Uiso   1.00
O270   O     0.41076   0.16818   0.26578   0.00000  Uiso   1.00
N271   N     0.52803   0.72848   0.37009   0.00000  Uiso   1.00
N272   N     0.65194   0.01596   0.59518   0.00000  Uiso   1.00
N273   N     0.49733   0.13499   0.28414   0.00000  Uiso   1.00
N274   N     0.40472   0.65357   0.44010   0.00000  Uiso   1.00
N275   N     0.52863   0.94105   0.66519   0.00000  Uiso   1.00
N276   N     0.37402   0.06009   0.35415   0.00000  Uiso   1.00
C277   C     0.70881   0.52780   0.90726   0.00000  Uiso   1.00
C278   C     0.79895   0.58080   0.88088   0.00000  Uiso   1.00
C279   C     0.84627   0.57028   0.91001   0.00000  Uiso   1.00
C280   C     0.92750   0.62522   0.87818   0.00000  Uiso   1.00
C281   C     0.06250   0.69788   0.84615   0.00000  Uiso   1.00
C282   C     0.68855   0.50232   0.85414   0.00000  Uiso   1.00
C283   C     0.64303   0.42582   0.86079   0.00000  Uiso   1.00
C284   C     0.63131   0.41469   0.80645   0.00000  Uiso   1.00
C285   C     0.59486   0.36552   0.73293   0.00000  Uiso   1.00
C286   C     0.68012   0.57995   0.91251   0.00000  Uiso   1.00
C287   C     0.62750   0.56871   0.96824   0.00000  Uiso   1.00
C288   C     0.60866   0.62294   0.96305   0.00000  Uiso   1.00
C289   C     0.55912   0.69430   0.98016   0.00000  Uiso   1.00
C290   C     0.76890   0.64406   0.79893   0.00000  Uiso   1.00
C291   C     0.83159   0.64395   0.82204   0.00000  Uiso   1.00
C292   C     0.91276   0.69891   0.79016   0.00000  Uiso   1.00
C293   C     0.96020   0.68848   0.81923   0.00000  Uiso   1.00
C294   C     0.72118   0.56547   0.79530   0.00000  Uiso   1.00
C295   C     0.70952   0.55445   0.74094   0.00000  Uiso   1.00
C296   C     0.66401   0.47796   0.74751   0.00000  Uiso   1.00
C297   C     0.71276   0.64310   0.85368   0.00000  Uiso   1.00
C298   C     0.69399   0.69735   0.84839   0.00000  Uiso   1.00
C299   C     0.64136   0.68620   0.90410   0.00000  Uiso   1.00
H300   H     0.68339   0.47863   0.95306   0.00000  Uiso   1.00
H301   H     0.82099   0.52140   0.95554   0.00000  Uiso   1.00
H302   H     0.61778   0.37696   0.90633   0.00000  Uiso   1.00
H303   H     0.60225   0.51984   0.01376   0.00000  Uiso   1.00
H304   H     0.98794   0.59665   0.93232   0.00000  Uiso   1.00
H305   H     0.55943   0.29209   0.82857   0.00000  Uiso   1.00
H306   H     0.52668   0.59338   0.05512   0.00000  Uiso   1.00
H307   H     0.79431   0.69323   0.75312   0.00000  Uiso   1.00
H308   H     0.93800   0.74778   0.74463   0.00000  Uiso   1.00
H309   H     0.73479   0.60333   0.69542   0.00000  Uiso   1.00
H310   H     0.71926   0.74621   0.80285   0.00000  Uiso   1.00
H311   H     0.08291   0.78038   0.76114   0.00000  Uiso   1.00
H312   H     0.65439   0.47582   0.65739   0.00000  Uiso   1.00
H313   H     0.62166   0.77711   0.88393   0.00000  Uiso   1.00
O314   O     0.12795   0.72051   0.84474   0.00000  Uiso   1.00
O315   O     0.56574   0.32095   0.70863   0.00000  Uiso   1.00
O316   O     0.52279   0.71622   0.00585   0.00000  Uiso   1.00
N317   N     0.99057   0.63241   0.89321   0.00000  Uiso   1.00
N318   N     0.58995   0.34767   0.79620   0.00000  Uiso   1.00
N319   N     0.55932   0.62933   0.00800   0.00000  Uiso   1.00
N320   N     0.04167   0.73128   0.80109   0.00000  Uiso   1.00
N321   N     0.64105   0.44654   0.70409   0.00000  Uiso   1.00
N322   N     0.61042   0.72820   0.91589   0.00000  Uiso   1.00
C323   C     0.06735   0.44094   0.88896   0.00000  Uiso   1.00
C324   C     0.12633   0.52409   0.87987   0.00000  Uiso   1.00
C325   C     0.18456   0.58583   0.82143   0.00000  Uiso   1.00
C326   C     0.23259   0.65737   0.82329   0.00000  Uiso   1.00
C327   C     0.32565   0.78506   0.80031   0.00000  Uiso   1.00
C328   C     0.98537   0.42194   0.92250   0.00000  Uiso   1.00
C329   C     0.92509   0.39776   0.89990   0.00000  Uiso   1.00
C330   C     0.85445   0.38330   0.93766   0.00000  Uiso   1.00
C331   C     0.72865   0.35233   0.98089   0.00000  Uiso   1.00
C332   C     0.07782   0.38864   0.93800   0.00000  Uiso   1.00
C333   C     0.09525   0.33645   0.92845   0.00000  Uiso   1.00
C334   C     0.10244   0.29394   0.97927   0.00000  Uiso   1.00
C335   C     0.12019   0.21128   0.04657   0.00000  Uiso   1.00
C336   C     0.04908   0.45822   0.99620   0.00000  Uiso   1.00
C337   C     0.11640   0.53348   0.93812   0.00000  Uiso   1.00
C338   C     0.16436   0.60494   0.94007   0.00000  Uiso   1.00
C339   C     0.22265   0.66677   0.88165   0.00000  Uiso   1.00
C340   C     0.97545   0.43132   0.98074   0.00000  Uiso   1.00
C341   C     0.90488   0.41688   0.01855   0.00000  Uiso   1.00
C342   C     0.84451   0.39270   0.99601   0.00000  Uiso   1.00
C343   C     0.06790   0.39802   0.99625   0.00000  Uiso   1.00
C344   C     0.07505   0.35557   0.04710   0.00000  Uiso   1.00
C345   C     0.09250   0.30334   0.03763   0.00000  Uiso   1.00
H346   H     0.07507   0.43364   0.84361   0.00000  Uiso   1.00
H347   H     0.19221   0.57854   0.77636   0.00000  Uiso   1.00
H348   H     0.93278   0.39050   0.85483   0.00000  Uiso   1.00
H349   H     0.10293   0.32921   0.88337   0.00000  Uiso   1.00
H350   H     0.31770   0.74334   0.72748   0.00000  Uiso   1.00
H351   H     0.77066   0.34682   0.89294   0.00000  Uiso   1.00
H352   H     0.12944   0.21757   0.95314   0.00000  Uiso   1.00
H353   H     0.04136   0.46552   0.04155   0.00000  Uiso   1.00
H354   H     0.15666   0.61219   0.98516   0.00000  Uiso   1.00
H355   H     0.89722   0.42414   0.06362   0.00000  Uiso   1.00
H356   H     0.06737   0.36285   0.09217   0.00000  Uiso   1.00
H357   H     0.28885   0.77065   0.89695   0.00000  Uiso   1.00
H358   H     0.74180   0.37413   0.06241   0.00000  Uiso   1.00
H359   H     0.10059   0.24488   0.12260   0.00000  Uiso   1.00
O360   O     0.37972   0.85291   0.77154   0.00000  Uiso   1.00
O361   O     0.66201   0.33267   0.98863   0.00000  Uiso   1.00
O362   O     0.13273   0.16310   0.06760   0.00000  Uiso   1.00
N363   N     0.29510   0.72964   0.77510   0.00000  Uiso   1.00
N364   N     0.78365   0.35893   0.92980   0.00000  Uiso   1.00
N365   N     0.11906   0.23807   0.98608   0.00000  Uiso   1.00
N366   N     0.27957   0.74433   0.86629   0.00000  Uiso   1.00
N367   N     0.76812   0.37362   0.02099   0.00000  Uiso   1.00
N368   N     0.10353   0.25276   0.07727   0.00000  Uiso   1.00
C369   C     0.07726   0.78785   0.60462   0.00000  Uiso   1.00
C370   C     0.13342   0.82770   0.63564   0.00000  Uiso   1.00
C371   C     0.13786   0.88380   0.65742   0.00000  Uiso   1.00
C372   C     0.19314   0.91310   0.68435   0.00000  Uiso   1.00
C373   C     0.27286   0.97889   0.73179   0.00000  Uiso   1.00
C374   C     0.03076   0.70050   0.64539   0.00000  Uiso   1.00
C375   C     0.94889   0.64966   0.67537   0.00000  Uiso   1.00
C376   C     0.91777   0.57188   0.71050   0.00000  Uiso   1.00
C377   C     0.83810   0.44018   0.77305   0.00000  Uiso   1.00
C378   C     0.12947   0.80264   0.53906   0.00000  Uiso   1.00
C379   C     0.13058   0.83766   0.47963   0.00000  Uiso   1.00
C380   C     0.18254   0.84586   0.42524   0.00000  Uiso   1.00
C381   C     0.25613   0.87275   0.32270   0.00000  Uiso   1.00
C382   C     0.16755   0.74013   0.61371   0.00000  Uiso   1.00
C383   C     0.18246   0.80178   0.64057   0.00000  Uiso   1.00
C384   C     0.23776   0.83100   0.66748   0.00000  Uiso   1.00
C385   C     0.24228   0.88714   0.68929   0.00000  Uiso   1.00
C386   C     0.07980   0.67458   0.65033   0.00000  Uiso   1.00
C387   C     0.04879   0.59686   0.68542   0.00000  Uiso   1.00
C388   C     0.96690   0.54591   0.71545   0.00000  Uiso   1.00
C389   C     0.17851   0.77672   0.54400   0.00000  Uiso   1.00
C390   C     0.23048   0.78486   0.48969   0.00000  Uiso   1.00
C391   C     0.23167   0.81989   0.43019   0.00000  Uiso   1.00
H392   H     0.03907   0.80803   0.60078   0.00000  Uiso   1.00
H393   H     0.09989   0.90384   0.65360   0.00000  Uiso   1.00
H394   H     0.91096   0.66973   0.67153   0.00000  Uiso   1.00
H395   H     0.09262   0.85771   0.47583   0.00000  Uiso   1.00
H396   H     0.18892   0.99862   0.71436   0.00000  Uiso   1.00
H397   H     0.79054   0.50498   0.75216   0.00000  Uiso   1.00
H398   H     0.17361   0.90137   0.33948   0.00000  Uiso   1.00
H399   H     0.20573   0.71994   0.61755   0.00000  Uiso   1.00
H400   H     0.27570   0.81093   0.67129   0.00000  Uiso   1.00
H401   H     0.08676   0.57682   0.68923   0.00000  Uiso   1.00
H402   H     0.26842   0.76480   0.49353   0.00000  Uiso   1.00
H403   H     0.33161   0.92320   0.72872   0.00000  Uiso   1.00
H404   H     0.93323   0.42957   0.76652   0.00000  Uiso   1.00
H405   H     0.31630   0.82595   0.35384   0.00000  Uiso   1.00
O406   O     0.30327   0.02233   0.75661   0.00000  Uiso   1.00
O407   O     0.78061   0.37470   0.80619   0.00000  Uiso   1.00
O408   O     0.28318   0.89475   0.26477   0.00000  Uiso   1.00
N409   N     0.21291   0.96839   0.71035   0.00000  Uiso   1.00
N410   N     0.84045   0.50688   0.74570   0.00000  Uiso   1.00
N411   N     0.19857   0.87745   0.35988   0.00000  Uiso   1.00
N412   N     0.28970   0.92781   0.71808   0.00000  Uiso   1.00
N413   N     0.91724   0.46630   0.75343   0.00000  Uiso   1.00
N414   N     0.27535   0.83687   0.36761   0.00000  Uiso   1.00
C415   C     0.02545   0.50251   0.40351   0.00000  Uiso   1.00
C416   C     0.11187   0.56688   0.38464   0.00000  Uiso   1.00
C417   C     0.16676   0.61945   0.32208   0.00000  Uiso   1.00
C418   C     0.24285   0.67393   0.31495   0.00000  Uiso   1.00
C419   C     0.37395   0.77359   0.27751   0.00000  Uiso   1.00
C420   C     0.01364   0.42661   0.44244   0.00000  Uiso   1.00
C421   C     0.98592   0.36124   0.42848   0.00000  Uiso   1.00
C422   C     0.97931   0.29764   0.47002   0.00000  Uiso   1.00
C423   C     0.95784   0.17951   0.52234   0.00000  Uiso   1.00
C424   C     0.97656   0.51627   0.45100   0.00000  Uiso   1.00
C425   C     0.91766   0.52626   0.44425   0.00000  Uiso   1.00
C426   C     0.87982   0.53812   0.49300   0.00000  Uiso   1.00
C427   C     0.80079   0.55920   0.55862   0.00000  Uiso   1.00
C428   C     0.06298   0.50580   0.50211   0.00000  Uiso   1.00
C429   C     0.13225   0.56867   0.43820   0.00000  Uiso   1.00
C430   C     0.20828   0.62309   0.43117   0.00000  Uiso   1.00
C431   C     0.26327   0.67572   0.36860   0.00000  Uiso   1.00
C432   C     0.03402   0.42840   0.49600   0.00000  Uiso   1.00
C433   C     0.02744   0.36488   0.53757   0.00000  Uiso   1.00
C434   C     0.99973   0.29942   0.52367   0.00000  Uiso   1.00
C435   C     0.99695   0.51806   0.50456   0.00000  Uiso   1.00
C436   C     0.95918   0.52990   0.55334   0.00000  Uiso   1.00
C437   C     0.90024   0.53991   0.54666   0.00000  Uiso   1.00
H438   H     0.00958   0.50111   0.36181   0.00000  Uiso   1.00
H439   H     0.15096   0.61804   0.28064   0.00000  Uiso   1.00
H440   H     0.97015   0.35987   0.38703   0.00000  Uiso   1.00
H441   H     0.90190   0.52487   0.40279   0.00000  Uiso   1.00
H442   H     0.31671   0.74845   0.21427   0.00000  Uiso   1.00
H443   H     0.93542   0.20407   0.43861   0.00000  Uiso   1.00
H444   H     0.79151   0.55200   0.47185   0.00000  Uiso   1.00
H445   H     0.07885   0.50719   0.54381   0.00000  Uiso   1.00
H446   H     0.22404   0.62446   0.47263   0.00000  Uiso   1.00
H447   H     0.04322   0.36628   0.57901   0.00000  Uiso   1.00
H448   H     0.97497   0.53128   0.59478   0.00000  Uiso   1.00
H449   H     0.37602   0.75365   0.37009   0.00000  Uiso   1.00
H450   H     0.99472   0.20927   0.59443   0.00000  Uiso   1.00
H451   H     0.85082   0.55721   0.62767   0.00000  Uiso   1.00
O452   O     0.44063   0.82807   0.24207   0.00000  Uiso   1.00
O453   O     0.94038   0.11386   0.53640   0.00000  Uiso   1.00
O454   O     0.75157   0.57034   0.58001   0.00000  Uiso   1.00
N455   N     0.31074   0.73359   0.26071   0.00000  Uiso   1.00
N456   N     0.95427   0.22463   0.47045   0.00000  Uiso   1.00
N457   N     0.81971   0.54990   0.50154   0.00000  Uiso   1.00
N458   N     0.34265   0.73639   0.34456   0.00000  Uiso   1.00
N459   N     0.98618   0.22743   0.55430   0.00000  Uiso   1.00
N460   N     0.85162   0.55270   0.58538   0.00000  Uiso   1.00
C461   C     0.35306   0.49446   0.12295   0.00000  Uiso   1.00
C462   C     0.39868   0.55247   0.14963   0.00000  Uiso   1.00
C463   C     0.45961   0.55914   0.16802   0.00000  Uiso   1.00
C464   C     0.49376   0.61586   0.19125   0.00000  Uiso   1.00
C465   C     0.56850   0.69857   0.23200   0.00000  Uiso   1.00
C466   C     0.26595   0.44880   0.16730   0.00000  Uiso   1.00
C467   C     0.21529   0.36831   0.20054   0.00000  Uiso   1.00
C468   C     0.13772   0.33776   0.23864   0.00000  Uiso   1.00
C469   C     0.00639   0.25951   0.30679   0.00000  Uiso   1.00
C470   C     0.36187   0.54301   0.05779   0.00000  Uiso   1.00
C471   C     0.39184   0.54171   0.99895   0.00000  Uiso   1.00
C472   C     0.39501   0.59046   0.94484   0.00000  Uiso   1.00
C473   C     0.41261   0.65848   0.84295   0.00000  Uiso   1.00
C474   C     0.30537   0.58333   0.13150   0.00000  Uiso   1.00
C475   C     0.37277   0.60074   0.15427   0.00000  Uiso   1.00
C476   C     0.40684   0.65747   0.17748   0.00000  Uiso   1.00
C477   C     0.46782   0.66422   0.19590   0.00000  Uiso   1.00
C478   C     0.24005   0.49707   0.17195   0.00000  Uiso   1.00
C479   C     0.16253   0.46663   0.21000   0.00000  Uiso   1.00
C480   C     0.11177   0.38612   0.24329   0.00000  Uiso   1.00
C481   C     0.33597   0.59128   0.06243   0.00000  Uiso   1.00
C482   C     0.33908   0.64004   0.00841   0.00000  Uiso   1.00
C483   C     0.36906   0.63882   0.94949   0.00000  Uiso   1.00
H484   H     0.37323   0.45688   0.11934   0.00000  Uiso   1.00
H485   H     0.47963   0.52177   0.16442   0.00000  Uiso   1.00
H486   H     0.23536   0.33097   0.19693   0.00000  Uiso   1.00
H487   H     0.41188   0.50435   0.99537   0.00000  Uiso   1.00
H488   H     0.58616   0.61499   0.21648   0.00000  Uiso   1.00
H489   H     0.07109   0.21267   0.28501   0.00000  Uiso   1.00
H490   H     0.44332   0.57826   0.85998   0.00000  Uiso   1.00
H491   H     0.28520   0.62091   0.13511   0.00000  Uiso   1.00
H492   H     0.38678   0.69481   0.18106   0.00000  Uiso   1.00
H493   H     0.14250   0.50400   0.21358   0.00000  Uiso   1.00
H494   H     0.31903   0.67738   0.01202   0.00000  Uiso   1.00
H495   H     0.51080   0.75543   0.22999   0.00000  Uiso   1.00
H496   H     0.99572   0.35311   0.29852   0.00000  Uiso   1.00
H497   H     0.36796   0.71871   0.87349   0.00000  Uiso   1.00
O498   O     0.61687   0.73085   0.25320   0.00000  Uiso   1.00
O499   O     0.94111   0.20301   0.34310   0.00000  Uiso   1.00
O500   O     0.42948   0.68267   0.78547   0.00000  Uiso   1.00
N501   N     0.55449   0.63791   0.21334   0.00000  Uiso   1.00
N502   N     0.07293   0.26176   0.27742   0.00000  Uiso   1.00
N503   N     0.42092   0.60355   0.88005   0.00000  Uiso   1.00
N504   N     0.51394   0.71348   0.22061   0.00000  Uiso   1.00
N505   N     0.03238   0.33734   0.28469   0.00000  Uiso   1.00
N506   N     0.38037   0.67912   0.88732   0.00000  Uiso   1.00
C507   C     0.18447   0.15405   0.46408   0.00000  Uiso   1.00
C508   C     0.21591   0.23676   0.45866   0.00000  Uiso   1.00
C509   C     0.18047   0.25703   0.50115   0.00000  Uiso   1.00
C510   C     0.21853   0.33591   0.48775   0.00000  Uiso   1.00
C511   C     0.25654   0.45575   0.48752   0.00000  Uiso   1.00
C512   C     0.17620   0.15350   0.40041   0.00000  Uiso   1.00
C513   C     0.10737   0.10377   0.39393   0.00000  Uiso   1.00
C514   C     0.11201   0.11255   0.33150   0.00000  Uiso   1.00
C515   C     0.08838   0.10310   0.24083   0.00000  Uiso   1.00
C516   C     0.25081   0.14316   0.46509   0.00000  Uiso   1.00
C517   C     0.24471   0.08472   0.51299   0.00000  Uiso   1.00
C518   C     0.31216   0.08478   0.50501   0.00000  Uiso   1.00
C519   C     0.40438   0.05927   0.51479   0.00000  Uiso   1.00
C520   C     0.31510   0.25807   0.36473   0.00000  Uiso   1.00
C521   C     0.28687   0.29326   0.40469   0.00000  Uiso   1.00
C522   C     0.32500   0.37212   0.39123   0.00000  Uiso   1.00
C523   C     0.28961   0.39251   0.43369   0.00000  Uiso   1.00
C524   C     0.24715   0.21000   0.34644   0.00000  Uiso   1.00
C525   C     0.25190   0.21886   0.28401   0.00000  Uiso   1.00
C526   C     0.18309   0.16915   0.27743   0.00000  Uiso   1.00
C527   C     0.32177   0.19967   0.41113   0.00000  Uiso   1.00
C528   C     0.38924   0.19981   0.40307   0.00000  Uiso   1.00
C529   C     0.38324   0.14139   0.45095   0.00000  Uiso   1.00
H530   H     0.12923   0.11006   0.50609   0.00000  Uiso   1.00
H531   H     0.12555   0.21329   0.54290   0.00000  Uiso   1.00
H532   H     0.05247   0.06004   0.43570   0.00000  Uiso   1.00
H533   H     0.18979   0.04100   0.55475   0.00000  Uiso   1.00
H534   H     0.15276   0.35266   0.55990   0.00000  Uiso   1.00
H535   H     0.99866   0.02952   0.33386   0.00000  Uiso   1.00
H536   H     0.28823   0.98936   0.58489   0.00000  Uiso   1.00
H537   H     0.37034   0.30206   0.32271   0.00000  Uiso   1.00
H538   H     0.37990   0.41583   0.34946   0.00000  Uiso   1.00
H539   H     0.30682   0.26259   0.24226   0.00000  Uiso   1.00
H540   H     0.44414   0.24355   0.36130   0.00000  Uiso   1.00
H541   H     0.35919   0.51706   0.40290   0.00000  Uiso   1.00
H542   H     0.20510   0.19391   0.17685   0.00000  Uiso   1.00
H543   H     0.49467   0.15376   0.42789   0.00000  Uiso   1.00
O544   O     0.25790   0.50624   0.50229   0.00000  Uiso   1.00
O545   O     0.05574   0.08228   0.20574   0.00000  Uiso   1.00
O546   O     0.43564   0.02960   0.53509   0.00000  Uiso   1.00
N547   N     0.20004   0.37574   0.51929   0.00000  Uiso   1.00
N548   N     0.05597   0.07362   0.30795   0.00000  Uiso   1.00
N549   N     0.32668   0.03607   0.54264   0.00000  Uiso   1.00
N550   N     0.31112   0.46420   0.43480   0.00000  Uiso   1.00
N551   N     0.16705   0.16208   0.22347   0.00000  Uiso   1.00
N552   N     0.43776   0.12453   0.45815   0.00000  Uiso   1.00
