data_job_04685
_audit_creation_date              2018-12-19
_audit_creation_method            'Materials Studio'
_symmetry_space_group_name_H-M    'P1'
_symmetry_Int_Tables_number       1
_symmetry_cell_setting            triclinic
loop_
_symmetry_equiv_pos_as_xyz
  x,y,z
_cell_length_a                    23.4466
_cell_length_b                    9.6784
_cell_length_c                    24.5069
_cell_angle_alpha                 90.0000
_cell_angle_beta                  86.0469
_cell_angle_gamma                 90.0000
loop_
_atom_site_label
_atom_site_type_symbol
_atom_site_fract_x
_atom_site_fract_y
_atom_site_fract_z
_atom_site_U_iso_or_equiv
_atom_site_adp_type
_atom_site_occupancy
C1     C     0.07498   0.37523   0.17329   0.00000  Uiso   1.00
C2     C     0.02426   0.28658   0.15925   0.00000  Uiso   1.00
C3     C     0.97454   0.26640   0.19238   0.00000  Uiso   1.00
C4     C     0.93316   0.18156   0.17215   0.00000  Uiso   1.00
C5     C     0.85317   0.05334   0.15821   0.00000  Uiso   1.00
C6     C     0.12701   0.28033   0.16856   0.00000  Uiso   1.00
C7     C     0.16368   0.25491   0.20951   0.00000  Uiso   1.00
C8     C     0.20880   0.16482   0.19711   0.00000  Uiso   1.00
C9     C     0.28836   0.02697   0.19760   0.00000  Uiso   1.00
C10    C     0.08393   0.48010   0.12706   0.00000  Uiso   1.00
C11    C     0.08439   0.62266   0.13311   0.00000  Uiso   1.00
C12    C     0.09326   0.70077   0.08576   0.00000  Uiso   1.00
C13    C     0.10592   0.87310   0.02181   0.00000  Uiso   1.00
C14    C     0.08992   0.26044   0.07844   0.00000  Uiso   1.00
C15    C     0.03237   0.22423   0.10774   0.00000  Uiso   1.00
C16    C     0.99106   0.13940   0.08744   0.00000  Uiso   1.00
C17    C     0.94128   0.11910   0.12054   0.00000  Uiso   1.00
C18    C     0.13512   0.21798   0.11705   0.00000  Uiso   1.00
C19    C     0.18020   0.12791   0.10458   0.00000  Uiso   1.00
C20    C     0.21693   0.10236   0.14550   0.00000  Uiso   1.00
C21    C     0.09204   0.41776   0.07554   0.00000  Uiso   1.00
C22    C     0.10091   0.49566   0.02817   0.00000  Uiso   1.00
C23    C     0.10139   0.63831   0.03415   0.00000  Uiso   1.00
H24    H     0.06867   0.42377   0.21340   0.00000  Uiso   1.00
H25    H     0.96828   0.31466   0.23225   0.00000  Uiso   1.00
H26    H     0.15739   0.30318   0.24938   0.00000  Uiso   1.00
H27    H     0.07811   0.67087   0.17298   0.00000  Uiso   1.00
H28    H     0.86056   0.16616   0.23044   0.00000  Uiso   1.00
H29    H     0.25933   0.14200   0.26655   0.00000  Uiso   1.00
H30    H     0.09215   0.91735   0.10546   0.00000  Uiso   1.00
H31    H     0.09624   0.21190   0.03833   0.00000  Uiso   1.00
H32    H     0.99735   0.09117   0.04758   0.00000  Uiso   1.00
H33    H     0.18647   0.07969   0.06470   0.00000  Uiso   1.00
H34    H     0.10719   0.44738   0.98831   0.00000  Uiso   1.00
H35    H     0.88415   0.98476   0.08056   0.00000  Uiso   1.00
H36    H     0.28293   0.96060   0.11666   0.00000  Uiso   1.00
H37    H     0.11575   0.73594   0.95557   0.00000  Uiso   1.00
O38    O     0.80681   0.99983   0.16475   0.00000  Uiso   1.00
O39    O     0.33000   0.96815   0.21211   0.00000  Uiso   1.00
O40    O     0.11066   0.98538   0.00077   0.00000  Uiso   1.00
N41    N     0.87967   0.14006   0.19389   0.00000  Uiso   1.00
N42    N     0.25250   0.11745   0.22765   0.00000  Uiso   1.00
N43    N     0.09622   0.84234   0.07705   0.00000  Uiso   1.00
N44    N     0.89237   0.04245   0.11324   0.00000  Uiso   1.00
N45    N     0.26520   0.01984   0.14700   0.00000  Uiso   1.00
N46    N     0.10892   0.74473   0.99639   0.00000  Uiso   1.00
C47    C     0.56396   0.78500   0.32385   0.00000  Uiso   1.00
C48    C     0.51127   0.87383   0.33791   0.00000  Uiso   1.00
C49    C     0.46636   0.89435   0.30477   0.00000  Uiso   1.00
C50    C     0.42212   0.97931   0.32503   0.00000  Uiso   1.00
C51    C     0.34021   0.10785   0.33901   0.00000  Uiso   1.00
C52    C     0.61537   0.87965   0.32866   0.00000  Uiso   1.00
C53    C     0.65799   0.90504   0.28775   0.00000  Uiso   1.00
C54    C     0.70138   0.99489   0.30023   0.00000  Uiso   1.00
C55    C     0.78111   0.13237   0.29986   0.00000  Uiso   1.00
C56    C     0.56614   0.67993   0.37002   0.00000  Uiso   1.00
C57    C     0.56737   0.53739   0.36388   0.00000  Uiso   1.00
C58    C     0.56933   0.45907   0.41119   0.00000  Uiso   1.00
C59    C     0.57262   0.28646   0.47504   0.00000  Uiso   1.00
C60    C     0.56526   0.89939   0.41877   0.00000  Uiso   1.00
C61    C     0.51198   0.93596   0.38947   0.00000  Uiso   1.00
C62    C     0.46779   0.02091   0.40979   0.00000  Uiso   1.00
C63    C     0.42282   0.04155   0.37668   0.00000  Uiso   1.00
C64    C     0.61607   0.94178   0.38022   0.00000  Uiso   1.00
C65    C     0.65942   0.03160   0.39277   0.00000  Uiso   1.00
C66    C     0.70209   0.05713   0.35188   0.00000  Uiso   1.00
C67    C     0.56684   0.74205   0.42158   0.00000  Uiso   1.00
C68    C     0.56880   0.66395   0.46891   0.00000  Uiso   1.00
C69    C     0.57004   0.52132   0.46284   0.00000  Uiso   1.00
H70    H     0.56342   0.73664   0.28371   0.00000  Uiso   1.00
H71    H     0.46584   0.84626   0.26487   0.00000  Uiso   1.00
H72    H     0.65743   0.85694   0.24786   0.00000  Uiso   1.00
H73    H     0.56683   0.48934   0.32398   0.00000  Uiso   1.00
H74    H     0.35797   0.99525   0.26671   0.00000  Uiso   1.00
H75    H     0.76197   0.01772   0.23084   0.00000  Uiso   1.00
H76    H     0.57092   0.24257   0.39136   0.00000  Uiso   1.00
H77    H     0.56581   0.94776   0.45891   0.00000  Uiso   1.00
H78    H     0.46835   0.06897   0.44969   0.00000  Uiso   1.00
H79    H     0.65995   0.07965   0.43267   0.00000  Uiso   1.00
H80    H     0.56934   0.71206   0.50880   0.00000  Uiso   1.00
H81    H     0.36001   0.17601   0.41671   0.00000  Uiso   1.00
H82    H     0.76401   0.19848   0.38084   0.00000  Uiso   1.00
H83    H     0.57296   0.42334   0.54137   0.00000  Uiso   1.00
O84    O     0.29484   0.16159   0.33247   0.00000  Uiso   1.00
O85    O     0.82489   0.19106   0.28541   0.00000  Uiso   1.00
O86    O     0.57423   0.17408   0.49602   0.00000  Uiso   1.00
N87    N     0.37182   0.02113   0.30328   0.00000  Uiso   1.00
N88    N     0.74953   0.04216   0.26974   0.00000  Uiso   1.00
N89    N     0.57093   0.31746   0.41982   0.00000  Uiso   1.00
N90    N     0.37291   0.11840   0.38400   0.00000  Uiso   1.00
N91    N     0.75063   0.13943   0.35046   0.00000  Uiso   1.00
N92    N     0.57203   0.41473   0.50054   0.00000  Uiso   1.00
C93    C     0.92502   0.87523   0.32671   0.00000  Uiso   1.00
C94    C     0.97574   0.78658   0.34075   0.00000  Uiso   1.00
C95    C     0.02546   0.76640   0.30762   0.00000  Uiso   1.00
C96    C     0.06684   0.68156   0.32785   0.00000  Uiso   1.00
C97    C     0.14683   0.55334   0.34179   0.00000  Uiso   1.00
C98    C     0.87299   0.78033   0.33144   0.00000  Uiso   1.00
C99    C     0.83632   0.75491   0.29049   0.00000  Uiso   1.00
C100   C     0.79120   0.66482   0.30289   0.00000  Uiso   1.00
C101   C     0.71164   0.52697   0.30240   0.00000  Uiso   1.00
C102   C     0.91607   0.98010   0.37294   0.00000  Uiso   1.00
C103   C     0.91561   0.12266   0.36689   0.00000  Uiso   1.00
C104   C     0.90674   0.20077   0.41424   0.00000  Uiso   1.00
C105   C     0.89408   0.37310   0.47819   0.00000  Uiso   1.00
C106   C     0.91008   0.76044   0.42156   0.00000  Uiso   1.00
C107   C     0.96763   0.72423   0.39226   0.00000  Uiso   1.00
C108   C     0.00894   0.63940   0.41256   0.00000  Uiso   1.00
C109   C     0.05872   0.61910   0.37946   0.00000  Uiso   1.00
C110   C     0.86488   0.71798   0.38295   0.00000  Uiso   1.00
C111   C     0.81980   0.62791   0.39542   0.00000  Uiso   1.00
C112   C     0.78307   0.60236   0.35450   0.00000  Uiso   1.00
C113   C     0.90796   0.91776   0.42446   0.00000  Uiso   1.00
C114   C     0.89909   0.99566   0.47183   0.00000  Uiso   1.00
C115   C     0.89861   0.13831   0.46585   0.00000  Uiso   1.00
H116   H     0.93133   0.92377   0.28660   0.00000  Uiso   1.00
H117   H     0.03172   0.81466   0.26775   0.00000  Uiso   1.00
H118   H     0.84261   0.80318   0.25062   0.00000  Uiso   1.00
H119   H     0.92189   0.17087   0.32702   0.00000  Uiso   1.00
H120   H     0.13944   0.66616   0.26956   0.00000  Uiso   1.00
H121   H     0.74067   0.64200   0.23345   0.00000  Uiso   1.00
H122   H     0.90785   0.41735   0.39454   0.00000  Uiso   1.00
H123   H     0.90376   0.71190   0.46167   0.00000  Uiso   1.00
H124   H     0.00265   0.59117   0.45242   0.00000  Uiso   1.00
H125   H     0.81353   0.57969   0.43530   0.00000  Uiso   1.00
H126   H     0.89281   0.94738   0.51169   0.00000  Uiso   1.00
H127   H     0.11585   0.48476   0.41944   0.00000  Uiso   1.00
H128   H     0.71707   0.46060   0.38334   0.00000  Uiso   1.00
H129   H     0.88425   0.23594   0.54443   0.00000  Uiso   1.00
O130   O     0.19319   0.49983   0.33525   0.00000  Uiso   1.00
O131   O     0.67000   0.46815   0.28789   0.00000  Uiso   1.00
O132   O     0.88934   0.48538   0.49923   0.00000  Uiso   1.00
N133   N     0.12033   0.64006   0.30611   0.00000  Uiso   1.00
N134   N     0.74750   0.61745   0.27235   0.00000  Uiso   1.00
N135   N     0.90378   0.34234   0.42295   0.00000  Uiso   1.00
N136   N     0.10763   0.54245   0.38676   0.00000  Uiso   1.00
N137   N     0.73480   0.51984   0.35300   0.00000  Uiso   1.00
N138   N     0.89108   0.24473   0.50361   0.00000  Uiso   1.00
C139   C     0.43604   0.28500   0.17615   0.00000  Uiso   1.00
C140   C     0.48873   0.37383   0.16209   0.00000  Uiso   1.00
C141   C     0.53364   0.39435   0.19523   0.00000  Uiso   1.00
C142   C     0.57788   0.47931   0.17497   0.00000  Uiso   1.00
C143   C     0.65979   0.60785   0.16099   0.00000  Uiso   1.00
C144   C     0.38463   0.37965   0.17134   0.00000  Uiso   1.00
C145   C     0.34201   0.40504   0.21225   0.00000  Uiso   1.00
C146   C     0.29862   0.49489   0.19977   0.00000  Uiso   1.00
C147   C     0.21889   0.63237   0.20014   0.00000  Uiso   1.00
C148   C     0.43386   0.17993   0.12998   0.00000  Uiso   1.00
C149   C     0.43263   0.03739   0.13612   0.00000  Uiso   1.00
C150   C     0.43067   0.95907   0.08881   0.00000  Uiso   1.00
C151   C     0.42738   0.78646   0.02496   0.00000  Uiso   1.00
C152   C     0.43474   0.39939   0.08123   0.00000  Uiso   1.00
C153   C     0.48802   0.43596   0.11053   0.00000  Uiso   1.00
C154   C     0.53221   0.52091   0.09021   0.00000  Uiso   1.00
C155   C     0.57718   0.54155   0.12332   0.00000  Uiso   1.00
C156   C     0.38393   0.44178   0.11978   0.00000  Uiso   1.00
C157   C     0.34058   0.53160   0.10723   0.00000  Uiso   1.00
C158   C     0.29791   0.55713   0.14812   0.00000  Uiso   1.00
C159   C     0.43316   0.24205   0.07842   0.00000  Uiso   1.00
C160   C     0.43120   0.16395   0.03109   0.00000  Uiso   1.00
C161   C     0.42996   0.02132   0.03716   0.00000  Uiso   1.00
H162   H     0.43658   0.23664   0.21629   0.00000  Uiso   1.00
H163   H     0.53416   0.34626   0.23513   0.00000  Uiso   1.00
H164   H     0.34257   0.35694   0.25214   0.00000  Uiso   1.00
H165   H     0.43317   0.98934   0.17602   0.00000  Uiso   1.00
H166   H     0.64203   0.49525   0.23329   0.00000  Uiso   1.00
H167   H     0.23803   0.51772   0.26916   0.00000  Uiso   1.00
H168   H     0.42908   0.74257   0.10864   0.00000  Uiso   1.00
H169   H     0.43419   0.44776   0.04109   0.00000  Uiso   1.00
H170   H     0.53165   0.56897   0.05031   0.00000  Uiso   1.00
H171   H     0.34005   0.57965   0.06733   0.00000  Uiso   1.00
H172   H     0.43066   0.21206   0.99120   0.00000  Uiso   1.00
H173   H     0.63999   0.67601   0.08329   0.00000  Uiso   1.00
H174   H     0.23599   0.69848   0.11916   0.00000  Uiso   1.00
H175   H     0.42704   0.92334   0.95863   0.00000  Uiso   1.00
O176   O     0.70516   0.66159   0.16753   0.00000  Uiso   1.00
O177   O     0.17511   0.69106   0.21459   0.00000  Uiso   1.00
O178   O     0.42577   0.67408   0.00398   0.00000  Uiso   1.00
N179   N     0.62818   0.52113   0.19672   0.00000  Uiso   1.00
N180   N     0.25047   0.54216   0.23026   0.00000  Uiso   1.00
N181   N     0.42907   0.81746   0.08018   0.00000  Uiso   1.00
N182   N     0.62709   0.61840   0.11600   0.00000  Uiso   1.00
N183   N     0.24937   0.63943   0.14954   0.00000  Uiso   1.00
N184   N     0.42797   0.91473   0.99946   0.00000  Uiso   1.00
C185   C     0.92502   0.62477   0.82671   0.00000  Uiso   1.00
C186   C     0.97574   0.71342   0.84075   0.00000  Uiso   1.00
C187   C     0.02546   0.73360   0.80762   0.00000  Uiso   1.00
C188   C     0.06684   0.81844   0.82785   0.00000  Uiso   1.00
C189   C     0.14683   0.94666   0.84179   0.00000  Uiso   1.00
C190   C     0.87299   0.71967   0.83144   0.00000  Uiso   1.00
C191   C     0.83632   0.74509   0.79049   0.00000  Uiso   1.00
C192   C     0.79120   0.83518   0.80289   0.00000  Uiso   1.00
C193   C     0.71164   0.97303   0.80240   0.00000  Uiso   1.00
C194   C     0.91607   0.51990   0.87294   0.00000  Uiso   1.00
C195   C     0.91561   0.37734   0.86689   0.00000  Uiso   1.00
C196   C     0.90674   0.29923   0.91424   0.00000  Uiso   1.00
C197   C     0.89408   0.12690   0.97819   0.00000  Uiso   1.00
C198   C     0.91008   0.73956   0.92156   0.00000  Uiso   1.00
C199   C     0.96763   0.77577   0.89226   0.00000  Uiso   1.00
C200   C     0.00894   0.86060   0.91256   0.00000  Uiso   1.00
C201   C     0.05872   0.88090   0.87946   0.00000  Uiso   1.00
C202   C     0.86488   0.78202   0.88295   0.00000  Uiso   1.00
C203   C     0.81980   0.87209   0.89542   0.00000  Uiso   1.00
C204   C     0.78307   0.89764   0.85450   0.00000  Uiso   1.00
C205   C     0.90796   0.58224   0.92446   0.00000  Uiso   1.00
C206   C     0.89909   0.50434   0.97183   0.00000  Uiso   1.00
C207   C     0.89861   0.36169   0.96585   0.00000  Uiso   1.00
H208   H     0.93133   0.57623   0.78660   0.00000  Uiso   1.00
H209   H     0.03172   0.68534   0.76775   0.00000  Uiso   1.00
H210   H     0.84261   0.69682   0.75062   0.00000  Uiso   1.00
H211   H     0.92189   0.32913   0.82702   0.00000  Uiso   1.00
H212   H     0.13944   0.83384   0.76956   0.00000  Uiso   1.00
H213   H     0.74067   0.85800   0.73345   0.00000  Uiso   1.00
H214   H     0.90785   0.08265   0.89454   0.00000  Uiso   1.00
H215   H     0.90376   0.78810   0.96167   0.00000  Uiso   1.00
H216   H     0.00265   0.90883   0.95242   0.00000  Uiso   1.00
H217   H     0.81353   0.92031   0.93530   0.00000  Uiso   1.00
H218   H     0.89281   0.55262   0.01169   0.00000  Uiso   1.00
H219   H     0.11585   0.01524   0.91944   0.00000  Uiso   1.00
H220   H     0.71707   0.03940   0.88334   0.00000  Uiso   1.00
H221   H     0.88425   0.26406   0.04443   0.00000  Uiso   1.00
O222   O     0.19319   0.00017   0.83525   0.00000  Uiso   1.00
O223   O     0.67000   0.03185   0.78789   0.00000  Uiso   1.00
O224   O     0.88934   0.01462   0.99923   0.00000  Uiso   1.00
N225   N     0.12033   0.85994   0.80611   0.00000  Uiso   1.00
N226   N     0.74750   0.88255   0.77235   0.00000  Uiso   1.00
N227   N     0.90378   0.15766   0.92295   0.00000  Uiso   1.00
N228   N     0.10763   0.95755   0.88676   0.00000  Uiso   1.00
N229   N     0.73480   0.98016   0.85300   0.00000  Uiso   1.00
N230   N     0.89108   0.25527   0.00361   0.00000  Uiso   1.00
C231   C     0.43604   0.21500   0.67615   0.00000  Uiso   1.00
C232   C     0.48873   0.12617   0.66209   0.00000  Uiso   1.00
C233   C     0.53364   0.10565   0.69523   0.00000  Uiso   1.00
C234   C     0.57788   0.02069   0.67497   0.00000  Uiso   1.00
C235   C     0.65979   0.89215   0.66099   0.00000  Uiso   1.00
C236   C     0.38463   0.12035   0.67134   0.00000  Uiso   1.00
C237   C     0.34201   0.09496   0.71225   0.00000  Uiso   1.00
C238   C     0.29862   0.00511   0.69977   0.00000  Uiso   1.00
C239   C     0.21889   0.86763   0.70014   0.00000  Uiso   1.00
C240   C     0.43386   0.32007   0.62998   0.00000  Uiso   1.00
C241   C     0.43263   0.46261   0.63612   0.00000  Uiso   1.00
C242   C     0.43067   0.54093   0.58881   0.00000  Uiso   1.00
C243   C     0.42738   0.71354   0.52496   0.00000  Uiso   1.00
C244   C     0.43474   0.10061   0.58123   0.00000  Uiso   1.00
C245   C     0.48802   0.06404   0.61053   0.00000  Uiso   1.00
C246   C     0.53221   0.97909   0.59021   0.00000  Uiso   1.00
C247   C     0.57718   0.95845   0.62332   0.00000  Uiso   1.00
C248   C     0.38393   0.05822   0.61978   0.00000  Uiso   1.00
C249   C     0.34058   0.96840   0.60723   0.00000  Uiso   1.00
C250   C     0.29791   0.94287   0.64812   0.00000  Uiso   1.00
C251   C     0.43316   0.25795   0.57842   0.00000  Uiso   1.00
C252   C     0.43120   0.33605   0.53109   0.00000  Uiso   1.00
C253   C     0.42996   0.47868   0.53716   0.00000  Uiso   1.00
H254   H     0.43658   0.26336   0.71629   0.00000  Uiso   1.00
H255   H     0.53416   0.15374   0.73513   0.00000  Uiso   1.00
H256   H     0.34257   0.14306   0.75214   0.00000  Uiso   1.00
H257   H     0.43317   0.51066   0.67602   0.00000  Uiso   1.00
H258   H     0.64203   0.00475   0.73329   0.00000  Uiso   1.00
H259   H     0.23803   0.98228   0.76916   0.00000  Uiso   1.00
H260   H     0.42908   0.75743   0.60864   0.00000  Uiso   1.00
H261   H     0.43419   0.05224   0.54109   0.00000  Uiso   1.00
H262   H     0.53165   0.93103   0.55031   0.00000  Uiso   1.00
H263   H     0.34005   0.92035   0.56733   0.00000  Uiso   1.00
H264   H     0.43066   0.28794   0.49120   0.00000  Uiso   1.00
H265   H     0.63999   0.82399   0.58329   0.00000  Uiso   1.00
H266   H     0.23599   0.80152   0.61916   0.00000  Uiso   1.00
H267   H     0.42704   0.57666   0.45863   0.00000  Uiso   1.00
O268   O     0.70516   0.83841   0.66753   0.00000  Uiso   1.00
O269   O     0.17511   0.80894   0.71459   0.00000  Uiso   1.00
O270   O     0.42577   0.82592   0.50398   0.00000  Uiso   1.00
N271   N     0.62818   0.97887   0.69672   0.00000  Uiso   1.00
N272   N     0.25047   0.95784   0.73026   0.00000  Uiso   1.00
N273   N     0.42907   0.68254   0.58018   0.00000  Uiso   1.00
N274   N     0.62709   0.88160   0.61600   0.00000  Uiso   1.00
N275   N     0.24937   0.86057   0.64954   0.00000  Uiso   1.00
N276   N     0.42797   0.58527   0.49946   0.00000  Uiso   1.00
C277   C     0.07498   0.12477   0.67329   0.00000  Uiso   1.00
C278   C     0.02426   0.21342   0.65925   0.00000  Uiso   1.00
C279   C     0.97454   0.23360   0.69238   0.00000  Uiso   1.00
C280   C     0.93316   0.31844   0.67215   0.00000  Uiso   1.00
C281   C     0.85317   0.44666   0.65821   0.00000  Uiso   1.00
C282   C     0.12701   0.21967   0.66856   0.00000  Uiso   1.00
C283   C     0.16368   0.24509   0.70951   0.00000  Uiso   1.00
C284   C     0.20880   0.33518   0.69711   0.00000  Uiso   1.00
C285   C     0.28836   0.47303   0.69760   0.00000  Uiso   1.00
C286   C     0.08393   0.01990   0.62706   0.00000  Uiso   1.00
C287   C     0.08439   0.87734   0.63311   0.00000  Uiso   1.00
C288   C     0.09326   0.79923   0.58576   0.00000  Uiso   1.00
C289   C     0.10592   0.62690   0.52181   0.00000  Uiso   1.00
C290   C     0.08992   0.23956   0.57844   0.00000  Uiso   1.00
C291   C     0.03237   0.27577   0.60774   0.00000  Uiso   1.00
C292   C     0.99106   0.36060   0.58744   0.00000  Uiso   1.00
C293   C     0.94128   0.38090   0.62054   0.00000  Uiso   1.00
C294   C     0.13512   0.28202   0.61705   0.00000  Uiso   1.00
C295   C     0.18020   0.37209   0.60458   0.00000  Uiso   1.00
C296   C     0.21693   0.39764   0.64550   0.00000  Uiso   1.00
C297   C     0.09204   0.08224   0.57554   0.00000  Uiso   1.00
C298   C     0.10091   0.00434   0.52817   0.00000  Uiso   1.00
C299   C     0.10139   0.86169   0.53415   0.00000  Uiso   1.00
H300   H     0.06867   0.07623   0.71340   0.00000  Uiso   1.00
H301   H     0.96828   0.18534   0.73225   0.00000  Uiso   1.00
H302   H     0.15739   0.19682   0.74938   0.00000  Uiso   1.00
H303   H     0.07811   0.82913   0.67298   0.00000  Uiso   1.00
H304   H     0.86056   0.33384   0.73044   0.00000  Uiso   1.00
H305   H     0.25933   0.35800   0.76655   0.00000  Uiso   1.00
H306   H     0.09215   0.58265   0.60546   0.00000  Uiso   1.00
H307   H     0.09624   0.28810   0.53833   0.00000  Uiso   1.00
H308   H     0.99735   0.40883   0.54758   0.00000  Uiso   1.00
H309   H     0.18647   0.42031   0.56470   0.00000  Uiso   1.00
H310   H     0.10719   0.05262   0.48831   0.00000  Uiso   1.00
H311   H     0.88415   0.51524   0.58056   0.00000  Uiso   1.00
H312   H     0.28293   0.53940   0.61666   0.00000  Uiso   1.00
H313   H     0.11575   0.76406   0.45557   0.00000  Uiso   1.00
O314   O     0.80681   0.50017   0.66475   0.00000  Uiso   1.00
O315   O     0.33000   0.53185   0.71211   0.00000  Uiso   1.00
O316   O     0.11066   0.51462   0.50077   0.00000  Uiso   1.00
N317   N     0.87967   0.35994   0.69389   0.00000  Uiso   1.00
N318   N     0.25250   0.38255   0.72765   0.00000  Uiso   1.00
N319   N     0.09622   0.65766   0.57705   0.00000  Uiso   1.00
N320   N     0.89237   0.45755   0.61324   0.00000  Uiso   1.00
N321   N     0.26520   0.48016   0.64700   0.00000  Uiso   1.00
N322   N     0.10892   0.75527   0.49639   0.00000  Uiso   1.00
C323   C     0.56396   0.71500   0.82385   0.00000  Uiso   1.00
C324   C     0.51127   0.62617   0.83791   0.00000  Uiso   1.00
C325   C     0.46636   0.60565   0.80477   0.00000  Uiso   1.00
C326   C     0.42212   0.52069   0.82503   0.00000  Uiso   1.00
C327   C     0.34021   0.39215   0.83901   0.00000  Uiso   1.00
C328   C     0.61537   0.62035   0.82866   0.00000  Uiso   1.00
C329   C     0.65799   0.59496   0.78775   0.00000  Uiso   1.00
C330   C     0.70138   0.50511   0.80023   0.00000  Uiso   1.00
C331   C     0.78111   0.36763   0.79986   0.00000  Uiso   1.00
C332   C     0.56614   0.82007   0.87002   0.00000  Uiso   1.00
C333   C     0.56737   0.96261   0.86388   0.00000  Uiso   1.00
C334   C     0.56933   0.04093   0.91119   0.00000  Uiso   1.00
C335   C     0.57262   0.21354   0.97504   0.00000  Uiso   1.00
C336   C     0.56526   0.60061   0.91877   0.00000  Uiso   1.00
C337   C     0.51198   0.56404   0.88947   0.00000  Uiso   1.00
C338   C     0.46779   0.47909   0.90979   0.00000  Uiso   1.00
C339   C     0.42282   0.45845   0.87668   0.00000  Uiso   1.00
C340   C     0.61607   0.55822   0.88022   0.00000  Uiso   1.00
C341   C     0.65942   0.46840   0.89277   0.00000  Uiso   1.00
C342   C     0.70209   0.44287   0.85188   0.00000  Uiso   1.00
C343   C     0.56684   0.75795   0.92158   0.00000  Uiso   1.00
C344   C     0.56880   0.83605   0.96891   0.00000  Uiso   1.00
C345   C     0.57004   0.97868   0.96284   0.00000  Uiso   1.00
H346   H     0.56342   0.76336   0.78371   0.00000  Uiso   1.00
H347   H     0.46584   0.65374   0.76487   0.00000  Uiso   1.00
H348   H     0.65743   0.64306   0.74786   0.00000  Uiso   1.00
H349   H     0.56683   0.01066   0.82398   0.00000  Uiso   1.00
H350   H     0.35797   0.50475   0.76671   0.00000  Uiso   1.00
H351   H     0.76197   0.48228   0.73084   0.00000  Uiso   1.00
H352   H     0.57092   0.25743   0.89136   0.00000  Uiso   1.00
H353   H     0.56581   0.55224   0.95891   0.00000  Uiso   1.00
H354   H     0.46835   0.43103   0.94969   0.00000  Uiso   1.00
H355   H     0.65995   0.42035   0.93267   0.00000  Uiso   1.00
H356   H     0.56934   0.78794   0.00880   0.00000  Uiso   1.00
H357   H     0.36001   0.32399   0.91671   0.00000  Uiso   1.00
H358   H     0.76401   0.30152   0.88084   0.00000  Uiso   1.00
H359   H     0.57296   0.07666   0.04137   0.00000  Uiso   1.00
O360   O     0.29484   0.33841   0.83247   0.00000  Uiso   1.00
O361   O     0.82489   0.30894   0.78541   0.00000  Uiso   1.00
O362   O     0.57423   0.32592   0.99602   0.00000  Uiso   1.00
N363   N     0.37182   0.47887   0.80328   0.00000  Uiso   1.00
N364   N     0.74953   0.45784   0.76974   0.00000  Uiso   1.00
N365   N     0.57093   0.18254   0.91982   0.00000  Uiso   1.00
N366   N     0.37291   0.38160   0.88400   0.00000  Uiso   1.00
N367   N     0.75063   0.36057   0.85046   0.00000  Uiso   1.00
N368   N     0.57203   0.08527   0.00054   0.00000  Uiso   1.00
