data_job_04728
_audit_creation_date              2018-12-19
_audit_creation_method            'Materials Studio'
_symmetry_space_group_name_H-M    'P1'
_symmetry_Int_Tables_number       1
_symmetry_cell_setting            triclinic
loop_
_symmetry_equiv_pos_as_xyz
  x,y,z
_cell_length_a                    31.8196
_cell_length_b                    11.9559
_cell_length_c                    23.2449
_cell_angle_alpha                 90.0000
_cell_angle_beta                  136.9754
_cell_angle_gamma                 90.0000
loop_
_atom_site_label
_atom_site_type_symbol
_atom_site_fract_x
_atom_site_fract_y
_atom_site_fract_z
_atom_site_U_iso_or_equiv
_atom_site_adp_type
_atom_site_occupancy
C1     C     0.20191   0.93780   0.56256   0.00000  Uiso   1.00
C2     C     0.19147   0.04942   0.52191   0.00000  Uiso   1.00
C3     C     0.13687   0.08405   0.44185   0.00000  Uiso   1.00
C4     C     0.13667   0.18912   0.41623   0.00000  Uiso   1.00
C5     C     0.11248   0.35209   0.34509   0.00000  Uiso   1.00
C6     C     0.25653   0.88339   0.58692   0.00000  Uiso   1.00
C7     C     0.25662   0.77842   0.56153   0.00000  Uiso   1.00
C8     C     0.31120   0.74372   0.59064   0.00000  Uiso   1.00
C9     C     0.38802   0.64890   0.62047   0.00000  Uiso   1.00
C10    C     0.22404   0.96625   0.64523   0.00000  Uiso   1.00
C11    C     0.19683   0.93091   0.66887   0.00000  Uiso   1.00
C12    C     0.22407   0.96595   0.74708   0.00000  Uiso   1.00
C13    C     0.25045   0.99976   0.86744   0.00000  Uiso   1.00
C14    C     0.29868   0.06282   0.65942   0.00000  Uiso   1.00
C15    C     0.24403   0.11732   0.57452   0.00000  Uiso   1.00
C16    C     0.24392   0.22237   0.54901   0.00000  Uiso   1.00
C17    C     0.18932   0.25715   0.46893   0.00000  Uiso   1.00
C18    C     0.30909   0.95129   0.63953   0.00000  Uiso   1.00
C19    C     0.36368   0.91674   0.66868   0.00000  Uiso   1.00
C20    C     0.36386   0.81175   0.64334   0.00000  Uiso   1.00
C21    C     0.27660   0.03415   0.69783   0.00000  Uiso   1.00
C22    C     0.30389   0.06924   0.77602   0.00000  Uiso   1.00
C23    C     0.27672   0.03397   0.79978   0.00000  Uiso   1.00
H24    H     0.16100   0.88492   0.52161   0.00000  Uiso   1.00
H25    H     0.09620   0.03147   0.40116   0.00000  Uiso   1.00
H26    H     0.21595   0.72588   0.52083   0.00000  Uiso   1.00
H27    H     0.15616   0.87836   0.62815   0.00000  Uiso   1.00
H28    H     0.04755   0.22387   0.29080   0.00000  Uiso   1.00
H29    H     0.30004   0.57951   0.54315   0.00000  Uiso   1.00
H30    H     0.17398   0.90104   0.76946   0.00000  Uiso   1.00
H31    H     0.33960   0.11569   0.70038   0.00000  Uiso   1.00
H32    H     0.28460   0.27490   0.58973   0.00000  Uiso   1.00
H33    H     0.40434   0.96931   0.70940   0.00000  Uiso   1.00
H34    H     0.34456   0.12179   0.81672   0.00000  Uiso   1.00
H35    H     0.20047   0.42145   0.44386   0.00000  Uiso   1.00
H36    H     0.45296   0.77708   0.69620   0.00000  Uiso   1.00
H37    H     0.32689   0.09861   0.92251   0.00000  Uiso   1.00
O38    O     0.08462   0.42322   0.29131   0.00000  Uiso   1.00
O39    O     0.41587   0.57783   0.62239   0.00000  Uiso   1.00
O40    O     0.25048   0.99967   0.91930   0.00000  Uiso   1.00
N41    N     0.09109   0.24853   0.34202   0.00000  Uiso   1.00
N42    N     0.32714   0.64610   0.57793   0.00000  Uiso   1.00
N43    N     0.20929   0.94667   0.78952   0.00000  Uiso   1.00
N44    N     0.17337   0.35485   0.42437   0.00000  Uiso   1.00
N45    N     0.40942   0.75242   0.66029   0.00000  Uiso   1.00
N46    N     0.29157   0.05299   0.87188   0.00000  Uiso   1.00
C47    C     0.21372   0.08557   0.32608   0.00000  Uiso   1.00
C48    C     0.18563   0.98462   0.32830   0.00000  Uiso   1.00
C49    C     0.12783   0.98086   0.29589   0.00000  Uiso   1.00
C50    C     0.11060   0.88067   0.30420   0.00000  Uiso   1.00
C51    C     0.06104   0.73809   0.30170   0.00000  Uiso   1.00
C52    C     0.27474   0.10845   0.41742   0.00000  Uiso   1.00
C53    C     0.29188   0.20882   0.45993   0.00000  Uiso   1.00
C54    C     0.34967   0.21288   0.54326   0.00000  Uiso   1.00
C55    C     0.43848   0.26258   0.67910   0.00000  Uiso   1.00
C56    C     0.23023   0.04627   0.28214   0.00000  Uiso   1.00
C57    C     0.20995   0.09438   0.21092   0.00000  Uiso   1.00
C58    C     0.23028   0.04611   0.18036   0.00000  Uiso   1.00
C59    C     0.24998   0.99927   0.10616   0.00000  Uiso   1.00
C60    C     0.28589   0.91431   0.39847   0.00000  Uiso   1.00
C61    C     0.22483   0.89160   0.36762   0.00000  Uiso   1.00
C62    C     0.20768   0.79139   0.37598   0.00000  Uiso   1.00
C63    C     0.14987   0.78749   0.34358   0.00000  Uiso   1.00
C64    C     0.31395   0.01544   0.45674   0.00000  Uiso   1.00
C65    C     0.37173   0.01935   0.54002   0.00000  Uiso   1.00
C66    C     0.38894   0.11969   0.58265   0.00000  Uiso   1.00
C67    C     0.26943   0.95325   0.32146   0.00000  Uiso   1.00
C68    C     0.28980   0.90490   0.29101   0.00000  Uiso   1.00
C69    C     0.26956   0.95292   0.21975   0.00000  Uiso   1.00
H70    H     0.18320   0.15799   0.29548   0.00000  Uiso   1.00
H71    H     0.09751   0.05287   0.26547   0.00000  Uiso   1.00
H72    H     0.26153   0.28079   0.42949   0.00000  Uiso   1.00
H73    H     0.17962   0.16636   0.18051   0.00000  Uiso   1.00
H74    H     0.01981   0.89532   0.24958   0.00000  Uiso   1.00
H75    H     0.36566   0.37592   0.59540   0.00000  Uiso   1.00
H76    H     0.19294   0.13463   0.07038   0.00000  Uiso   1.00
H77    H     0.31641   0.84189   0.42909   0.00000  Uiso   1.00
H78    H     0.23803   0.71942   0.40641   0.00000  Uiso   1.00
H79    H     0.40205   0.94735   0.57043   0.00000  Uiso   1.00
H80    H     0.32014   0.83292   0.32145   0.00000  Uiso   1.00
H81    H     0.13386   0.62468   0.36397   0.00000  Uiso   1.00
H82    H     0.47972   0.10529   0.70980   0.00000  Uiso   1.00
H83    H     0.30699   0.86399   0.18478   0.00000  Uiso   1.00
O84    O     0.02288   0.68515   0.28947   0.00000  Uiso   1.00
O85    O     0.47663   0.31569   0.74317   0.00000  Uiso   1.00
O86    O     0.25001   0.99912   0.05436   0.00000  Uiso   1.00
N87    N     0.05740   0.84842   0.27960   0.00000  Uiso   1.00
N88    N     0.38075   0.29776   0.60293   0.00000  Uiso   1.00
N89    N     0.21928   0.07219   0.11209   0.00000  Uiso   1.00
N90    N     0.11877   0.70279   0.34115   0.00000  Uiso   1.00
N91    N     0.44212   0.15213   0.66448   0.00000  Uiso   1.00
N92    N     0.28065   0.92656   0.17365   0.00000  Uiso   1.00
C93    C     0.79809   0.43780   0.93744   0.00000  Uiso   1.00
C94    C     0.80853   0.54942   0.97809   0.00000  Uiso   1.00
C95    C     0.86313   0.58405   0.05815   0.00000  Uiso   1.00
C96    C     0.86333   0.68912   0.08377   0.00000  Uiso   1.00
C97    C     0.88752   0.85209   0.15491   0.00000  Uiso   1.00
C98    C     0.74347   0.38339   0.91308   0.00000  Uiso   1.00
C99    C     0.74338   0.27842   0.93847   0.00000  Uiso   1.00
C100   C     0.68880   0.24372   0.90936   0.00000  Uiso   1.00
C101   C     0.61198   0.14890   0.87953   0.00000  Uiso   1.00
C102   C     0.77596   0.46625   0.85477   0.00000  Uiso   1.00
C103   C     0.80317   0.43091   0.83113   0.00000  Uiso   1.00
C104   C     0.77593   0.46595   0.75292   0.00000  Uiso   1.00
C105   C     0.74955   0.49976   0.63256   0.00000  Uiso   1.00
C106   C     0.70132   0.56282   0.84058   0.00000  Uiso   1.00
C107   C     0.75597   0.61732   0.92548   0.00000  Uiso   1.00
C108   C     0.75608   0.72237   0.95099   0.00000  Uiso   1.00
C109   C     0.81068   0.75715   0.03107   0.00000  Uiso   1.00
C110   C     0.69091   0.45129   0.86047   0.00000  Uiso   1.00
C111   C     0.63632   0.41674   0.83132   0.00000  Uiso   1.00
C112   C     0.63614   0.31175   0.85666   0.00000  Uiso   1.00
C113   C     0.72340   0.53415   0.80217   0.00000  Uiso   1.00
C114   C     0.69611   0.56924   0.72398   0.00000  Uiso   1.00
C115   C     0.72328   0.53397   0.70022   0.00000  Uiso   1.00
H116   H     0.83900   0.38492   0.97839   0.00000  Uiso   1.00
H117   H     0.90380   0.53147   0.09884   0.00000  Uiso   1.00
H118   H     0.78405   0.22588   0.97917   0.00000  Uiso   1.00
H119   H     0.84384   0.37836   0.87185   0.00000  Uiso   1.00
H120   H     0.95245   0.72387   0.20920   0.00000  Uiso   1.00
H121   H     0.69996   0.07951   0.95685   0.00000  Uiso   1.00
H122   H     0.82602   0.40104   0.73054   0.00000  Uiso   1.00
H123   H     0.66040   0.61569   0.79962   0.00000  Uiso   1.00
H124   H     0.71540   0.77490   0.91027   0.00000  Uiso   1.00
H125   H     0.59566   0.46931   0.79060   0.00000  Uiso   1.00
H126   H     0.65544   0.62179   0.68328   0.00000  Uiso   1.00
H127   H     0.79953   0.92145   0.05614   0.00000  Uiso   1.00
H128   H     0.54704   0.27708   0.80380   0.00000  Uiso   1.00
H129   H     0.67311   0.59861   0.57749   0.00000  Uiso   1.00
O130   O     0.91538   0.92322   0.20869   0.00000  Uiso   1.00
O131   O     0.58413   0.07783   0.87761   0.00000  Uiso   1.00
O132   O     0.74952   0.49967   0.58070   0.00000  Uiso   1.00
N133   N     0.90891   0.74853   0.15798   0.00000  Uiso   1.00
N134   N     0.67286   0.14610   0.92207   0.00000  Uiso   1.00
N135   N     0.79071   0.44667   0.71048   0.00000  Uiso   1.00
N136   N     0.82663   0.85485   0.07563   0.00000  Uiso   1.00
N137   N     0.59058   0.25242   0.83971   0.00000  Uiso   1.00
N138   N     0.70843   0.55299   0.62812   0.00000  Uiso   1.00
C139   C     0.78628   0.58557   0.17392   0.00000  Uiso   1.00
C140   C     0.81437   0.48462   0.17170   0.00000  Uiso   1.00
C141   C     0.87217   0.48086   0.20411   0.00000  Uiso   1.00
C142   C     0.88940   0.38067   0.19580   0.00000  Uiso   1.00
C143   C     0.93896   0.23809   0.19830   0.00000  Uiso   1.00
C144   C     0.72526   0.60845   0.08258   0.00000  Uiso   1.00
C145   C     0.70812   0.70882   0.04007   0.00000  Uiso   1.00
C146   C     0.65033   0.71288   0.95674   0.00000  Uiso   1.00
C147   C     0.56152   0.76258   0.82090   0.00000  Uiso   1.00
C148   C     0.76977   0.54627   0.21786   0.00000  Uiso   1.00
C149   C     0.79005   0.59438   0.28908   0.00000  Uiso   1.00
C150   C     0.76972   0.54611   0.31964   0.00000  Uiso   1.00
C151   C     0.75002   0.49927   0.39384   0.00000  Uiso   1.00
C152   C     0.71411   0.41431   0.10153   0.00000  Uiso   1.00
C153   C     0.77517   0.39160   0.13238   0.00000  Uiso   1.00
C154   C     0.79232   0.29139   0.12402   0.00000  Uiso   1.00
C155   C     0.85013   0.28749   0.15642   0.00000  Uiso   1.00
C156   C     0.68605   0.51544   0.04326   0.00000  Uiso   1.00
C157   C     0.62827   0.51935   0.95998   0.00000  Uiso   1.00
C158   C     0.61106   0.61969   0.91735   0.00000  Uiso   1.00
C159   C     0.73057   0.45325   0.17854   0.00000  Uiso   1.00
C160   C     0.71020   0.40490   0.20899   0.00000  Uiso   1.00
C161   C     0.73044   0.45292   0.28025   0.00000  Uiso   1.00
H162   H     0.81680   0.65799   0.20452   0.00000  Uiso   1.00
H163   H     0.90249   0.55287   0.23453   0.00000  Uiso   1.00
H164   H     0.73847   0.78079   0.07051   0.00000  Uiso   1.00
H165   H     0.82038   0.66636   0.31949   0.00000  Uiso   1.00
H166   H     0.98019   0.39532   0.25042   0.00000  Uiso   1.00
H167   H     0.63434   0.87592   0.90460   0.00000  Uiso   1.00
H168   H     0.80706   0.63463   0.42962   0.00000  Uiso   1.00
H169   H     0.68359   0.34189   0.07091   0.00000  Uiso   1.00
H170   H     0.76197   0.21942   0.09359   0.00000  Uiso   1.00
H171   H     0.59795   0.44735   0.92957   0.00000  Uiso   1.00
H172   H     0.67986   0.33292   0.17855   0.00000  Uiso   1.00
H173   H     0.86614   0.12468   0.13603   0.00000  Uiso   1.00
H174   H     0.52028   0.60529   0.79020   0.00000  Uiso   1.00
H175   H     0.69301   0.36399   0.31522   0.00000  Uiso   1.00
O176   O     0.97712   0.18515   0.21053   0.00000  Uiso   1.00
O177   O     0.52337   0.81569   0.75683   0.00000  Uiso   1.00
O178   O     0.74999   0.49912   0.44564   0.00000  Uiso   1.00
N179   N     0.94260   0.34842   0.22040   0.00000  Uiso   1.00
N180   N     0.61925   0.79776   0.89707   0.00000  Uiso   1.00
N181   N     0.78072   0.57219   0.38791   0.00000  Uiso   1.00
N182   N     0.88123   0.20279   0.15885   0.00000  Uiso   1.00
N183   N     0.55788   0.65213   0.83552   0.00000  Uiso   1.00
N184   N     0.71935   0.42656   0.32635   0.00000  Uiso   1.00
C185   C     0.79809   0.06220   0.43744   0.00000  Uiso   1.00
C186   C     0.80853   0.95058   0.47809   0.00000  Uiso   1.00
C187   C     0.86313   0.91595   0.55815   0.00000  Uiso   1.00
C188   C     0.86333   0.81088   0.58377   0.00000  Uiso   1.00
C189   C     0.88752   0.64791   0.65491   0.00000  Uiso   1.00
C190   C     0.74347   0.11661   0.41308   0.00000  Uiso   1.00
C191   C     0.74338   0.22158   0.43847   0.00000  Uiso   1.00
C192   C     0.68880   0.25628   0.40936   0.00000  Uiso   1.00
C193   C     0.61198   0.35110   0.37953   0.00000  Uiso   1.00
C194   C     0.77596   0.03375   0.35477   0.00000  Uiso   1.00
C195   C     0.80317   0.06909   0.33113   0.00000  Uiso   1.00
C196   C     0.77593   0.03405   0.25292   0.00000  Uiso   1.00
C197   C     0.74955   0.00024   0.13256   0.00000  Uiso   1.00
C198   C     0.70132   0.93718   0.34058   0.00000  Uiso   1.00
C199   C     0.75597   0.88268   0.42548   0.00000  Uiso   1.00
C200   C     0.75608   0.77763   0.45099   0.00000  Uiso   1.00
C201   C     0.81068   0.74285   0.53107   0.00000  Uiso   1.00
C202   C     0.69091   0.04871   0.36047   0.00000  Uiso   1.00
C203   C     0.63632   0.08326   0.33132   0.00000  Uiso   1.00
C204   C     0.63614   0.18825   0.35666   0.00000  Uiso   1.00
C205   C     0.72340   0.96585   0.30217   0.00000  Uiso   1.00
C206   C     0.69611   0.93076   0.22398   0.00000  Uiso   1.00
C207   C     0.72328   0.96603   0.20022   0.00000  Uiso   1.00
H208   H     0.83900   0.11508   0.47839   0.00000  Uiso   1.00
H209   H     0.90380   0.96853   0.59884   0.00000  Uiso   1.00
H210   H     0.78405   0.27412   0.47917   0.00000  Uiso   1.00
H211   H     0.84384   0.12164   0.37185   0.00000  Uiso   1.00
H212   H     0.95245   0.77613   0.70920   0.00000  Uiso   1.00
H213   H     0.69996   0.42049   0.45685   0.00000  Uiso   1.00
H214   H     0.82602   0.09896   0.23054   0.00000  Uiso   1.00
H215   H     0.66040   0.88431   0.29962   0.00000  Uiso   1.00
H216   H     0.71540   0.72510   0.41027   0.00000  Uiso   1.00
H217   H     0.59566   0.03069   0.29060   0.00000  Uiso   1.00
H218   H     0.65544   0.87821   0.18328   0.00000  Uiso   1.00
H219   H     0.79953   0.57855   0.55614   0.00000  Uiso   1.00
H220   H     0.54704   0.22292   0.30380   0.00000  Uiso   1.00
H221   H     0.67311   0.90139   0.07749   0.00000  Uiso   1.00
O222   O     0.91538   0.57678   0.70869   0.00000  Uiso   1.00
O223   O     0.58413   0.42217   0.37761   0.00000  Uiso   1.00
O224   O     0.74952   0.00033   0.08070   0.00000  Uiso   1.00
N225   N     0.90891   0.75147   0.65798   0.00000  Uiso   1.00
N226   N     0.67286   0.35390   0.42207   0.00000  Uiso   1.00
N227   N     0.79071   0.05333   0.21048   0.00000  Uiso   1.00
N228   N     0.82663   0.64515   0.57563   0.00000  Uiso   1.00
N229   N     0.59058   0.24758   0.33971   0.00000  Uiso   1.00
N230   N     0.70843   0.94701   0.12812   0.00000  Uiso   1.00
C231   C     0.78628   0.91443   0.67392   0.00000  Uiso   1.00
C232   C     0.81437   0.01538   0.67170   0.00000  Uiso   1.00
C233   C     0.87217   0.01914   0.70411   0.00000  Uiso   1.00
C234   C     0.88940   0.11933   0.69580   0.00000  Uiso   1.00
C235   C     0.93896   0.26191   0.69830   0.00000  Uiso   1.00
C236   C     0.72526   0.89155   0.58258   0.00000  Uiso   1.00
C237   C     0.70812   0.79118   0.54007   0.00000  Uiso   1.00
C238   C     0.65033   0.78712   0.45674   0.00000  Uiso   1.00
C239   C     0.56152   0.73742   0.32090   0.00000  Uiso   1.00
C240   C     0.76977   0.95373   0.71786   0.00000  Uiso   1.00
C241   C     0.79005   0.90562   0.78908   0.00000  Uiso   1.00
C242   C     0.76972   0.95389   0.81964   0.00000  Uiso   1.00
C243   C     0.75002   0.00073   0.89384   0.00000  Uiso   1.00
C244   C     0.71411   0.08569   0.60153   0.00000  Uiso   1.00
C245   C     0.77517   0.10840   0.63238   0.00000  Uiso   1.00
C246   C     0.79232   0.20861   0.62402   0.00000  Uiso   1.00
C247   C     0.85013   0.21251   0.65642   0.00000  Uiso   1.00
C248   C     0.68605   0.98456   0.54326   0.00000  Uiso   1.00
C249   C     0.62827   0.98065   0.45998   0.00000  Uiso   1.00
C250   C     0.61106   0.88031   0.41735   0.00000  Uiso   1.00
C251   C     0.73057   0.04675   0.67854   0.00000  Uiso   1.00
C252   C     0.71020   0.09510   0.70899   0.00000  Uiso   1.00
C253   C     0.73044   0.04708   0.78025   0.00000  Uiso   1.00
H254   H     0.81680   0.84201   0.70452   0.00000  Uiso   1.00
H255   H     0.90249   0.94713   0.73453   0.00000  Uiso   1.00
H256   H     0.73847   0.71921   0.57051   0.00000  Uiso   1.00
H257   H     0.82038   0.83364   0.81949   0.00000  Uiso   1.00
H258   H     0.98019   0.10468   0.75042   0.00000  Uiso   1.00
H259   H     0.63434   0.62408   0.40460   0.00000  Uiso   1.00
H260   H     0.80706   0.86537   0.92962   0.00000  Uiso   1.00
H261   H     0.68359   0.15811   0.57091   0.00000  Uiso   1.00
H262   H     0.76197   0.28058   0.59359   0.00000  Uiso   1.00
H263   H     0.59795   0.05265   0.42957   0.00000  Uiso   1.00
H264   H     0.67986   0.16708   0.67855   0.00000  Uiso   1.00
H265   H     0.86614   0.37532   0.63603   0.00000  Uiso   1.00
H266   H     0.52028   0.89471   0.29020   0.00000  Uiso   1.00
H267   H     0.69301   0.13601   0.81522   0.00000  Uiso   1.00
O268   O     0.97712   0.31485   0.71053   0.00000  Uiso   1.00
O269   O     0.52337   0.68431   0.25683   0.00000  Uiso   1.00
O270   O     0.74999   0.00088   0.94564   0.00000  Uiso   1.00
N271   N     0.94260   0.15158   0.72040   0.00000  Uiso   1.00
N272   N     0.61925   0.70224   0.39707   0.00000  Uiso   1.00
N273   N     0.78072   0.92781   0.88791   0.00000  Uiso   1.00
N274   N     0.88123   0.29721   0.65885   0.00000  Uiso   1.00
N275   N     0.55788   0.84787   0.33552   0.00000  Uiso   1.00
N276   N     0.71935   0.07344   0.82635   0.00000  Uiso   1.00
C277   C     0.20191   0.56220   0.06256   0.00000  Uiso   1.00
C278   C     0.19147   0.45058   0.02191   0.00000  Uiso   1.00
C279   C     0.13687   0.41595   0.94185   0.00000  Uiso   1.00
C280   C     0.13667   0.31088   0.91623   0.00000  Uiso   1.00
C281   C     0.11248   0.14791   0.84509   0.00000  Uiso   1.00
C282   C     0.25653   0.61661   0.08692   0.00000  Uiso   1.00
C283   C     0.25662   0.72158   0.06153   0.00000  Uiso   1.00
C284   C     0.31120   0.75628   0.09064   0.00000  Uiso   1.00
C285   C     0.38802   0.85110   0.12047   0.00000  Uiso   1.00
C286   C     0.22404   0.53375   0.14523   0.00000  Uiso   1.00
C287   C     0.19683   0.56909   0.16887   0.00000  Uiso   1.00
C288   C     0.22407   0.53405   0.24708   0.00000  Uiso   1.00
C289   C     0.25045   0.50024   0.36744   0.00000  Uiso   1.00
C290   C     0.29868   0.43718   0.15942   0.00000  Uiso   1.00
C291   C     0.24403   0.38268   0.07452   0.00000  Uiso   1.00
C292   C     0.24392   0.27763   0.04901   0.00000  Uiso   1.00
C293   C     0.18932   0.24285   0.96893   0.00000  Uiso   1.00
C294   C     0.30909   0.54871   0.13953   0.00000  Uiso   1.00
C295   C     0.36368   0.58326   0.16868   0.00000  Uiso   1.00
C296   C     0.36386   0.68825   0.14334   0.00000  Uiso   1.00
C297   C     0.27660   0.46585   0.19783   0.00000  Uiso   1.00
C298   C     0.30389   0.43076   0.27602   0.00000  Uiso   1.00
C299   C     0.27672   0.46603   0.29978   0.00000  Uiso   1.00
H300   H     0.16100   0.61508   0.02161   0.00000  Uiso   1.00
H301   H     0.09620   0.46853   0.90116   0.00000  Uiso   1.00
H302   H     0.21595   0.77412   0.02083   0.00000  Uiso   1.00
H303   H     0.15616   0.62164   0.12815   0.00000  Uiso   1.00
H304   H     0.04755   0.27613   0.79080   0.00000  Uiso   1.00
H305   H     0.30004   0.92049   0.04315   0.00000  Uiso   1.00
H306   H     0.17398   0.59896   0.26946   0.00000  Uiso   1.00
H307   H     0.33960   0.38431   0.20038   0.00000  Uiso   1.00
H308   H     0.28460   0.22510   0.08973   0.00000  Uiso   1.00
H309   H     0.40434   0.53069   0.20940   0.00000  Uiso   1.00
H310   H     0.34456   0.37821   0.31672   0.00000  Uiso   1.00
H311   H     0.20047   0.07855   0.94386   0.00000  Uiso   1.00
H312   H     0.45296   0.72292   0.19620   0.00000  Uiso   1.00
H313   H     0.32689   0.40139   0.42251   0.00000  Uiso   1.00
O314   O     0.08462   0.07678   0.79131   0.00000  Uiso   1.00
O315   O     0.41587   0.92217   0.12239   0.00000  Uiso   1.00
O316   O     0.25048   0.50033   0.41930   0.00000  Uiso   1.00
N317   N     0.09109   0.25147   0.84202   0.00000  Uiso   1.00
N318   N     0.32714   0.85390   0.07793   0.00000  Uiso   1.00
N319   N     0.20929   0.55333   0.28952   0.00000  Uiso   1.00
N320   N     0.17337   0.14515   0.92437   0.00000  Uiso   1.00
N321   N     0.40942   0.74758   0.16029   0.00000  Uiso   1.00
N322   N     0.29157   0.44701   0.37188   0.00000  Uiso   1.00
C323   C     0.21372   0.41443   0.82608   0.00000  Uiso   1.00
C324   C     0.18563   0.51538   0.82830   0.00000  Uiso   1.00
C325   C     0.12783   0.51914   0.79589   0.00000  Uiso   1.00
C326   C     0.11060   0.61933   0.80420   0.00000  Uiso   1.00
C327   C     0.06104   0.76191   0.80170   0.00000  Uiso   1.00
C328   C     0.27474   0.39155   0.91742   0.00000  Uiso   1.00
C329   C     0.29188   0.29118   0.95993   0.00000  Uiso   1.00
C330   C     0.34967   0.28712   0.04326   0.00000  Uiso   1.00
C331   C     0.43848   0.23742   0.17910   0.00000  Uiso   1.00
C332   C     0.23023   0.45373   0.78214   0.00000  Uiso   1.00
C333   C     0.20995   0.40562   0.71092   0.00000  Uiso   1.00
C334   C     0.23028   0.45389   0.68036   0.00000  Uiso   1.00
C335   C     0.24998   0.50073   0.60616   0.00000  Uiso   1.00
C336   C     0.28589   0.58569   0.89847   0.00000  Uiso   1.00
C337   C     0.22483   0.60840   0.86762   0.00000  Uiso   1.00
C338   C     0.20768   0.70861   0.87598   0.00000  Uiso   1.00
C339   C     0.14987   0.71251   0.84358   0.00000  Uiso   1.00
C340   C     0.31395   0.48456   0.95674   0.00000  Uiso   1.00
C341   C     0.37173   0.48065   0.04002   0.00000  Uiso   1.00
C342   C     0.38894   0.38031   0.08265   0.00000  Uiso   1.00
C343   C     0.26943   0.54675   0.82146   0.00000  Uiso   1.00
C344   C     0.28980   0.59510   0.79101   0.00000  Uiso   1.00
C345   C     0.26956   0.54708   0.71975   0.00000  Uiso   1.00
H346   H     0.18320   0.34201   0.79548   0.00000  Uiso   1.00
H347   H     0.09751   0.44713   0.76547   0.00000  Uiso   1.00
H348   H     0.26153   0.21921   0.92949   0.00000  Uiso   1.00
H349   H     0.17962   0.33364   0.68051   0.00000  Uiso   1.00
H350   H     0.01981   0.60468   0.74958   0.00000  Uiso   1.00
H351   H     0.36566   0.12408   0.09540   0.00000  Uiso   1.00
H352   H     0.19294   0.36537   0.57038   0.00000  Uiso   1.00
H353   H     0.31641   0.65811   0.92909   0.00000  Uiso   1.00
H354   H     0.23803   0.78058   0.90641   0.00000  Uiso   1.00
H355   H     0.40205   0.55265   0.07043   0.00000  Uiso   1.00
H356   H     0.32014   0.66708   0.82145   0.00000  Uiso   1.00
H357   H     0.13386   0.87532   0.86397   0.00000  Uiso   1.00
H358   H     0.47972   0.39471   0.20980   0.00000  Uiso   1.00
H359   H     0.30699   0.63601   0.68478   0.00000  Uiso   1.00
O360   O     0.02288   0.81485   0.78947   0.00000  Uiso   1.00
O361   O     0.47663   0.18431   0.24317   0.00000  Uiso   1.00
O362   O     0.25001   0.50088   0.55436   0.00000  Uiso   1.00
N363   N     0.05740   0.65158   0.77960   0.00000  Uiso   1.00
N364   N     0.38075   0.20224   0.10293   0.00000  Uiso   1.00
N365   N     0.21928   0.42781   0.61209   0.00000  Uiso   1.00
N366   N     0.11877   0.79721   0.84115   0.00000  Uiso   1.00
N367   N     0.44212   0.34787   0.16448   0.00000  Uiso   1.00
N368   N     0.28065   0.57344   0.67365   0.00000  Uiso   1.00
