data_job_02612
_audit_creation_date              2018-12-19
_audit_creation_method            'Materials Studio'
_symmetry_space_group_name_H-M    'P1'
_symmetry_Int_Tables_number       1
_symmetry_cell_setting            triclinic
loop_
_symmetry_equiv_pos_as_xyz
  x,y,z
_cell_length_a                    19.3734
_cell_length_b                    15.2466
_cell_length_c                    21.0662
_cell_angle_alpha                 90.0000
_cell_angle_beta                  90.0000
_cell_angle_gamma                 90.0000
loop_
_atom_site_label
_atom_site_type_symbol
_atom_site_fract_x
_atom_site_fract_y
_atom_site_fract_z
_atom_site_U_iso_or_equiv
_atom_site_adp_type
_atom_site_occupancy
C1     C     0.46263   0.85268   0.92540   0.00000  Uiso   1.00
C2     C     0.51188   0.78609   0.89597   0.00000  Uiso   1.00
C3     C     0.57673   0.80447   0.87136   0.00000  Uiso   1.00
C4     C     0.61380   0.73447   0.84654   0.00000  Uiso   1.00
C5     C     0.69435   0.64406   0.80084   0.00000  Uiso   1.00
C6     C     0.39543   0.84541   0.88808   0.00000  Uiso   1.00
C7     C     0.36237   0.91366   0.85684   0.00000  Uiso   1.00
C8     C     0.30140   0.89359   0.82539   0.00000  Uiso   1.00
C9     C     0.20113   0.89528   0.76748   0.00000  Uiso   1.00
C10    C     0.44665   0.81896   0.99195   0.00000  Uiso   1.00
C11    C     0.45664   0.86498   0.04804   0.00000  Uiso   1.00
C12    C     0.43878   0.82265   0.10404   0.00000  Uiso   1.00
C13    C     0.41805   0.78328   0.20739   0.00000  Uiso   1.00
C14    C     0.41313   0.69570   0.92511   0.00000  Uiso   1.00
C15    C     0.48499   0.70083   0.89581   0.00000  Uiso   1.00
C16    C     0.52197   0.63079   0.87103   0.00000  Uiso   1.00
C17    C     0.58687   0.64906   0.84639   0.00000  Uiso   1.00
C18    C     0.36854   0.76015   0.88792   0.00000  Uiso   1.00
C19    C     0.30760   0.73998   0.85651   0.00000  Uiso   1.00
C20    C     0.27446   0.80818   0.82523   0.00000  Uiso   1.00
C21    C     0.41977   0.73370   0.99179   0.00000  Uiso   1.00
C22    C     0.40188   0.69130   0.04771   0.00000  Uiso   1.00
C23    C     0.41185   0.73724   0.10388   0.00000  Uiso   1.00
H24    H     0.48356   0.91906   0.92552   0.00000  Uiso   1.00
H25    H     0.59752   0.87046   0.87148   0.00000  Uiso   1.00
H26    H     0.38318   0.97963   0.85698   0.00000  Uiso   1.00
H27    H     0.47745   0.93096   0.04814   0.00000  Uiso   1.00
H28    H     0.71200   0.77898   0.81148   0.00000  Uiso   1.00
H29    H     0.26005   0.00918   0.78091   0.00000  Uiso   1.00
H30    H     0.45882   0.90655   0.18402   0.00000  Uiso   1.00
H31    H     0.39220   0.62932   0.92498   0.00000  Uiso   1.00
H32    H     0.50115   0.56482   0.87092   0.00000  Uiso   1.00
H33    H     0.28681   0.67399   0.85640   0.00000  Uiso   1.00
H34    H     0.38108   0.62532   0.04757   0.00000  Uiso   1.00
H35    H     0.63378   0.53092   0.81101   0.00000  Uiso   1.00
H36    H     0.18182   0.76112   0.78044   0.00000  Uiso   1.00
H37    H     0.38061   0.65848   0.18356   0.00000  Uiso   1.00
O38    O     0.74620   0.61775   0.77567   0.00000  Uiso   1.00
O39    O     0.15325   0.91977   0.73557   0.00000  Uiso   1.00
O40    O     0.41405   0.78511   0.26445   0.00000  Uiso   1.00
N41    N     0.67865   0.72945   0.81880   0.00000  Uiso   1.00
N42    N     0.25610   0.94467   0.79021   0.00000  Uiso   1.00
N43    N     0.44193   0.84872   0.16709   0.00000  Uiso   1.00
N44    N     0.63656   0.59597   0.81855   0.00000  Uiso   1.00
N45    N     0.21401   0.81119   0.78996   0.00000  Uiso   1.00
N46    N     0.39984   0.71524   0.16684   0.00000  Uiso   1.00
C47    C     0.96263   0.35268   0.92540   0.00000  Uiso   1.00
C48    C     0.01188   0.28609   0.89597   0.00000  Uiso   1.00
C49    C     0.07673   0.30447   0.87136   0.00000  Uiso   1.00
C50    C     0.11380   0.23447   0.84654   0.00000  Uiso   1.00
C51    C     0.19435   0.14406   0.80084   0.00000  Uiso   1.00
C52    C     0.89543   0.34541   0.88808   0.00000  Uiso   1.00
C53    C     0.86237   0.41366   0.85684   0.00000  Uiso   1.00
C54    C     0.80140   0.39359   0.82539   0.00000  Uiso   1.00
C55    C     0.70113   0.39528   0.76748   0.00000  Uiso   1.00
C56    C     0.94665   0.31896   0.99195   0.00000  Uiso   1.00
C57    C     0.95664   0.36498   0.04804   0.00000  Uiso   1.00
C58    C     0.93878   0.32265   0.10404   0.00000  Uiso   1.00
C59    C     0.91805   0.28328   0.20739   0.00000  Uiso   1.00
C60    C     0.91313   0.19570   0.92511   0.00000  Uiso   1.00
C61    C     0.98499   0.20083   0.89581   0.00000  Uiso   1.00
C62    C     0.02197   0.13079   0.87103   0.00000  Uiso   1.00
C63    C     0.08687   0.14906   0.84639   0.00000  Uiso   1.00
C64    C     0.86854   0.26015   0.88792   0.00000  Uiso   1.00
C65    C     0.80760   0.23998   0.85651   0.00000  Uiso   1.00
C66    C     0.77446   0.30818   0.82523   0.00000  Uiso   1.00
C67    C     0.91977   0.23370   0.99179   0.00000  Uiso   1.00
C68    C     0.90188   0.19130   0.04771   0.00000  Uiso   1.00
C69    C     0.91185   0.23724   0.10388   0.00000  Uiso   1.00
H70    H     0.98356   0.41906   0.92552   0.00000  Uiso   1.00
H71    H     0.09752   0.37046   0.87148   0.00000  Uiso   1.00
H72    H     0.88318   0.47963   0.85698   0.00000  Uiso   1.00
H73    H     0.97745   0.43096   0.04814   0.00000  Uiso   1.00
H74    H     0.21200   0.27898   0.81148   0.00000  Uiso   1.00
H75    H     0.76005   0.50918   0.78091   0.00000  Uiso   1.00
H76    H     0.95882   0.40655   0.18402   0.00000  Uiso   1.00
H77    H     0.89220   0.12932   0.92498   0.00000  Uiso   1.00
H78    H     0.00115   0.06482   0.87092   0.00000  Uiso   1.00
H79    H     0.78681   0.17399   0.85640   0.00000  Uiso   1.00
H80    H     0.88108   0.12532   0.04757   0.00000  Uiso   1.00
H81    H     0.13378   0.03092   0.81101   0.00000  Uiso   1.00
H82    H     0.68182   0.26112   0.78044   0.00000  Uiso   1.00
H83    H     0.88061   0.15848   0.18356   0.00000  Uiso   1.00
O84    O     0.24620   0.11775   0.77567   0.00000  Uiso   1.00
O85    O     0.65325   0.41977   0.73557   0.00000  Uiso   1.00
O86    O     0.91405   0.28511   0.26445   0.00000  Uiso   1.00
N87    N     0.17865   0.22945   0.81880   0.00000  Uiso   1.00
N88    N     0.75610   0.44467   0.79021   0.00000  Uiso   1.00
N89    N     0.94193   0.34872   0.16709   0.00000  Uiso   1.00
N90    N     0.13656   0.09597   0.81855   0.00000  Uiso   1.00
N91    N     0.71401   0.31119   0.78996   0.00000  Uiso   1.00
N92    N     0.89984   0.21524   0.16684   0.00000  Uiso   1.00
C93    C     0.53737   0.14732   0.42540   0.00000  Uiso   1.00
C94    C     0.48812   0.21391   0.39597   0.00000  Uiso   1.00
C95    C     0.42327   0.19553   0.37136   0.00000  Uiso   1.00
C96    C     0.38620   0.26553   0.34654   0.00000  Uiso   1.00
C97    C     0.30565   0.35594   0.30084   0.00000  Uiso   1.00
C98    C     0.60457   0.15459   0.38808   0.00000  Uiso   1.00
C99    C     0.63763   0.08634   0.35684   0.00000  Uiso   1.00
C100   C     0.69860   0.10641   0.32539   0.00000  Uiso   1.00
C101   C     0.79887   0.10472   0.26748   0.00000  Uiso   1.00
C102   C     0.55335   0.18104   0.49195   0.00000  Uiso   1.00
C103   C     0.54336   0.13502   0.54804   0.00000  Uiso   1.00
C104   C     0.56122   0.17735   0.60404   0.00000  Uiso   1.00
C105   C     0.58195   0.21672   0.70739   0.00000  Uiso   1.00
C106   C     0.58687   0.30430   0.42511   0.00000  Uiso   1.00
C107   C     0.51501   0.29917   0.39581   0.00000  Uiso   1.00
C108   C     0.47803   0.36921   0.37103   0.00000  Uiso   1.00
C109   C     0.41313   0.35094   0.34639   0.00000  Uiso   1.00
C110   C     0.63146   0.23985   0.38792   0.00000  Uiso   1.00
C111   C     0.69240   0.26002   0.35651   0.00000  Uiso   1.00
C112   C     0.72554   0.19182   0.32523   0.00000  Uiso   1.00
C113   C     0.58023   0.26630   0.49179   0.00000  Uiso   1.00
C114   C     0.59812   0.30870   0.54771   0.00000  Uiso   1.00
C115   C     0.58815   0.26276   0.60388   0.00000  Uiso   1.00
H116   H     0.51644   0.08094   0.42552   0.00000  Uiso   1.00
H117   H     0.40248   0.12954   0.37148   0.00000  Uiso   1.00
H118   H     0.61682   0.02037   0.35698   0.00000  Uiso   1.00
H119   H     0.52255   0.06904   0.54814   0.00000  Uiso   1.00
H120   H     0.28800   0.22102   0.31148   0.00000  Uiso   1.00
H121   H     0.73995   0.99082   0.28091   0.00000  Uiso   1.00
H122   H     0.54118   0.09345   0.68402   0.00000  Uiso   1.00
H123   H     0.60780   0.37068   0.42498   0.00000  Uiso   1.00
H124   H     0.49885   0.43518   0.37092   0.00000  Uiso   1.00
H125   H     0.71319   0.32601   0.35640   0.00000  Uiso   1.00
H126   H     0.61892   0.37468   0.54757   0.00000  Uiso   1.00
H127   H     0.36622   0.46908   0.31101   0.00000  Uiso   1.00
H128   H     0.81818   0.23888   0.28044   0.00000  Uiso   1.00
H129   H     0.61939   0.34152   0.68356   0.00000  Uiso   1.00
O130   O     0.25380   0.38225   0.27567   0.00000  Uiso   1.00
O131   O     0.84675   0.08023   0.23557   0.00000  Uiso   1.00
O132   O     0.58595   0.21489   0.76445   0.00000  Uiso   1.00
N133   N     0.32135   0.27055   0.31880   0.00000  Uiso   1.00
N134   N     0.74390   0.05533   0.29021   0.00000  Uiso   1.00
N135   N     0.55807   0.15128   0.66709   0.00000  Uiso   1.00
N136   N     0.36344   0.40403   0.31855   0.00000  Uiso   1.00
N137   N     0.78599   0.18881   0.28996   0.00000  Uiso   1.00
N138   N     0.60016   0.28476   0.66684   0.00000  Uiso   1.00
C139   C     0.03737   0.64732   0.42540   0.00000  Uiso   1.00
C140   C     0.98812   0.71391   0.39597   0.00000  Uiso   1.00
C141   C     0.92327   0.69553   0.37136   0.00000  Uiso   1.00
C142   C     0.88620   0.76553   0.34654   0.00000  Uiso   1.00
C143   C     0.80565   0.85594   0.30084   0.00000  Uiso   1.00
C144   C     0.10457   0.65459   0.38808   0.00000  Uiso   1.00
C145   C     0.13763   0.58634   0.35684   0.00000  Uiso   1.00
C146   C     0.19860   0.60641   0.32539   0.00000  Uiso   1.00
C147   C     0.29887   0.60472   0.26748   0.00000  Uiso   1.00
C148   C     0.05335   0.68104   0.49195   0.00000  Uiso   1.00
C149   C     0.04336   0.63502   0.54804   0.00000  Uiso   1.00
C150   C     0.06122   0.67735   0.60404   0.00000  Uiso   1.00
C151   C     0.08195   0.71672   0.70739   0.00000  Uiso   1.00
C152   C     0.08687   0.80430   0.42511   0.00000  Uiso   1.00
C153   C     0.01501   0.79917   0.39581   0.00000  Uiso   1.00
C154   C     0.97803   0.86921   0.37103   0.00000  Uiso   1.00
C155   C     0.91313   0.85094   0.34639   0.00000  Uiso   1.00
C156   C     0.13146   0.73985   0.38792   0.00000  Uiso   1.00
C157   C     0.19240   0.76002   0.35651   0.00000  Uiso   1.00
C158   C     0.22554   0.69182   0.32523   0.00000  Uiso   1.00
C159   C     0.08023   0.76630   0.49179   0.00000  Uiso   1.00
C160   C     0.09812   0.80870   0.54771   0.00000  Uiso   1.00
C161   C     0.08815   0.76276   0.60388   0.00000  Uiso   1.00
H162   H     0.01644   0.58094   0.42552   0.00000  Uiso   1.00
H163   H     0.90248   0.62954   0.37148   0.00000  Uiso   1.00
H164   H     0.11682   0.52037   0.35698   0.00000  Uiso   1.00
H165   H     0.02255   0.56904   0.54814   0.00000  Uiso   1.00
H166   H     0.78800   0.72102   0.31148   0.00000  Uiso   1.00
H167   H     0.23995   0.49082   0.28091   0.00000  Uiso   1.00
H168   H     0.04118   0.59345   0.68402   0.00000  Uiso   1.00
H169   H     0.10780   0.87068   0.42498   0.00000  Uiso   1.00
H170   H     0.99885   0.93518   0.37092   0.00000  Uiso   1.00
H171   H     0.21319   0.82601   0.35640   0.00000  Uiso   1.00
H172   H     0.11892   0.87468   0.54757   0.00000  Uiso   1.00
H173   H     0.86622   0.96908   0.31101   0.00000  Uiso   1.00
H174   H     0.31818   0.73888   0.28044   0.00000  Uiso   1.00
H175   H     0.11939   0.84152   0.68356   0.00000  Uiso   1.00
O176   O     0.75380   0.88225   0.27567   0.00000  Uiso   1.00
O177   O     0.34675   0.58023   0.23557   0.00000  Uiso   1.00
O178   O     0.08595   0.71489   0.76445   0.00000  Uiso   1.00
N179   N     0.82135   0.77055   0.31880   0.00000  Uiso   1.00
N180   N     0.24390   0.55533   0.29021   0.00000  Uiso   1.00
N181   N     0.05807   0.65128   0.66709   0.00000  Uiso   1.00
N182   N     0.86344   0.90403   0.31855   0.00000  Uiso   1.00
N183   N     0.28599   0.68881   0.28996   0.00000  Uiso   1.00
N184   N     0.10016   0.78476   0.66684   0.00000  Uiso   1.00
C185   C     0.53737   0.85268   0.57460   0.00000  Uiso   1.00
C186   C     0.48812   0.78609   0.60403   0.00000  Uiso   1.00
C187   C     0.42327   0.80447   0.62864   0.00000  Uiso   1.00
C188   C     0.38620   0.73447   0.65346   0.00000  Uiso   1.00
C189   C     0.30565   0.64406   0.69916   0.00000  Uiso   1.00
C190   C     0.60457   0.84541   0.61192   0.00000  Uiso   1.00
C191   C     0.63763   0.91366   0.64316   0.00000  Uiso   1.00
C192   C     0.69860   0.89359   0.67461   0.00000  Uiso   1.00
C193   C     0.79887   0.89528   0.73252   0.00000  Uiso   1.00
C194   C     0.55335   0.81896   0.50805   0.00000  Uiso   1.00
C195   C     0.54336   0.86498   0.45196   0.00000  Uiso   1.00
C196   C     0.56122   0.82265   0.39596   0.00000  Uiso   1.00
C197   C     0.58195   0.78328   0.29261   0.00000  Uiso   1.00
C198   C     0.58687   0.69570   0.57489   0.00000  Uiso   1.00
C199   C     0.51501   0.70083   0.60419   0.00000  Uiso   1.00
C200   C     0.47803   0.63079   0.62897   0.00000  Uiso   1.00
C201   C     0.41313   0.64906   0.65361   0.00000  Uiso   1.00
C202   C     0.63146   0.76015   0.61208   0.00000  Uiso   1.00
C203   C     0.69240   0.73998   0.64349   0.00000  Uiso   1.00
C204   C     0.72554   0.80818   0.67477   0.00000  Uiso   1.00
C205   C     0.58023   0.73370   0.50821   0.00000  Uiso   1.00
C206   C     0.59812   0.69130   0.45229   0.00000  Uiso   1.00
C207   C     0.58815   0.73724   0.39612   0.00000  Uiso   1.00
H208   H     0.51644   0.91906   0.57448   0.00000  Uiso   1.00
H209   H     0.40248   0.87046   0.62852   0.00000  Uiso   1.00
H210   H     0.61682   0.97963   0.64302   0.00000  Uiso   1.00
H211   H     0.52255   0.93096   0.45186   0.00000  Uiso   1.00
H212   H     0.28800   0.77898   0.68852   0.00000  Uiso   1.00
H213   H     0.73995   0.00918   0.71909   0.00000  Uiso   1.00
H214   H     0.54118   0.90655   0.31598   0.00000  Uiso   1.00
H215   H     0.60780   0.62932   0.57502   0.00000  Uiso   1.00
H216   H     0.49885   0.56482   0.62908   0.00000  Uiso   1.00
H217   H     0.71319   0.67399   0.64360   0.00000  Uiso   1.00
H218   H     0.61892   0.62532   0.45243   0.00000  Uiso   1.00
H219   H     0.36622   0.53092   0.68899   0.00000  Uiso   1.00
H220   H     0.81818   0.76112   0.71956   0.00000  Uiso   1.00
H221   H     0.61939   0.65848   0.31644   0.00000  Uiso   1.00
O222   O     0.25380   0.61775   0.72433   0.00000  Uiso   1.00
O223   O     0.84675   0.91977   0.76443   0.00000  Uiso   1.00
O224   O     0.58595   0.78511   0.23555   0.00000  Uiso   1.00
N225   N     0.32135   0.72945   0.68120   0.00000  Uiso   1.00
N226   N     0.74390   0.94467   0.70979   0.00000  Uiso   1.00
N227   N     0.55807   0.84872   0.33291   0.00000  Uiso   1.00
N228   N     0.36344   0.59597   0.68145   0.00000  Uiso   1.00
N229   N     0.78599   0.81119   0.71004   0.00000  Uiso   1.00
N230   N     0.60016   0.71524   0.33316   0.00000  Uiso   1.00
C231   C     0.03737   0.35268   0.57460   0.00000  Uiso   1.00
C232   C     0.98812   0.28609   0.60403   0.00000  Uiso   1.00
C233   C     0.92327   0.30447   0.62864   0.00000  Uiso   1.00
C234   C     0.88620   0.23447   0.65346   0.00000  Uiso   1.00
C235   C     0.80565   0.14406   0.69916   0.00000  Uiso   1.00
C236   C     0.10457   0.34541   0.61192   0.00000  Uiso   1.00
C237   C     0.13763   0.41366   0.64316   0.00000  Uiso   1.00
C238   C     0.19860   0.39359   0.67461   0.00000  Uiso   1.00
C239   C     0.29887   0.39528   0.73252   0.00000  Uiso   1.00
C240   C     0.05335   0.31896   0.50805   0.00000  Uiso   1.00
C241   C     0.04336   0.36498   0.45196   0.00000  Uiso   1.00
C242   C     0.06122   0.32265   0.39596   0.00000  Uiso   1.00
C243   C     0.08195   0.28328   0.29261   0.00000  Uiso   1.00
C244   C     0.08687   0.19570   0.57489   0.00000  Uiso   1.00
C245   C     0.01501   0.20083   0.60419   0.00000  Uiso   1.00
C246   C     0.97803   0.13079   0.62897   0.00000  Uiso   1.00
C247   C     0.91313   0.14906   0.65361   0.00000  Uiso   1.00
C248   C     0.13146   0.26015   0.61208   0.00000  Uiso   1.00
C249   C     0.19240   0.23998   0.64349   0.00000  Uiso   1.00
C250   C     0.22554   0.30818   0.67477   0.00000  Uiso   1.00
C251   C     0.08023   0.23370   0.50821   0.00000  Uiso   1.00
C252   C     0.09812   0.19130   0.45229   0.00000  Uiso   1.00
C253   C     0.08815   0.23724   0.39612   0.00000  Uiso   1.00
H254   H     0.01644   0.41906   0.57448   0.00000  Uiso   1.00
H255   H     0.90248   0.37046   0.62852   0.00000  Uiso   1.00
H256   H     0.11682   0.47963   0.64302   0.00000  Uiso   1.00
H257   H     0.02255   0.43096   0.45186   0.00000  Uiso   1.00
H258   H     0.78800   0.27898   0.68852   0.00000  Uiso   1.00
H259   H     0.23995   0.50918   0.71909   0.00000  Uiso   1.00
H260   H     0.04118   0.40655   0.31598   0.00000  Uiso   1.00
H261   H     0.10780   0.12932   0.57502   0.00000  Uiso   1.00
H262   H     0.99885   0.06482   0.62908   0.00000  Uiso   1.00
H263   H     0.21319   0.17399   0.64360   0.00000  Uiso   1.00
H264   H     0.11892   0.12532   0.45243   0.00000  Uiso   1.00
H265   H     0.86622   0.03092   0.68899   0.00000  Uiso   1.00
H266   H     0.31818   0.26112   0.71956   0.00000  Uiso   1.00
H267   H     0.11939   0.15848   0.31644   0.00000  Uiso   1.00
O268   O     0.75380   0.11775   0.72433   0.00000  Uiso   1.00
O269   O     0.34675   0.41977   0.76443   0.00000  Uiso   1.00
O270   O     0.08595   0.28511   0.23555   0.00000  Uiso   1.00
N271   N     0.82135   0.22945   0.68120   0.00000  Uiso   1.00
N272   N     0.24390   0.44467   0.70979   0.00000  Uiso   1.00
N273   N     0.05807   0.34872   0.33291   0.00000  Uiso   1.00
N274   N     0.86344   0.09597   0.68145   0.00000  Uiso   1.00
N275   N     0.28599   0.31119   0.71004   0.00000  Uiso   1.00
N276   N     0.10016   0.21524   0.33316   0.00000  Uiso   1.00
C277   C     0.46263   0.14732   0.07460   0.00000  Uiso   1.00
C278   C     0.51188   0.21391   0.10403   0.00000  Uiso   1.00
C279   C     0.57673   0.19553   0.12864   0.00000  Uiso   1.00
C280   C     0.61380   0.26553   0.15346   0.00000  Uiso   1.00
C281   C     0.69435   0.35594   0.19916   0.00000  Uiso   1.00
C282   C     0.39543   0.15459   0.11192   0.00000  Uiso   1.00
C283   C     0.36237   0.08634   0.14316   0.00000  Uiso   1.00
C284   C     0.30140   0.10641   0.17461   0.00000  Uiso   1.00
C285   C     0.20113   0.10472   0.23252   0.00000  Uiso   1.00
C286   C     0.44665   0.18104   0.00805   0.00000  Uiso   1.00
C287   C     0.45664   0.13502   0.95196   0.00000  Uiso   1.00
C288   C     0.43878   0.17735   0.89596   0.00000  Uiso   1.00
C289   C     0.41805   0.21672   0.79261   0.00000  Uiso   1.00
C290   C     0.41313   0.30430   0.07489   0.00000  Uiso   1.00
C291   C     0.48499   0.29917   0.10419   0.00000  Uiso   1.00
C292   C     0.52197   0.36921   0.12897   0.00000  Uiso   1.00
C293   C     0.58687   0.35094   0.15361   0.00000  Uiso   1.00
C294   C     0.36854   0.23985   0.11208   0.00000  Uiso   1.00
C295   C     0.30760   0.26002   0.14349   0.00000  Uiso   1.00
C296   C     0.27446   0.19182   0.17477   0.00000  Uiso   1.00
C297   C     0.41977   0.26630   0.00821   0.00000  Uiso   1.00
C298   C     0.40188   0.30870   0.95229   0.00000  Uiso   1.00
C299   C     0.41185   0.26276   0.89612   0.00000  Uiso   1.00
H300   H     0.48356   0.08094   0.07448   0.00000  Uiso   1.00
H301   H     0.59752   0.12954   0.12852   0.00000  Uiso   1.00
H302   H     0.38318   0.02037   0.14302   0.00000  Uiso   1.00
H303   H     0.47745   0.06904   0.95186   0.00000  Uiso   1.00
H304   H     0.71200   0.22102   0.18852   0.00000  Uiso   1.00
H305   H     0.26005   0.99082   0.21909   0.00000  Uiso   1.00
H306   H     0.45882   0.09345   0.81598   0.00000  Uiso   1.00
H307   H     0.39220   0.37068   0.07502   0.00000  Uiso   1.00
H308   H     0.50115   0.43518   0.12908   0.00000  Uiso   1.00
H309   H     0.28681   0.32601   0.14360   0.00000  Uiso   1.00
H310   H     0.38108   0.37468   0.95243   0.00000  Uiso   1.00
H311   H     0.63378   0.46908   0.18899   0.00000  Uiso   1.00
H312   H     0.18182   0.23888   0.21956   0.00000  Uiso   1.00
H313   H     0.38061   0.34152   0.81644   0.00000  Uiso   1.00
O314   O     0.74620   0.38225   0.22433   0.00000  Uiso   1.00
O315   O     0.15325   0.08023   0.26443   0.00000  Uiso   1.00
O316   O     0.41405   0.21489   0.73555   0.00000  Uiso   1.00
N317   N     0.67865   0.27055   0.18120   0.00000  Uiso   1.00
N318   N     0.25610   0.05533   0.20979   0.00000  Uiso   1.00
N319   N     0.44193   0.15128   0.83291   0.00000  Uiso   1.00
N320   N     0.63656   0.40403   0.18145   0.00000  Uiso   1.00
N321   N     0.21401   0.18881   0.21004   0.00000  Uiso   1.00
N322   N     0.39984   0.28476   0.83316   0.00000  Uiso   1.00
C323   C     0.96263   0.64732   0.07460   0.00000  Uiso   1.00
C324   C     0.01188   0.71391   0.10403   0.00000  Uiso   1.00
C325   C     0.07673   0.69553   0.12864   0.00000  Uiso   1.00
C326   C     0.11380   0.76553   0.15346   0.00000  Uiso   1.00
C327   C     0.19435   0.85594   0.19916   0.00000  Uiso   1.00
C328   C     0.89543   0.65459   0.11192   0.00000  Uiso   1.00
C329   C     0.86237   0.58634   0.14316   0.00000  Uiso   1.00
C330   C     0.80140   0.60641   0.17461   0.00000  Uiso   1.00
C331   C     0.70113   0.60472   0.23252   0.00000  Uiso   1.00
C332   C     0.94665   0.68104   0.00805   0.00000  Uiso   1.00
C333   C     0.95664   0.63502   0.95196   0.00000  Uiso   1.00
C334   C     0.93878   0.67735   0.89596   0.00000  Uiso   1.00
C335   C     0.91805   0.71672   0.79261   0.00000  Uiso   1.00
C336   C     0.91313   0.80430   0.07489   0.00000  Uiso   1.00
C337   C     0.98499   0.79917   0.10419   0.00000  Uiso   1.00
C338   C     0.02197   0.86921   0.12897   0.00000  Uiso   1.00
C339   C     0.08687   0.85094   0.15361   0.00000  Uiso   1.00
C340   C     0.86854   0.73985   0.11208   0.00000  Uiso   1.00
C341   C     0.80760   0.76002   0.14349   0.00000  Uiso   1.00
C342   C     0.77446   0.69182   0.17477   0.00000  Uiso   1.00
C343   C     0.91977   0.76630   0.00821   0.00000  Uiso   1.00
C344   C     0.90188   0.80870   0.95229   0.00000  Uiso   1.00
C345   C     0.91185   0.76276   0.89612   0.00000  Uiso   1.00
H346   H     0.98356   0.58094   0.07448   0.00000  Uiso   1.00
H347   H     0.09752   0.62954   0.12852   0.00000  Uiso   1.00
H348   H     0.88318   0.52037   0.14302   0.00000  Uiso   1.00
H349   H     0.97745   0.56904   0.95186   0.00000  Uiso   1.00
H350   H     0.21200   0.72102   0.18852   0.00000  Uiso   1.00
H351   H     0.76005   0.49082   0.21909   0.00000  Uiso   1.00
H352   H     0.95882   0.59345   0.81598   0.00000  Uiso   1.00
H353   H     0.89220   0.87068   0.07502   0.00000  Uiso   1.00
H354   H     0.00115   0.93518   0.12908   0.00000  Uiso   1.00
H355   H     0.78681   0.82601   0.14360   0.00000  Uiso   1.00
H356   H     0.88108   0.87468   0.95243   0.00000  Uiso   1.00
H357   H     0.13378   0.96908   0.18899   0.00000  Uiso   1.00
H358   H     0.68182   0.73888   0.21956   0.00000  Uiso   1.00
H359   H     0.88061   0.84152   0.81644   0.00000  Uiso   1.00
O360   O     0.24620   0.88225   0.22433   0.00000  Uiso   1.00
O361   O     0.65325   0.58023   0.26443   0.00000  Uiso   1.00
O362   O     0.91405   0.71489   0.73555   0.00000  Uiso   1.00
N363   N     0.17865   0.77055   0.18120   0.00000  Uiso   1.00
N364   N     0.75610   0.55533   0.20979   0.00000  Uiso   1.00
N365   N     0.94193   0.65128   0.83291   0.00000  Uiso   1.00
N366   N     0.13656   0.90403   0.18145   0.00000  Uiso   1.00
N367   N     0.71401   0.68881   0.21004   0.00000  Uiso   1.00
N368   N     0.89984   0.78476   0.83316   0.00000  Uiso   1.00
