data_job_06040
_audit_creation_date              2018-12-19
_audit_creation_method            'Materials Studio'
_symmetry_space_group_name_H-M    'P1'
_symmetry_Int_Tables_number       1
_symmetry_cell_setting            triclinic
loop_
_symmetry_equiv_pos_as_xyz
  x,y,z
_cell_length_a                    7.8376
_cell_length_b                    23.2912
_cell_length_c                    24.1377
_cell_angle_alpha                 117.9824
_cell_angle_beta                  99.0447
_cell_angle_gamma                 91.3145
loop_
_atom_site_label
_atom_site_type_symbol
_atom_site_fract_x
_atom_site_fract_y
_atom_site_fract_z
_atom_site_U_iso_or_equiv
_atom_site_adp_type
_atom_site_occupancy
C1     C     0.01124   0.34263   0.28648   0.00000  Uiso   1.00
C2     C     0.91476   0.38110   0.25733   0.00000  Uiso   1.00
C3     C     0.99009   0.41819   0.23446   0.00000  Uiso   1.00
C4     C     0.87954   0.44971   0.20962   0.00000  Uiso   1.00
C5     C     0.75703   0.51030   0.16467   0.00000  Uiso   1.00
C6     C     0.96625   0.36775   0.35262   0.00000  Uiso   1.00
C7     C     0.08487   0.39360   0.40987   0.00000  Uiso   1.00
C8     C     0.01766   0.41387   0.46525   0.00000  Uiso   1.00
C9     C     0.97509   0.45369   0.56824   0.00000  Uiso   1.00
C10    C     0.92638   0.27219   0.24713   0.00000  Uiso   1.00
C11    C     0.01148   0.21768   0.21569   0.00000  Uiso   1.00
C12    C     0.91070   0.15749   0.18227   0.00000  Uiso   1.00
C13    C     0.80623   0.04893   0.12146   0.00000  Uiso   1.00
C14    C     0.68095   0.33263   0.28303   0.00000  Uiso   1.00
C15    C     0.73536   0.37568   0.25546   0.00000  Uiso   1.00
C16    C     0.62466   0.40714   0.23064   0.00000  Uiso   1.00
C17    C     0.69981   0.44427   0.20774   0.00000  Uiso   1.00
C18    C     0.78685   0.36232   0.35075   0.00000  Uiso   1.00
C19    C     0.71944   0.38255   0.40605   0.00000  Uiso   1.00
C20    C     0.83793   0.40843   0.46337   0.00000  Uiso   1.00
C21    C     0.74697   0.26676   0.24525   0.00000  Uiso   1.00
C22    C     0.64605   0.20663   0.21187   0.00000  Uiso   1.00
C23    C     0.73098   0.15205   0.18039   0.00000  Uiso   1.00
H24    H     0.15091   0.34685   0.28794   0.00000  Uiso   1.00
H25    H     0.12894   0.42239   0.23592   0.00000  Uiso   1.00
H26    H     0.22370   0.39779   0.41130   0.00000  Uiso   1.00
H27    H     0.15031   0.22190   0.21715   0.00000  Uiso   1.00
H28    H     0.02546   0.50375   0.17745   0.00000  Uiso   1.00
H29    H     0.22528   0.45188   0.54725   0.00000  Uiso   1.00
H30    H     0.07053   0.08098   0.13784   0.00000  Uiso   1.00
H31    H     0.54127   0.32841   0.28157   0.00000  Uiso   1.00
H32    H     0.48583   0.40293   0.22920   0.00000  Uiso   1.00
H33    H     0.58060   0.37834   0.40458   0.00000  Uiso   1.00
H34    H     0.50722   0.20245   0.21043   0.00000  Uiso   1.00
H35    H     0.50349   0.48796   0.17200   0.00000  Uiso   1.00
H36    H     0.70332   0.43609   0.54180   0.00000  Uiso   1.00
H37    H     0.54857   0.06519   0.13239   0.00000  Uiso   1.00
O38    O     0.73901   0.54523   0.14041   0.00000  Uiso   1.00
O39    O     0.00118   0.47716   0.62557   0.00000  Uiso   1.00
O40    O     0.79815   0.99055   0.08844   0.00000  Uiso   1.00
N41    N     0.91021   0.48980   0.18334   0.00000  Uiso   1.00
N42    N     0.09704   0.44131   0.52908   0.00000  Uiso   1.00
N43    N     0.95237   0.09455   0.14634   0.00000  Uiso   1.00
N44    N     0.62935   0.48130   0.18040   0.00000  Uiso   1.00
N45    N     0.81617   0.43281   0.52615   0.00000  Uiso   1.00
N46    N     0.67151   0.08605   0.14340   0.00000  Uiso   1.00
C47    C     0.03658   0.71587   0.04753   0.00000  Uiso   1.00
C48    C     0.00091   0.74192   0.11505   0.00000  Uiso   1.00
C49    C     0.12594   0.76713   0.17063   0.00000  Uiso   1.00
C50    C     0.06685   0.78842   0.22769   0.00000  Uiso   1.00
C51    C     0.03851   0.82941   0.33232   0.00000  Uiso   1.00
C52    C     0.94737   0.64597   0.00955   0.00000  Uiso   1.00
C53    C     0.02739   0.59053   0.97642   0.00000  Uiso   1.00
C54    C     0.92322   0.53106   0.94466   0.00000  Uiso   1.00
C55    C     0.81173   0.42310   0.88546   0.00000  Uiso   1.00
C56    C     0.93718   0.75491   0.01971   0.00000  Uiso   1.00
C57    C     0.00862   0.79104   0.99511   0.00000  Uiso   1.00
C58    C     0.89585   0.82327   0.97189   0.00000  Uiso   1.00
C59    C     0.76855   0.88444   0.92847   0.00000  Uiso   1.00
C60    C     0.70930   0.70884   0.05003   0.00000  Uiso   1.00
C61    C     0.82314   0.73809   0.11640   0.00000  Uiso   1.00
C62    C     0.76384   0.75935   0.17340   0.00000  Uiso   1.00
C63    C     0.88877   0.78460   0.22906   0.00000  Uiso   1.00
C64    C     0.76961   0.64215   0.01090   0.00000  Uiso   1.00
C65    C     0.66529   0.58275   0.97919   0.00000  Uiso   1.00
C66    C     0.74513   0.52723   0.94603   0.00000  Uiso   1.00
C67    C     0.75941   0.75109   0.02107   0.00000  Uiso   1.00
C68    C     0.64652   0.78326   0.99788   0.00000  Uiso   1.00
C69    C     0.71777   0.81944   0.97325   0.00000  Uiso   1.00
H70    H     0.17498   0.71884   0.04647   0.00000  Uiso   1.00
H71    H     0.26350   0.77008   0.16956   0.00000  Uiso   1.00
H72    H     0.16495   0.59350   0.97537   0.00000  Uiso   1.00
H73    H     0.14618   0.79398   0.99406   0.00000  Uiso   1.00
H74    H     0.28325   0.82517   0.30662   0.00000  Uiso   1.00
H75    H     0.07545   0.45286   0.89715   0.00000  Uiso   1.00
H76    H     0.03588   0.87561   0.93656   0.00000  Uiso   1.00
H77    H     0.57090   0.70587   0.05109   0.00000  Uiso   1.00
H78    H     0.62627   0.75639   0.17443   0.00000  Uiso   1.00
H79    H     0.52773   0.57981   0.98025   0.00000  Uiso   1.00
H80    H     0.50896   0.78030   0.99894   0.00000  Uiso   1.00
H81    H     0.76605   0.81406   0.31058   0.00000  Uiso   1.00
H82    H     0.55826   0.44174   0.90111   0.00000  Uiso   1.00
H83    H     0.51868   0.86450   0.94052   0.00000  Uiso   1.00
O84    O     0.07198   0.85306   0.38966   0.00000  Uiso   1.00
O85    O     0.79935   0.36461   0.85244   0.00000  Uiso   1.00
O86    O     0.74743   0.91925   0.90415   0.00000  Uiso   1.00
N87    N     0.15393   0.81563   0.29063   0.00000  Uiso   1.00
N88    N     0.95966   0.46754   0.90781   0.00000  Uiso   1.00
N89    N     0.92265   0.86276   0.94464   0.00000  Uiso   1.00
N90    N     0.87563   0.80966   0.29276   0.00000  Uiso   1.00
N91    N     0.68136   0.46156   0.90993   0.00000  Uiso   1.00
N92    N     0.64435   0.85679   0.94677   0.00000  Uiso   1.00
C93    C     0.69863   0.95663   0.66669   0.00000  Uiso   1.00
C94    C     0.61791   0.88560   0.62803   0.00000  Uiso   1.00
C95    C     0.70532   0.83209   0.59571   0.00000  Uiso   1.00
C96    C     0.60824   0.77113   0.56312   0.00000  Uiso   1.00
C97    C     0.50996   0.66194   0.50309   0.00000  Uiso   1.00
C98    C     0.59407   0.99410   0.63820   0.00000  Uiso   1.00
C99    C     0.66145   0.03183   0.61445   0.00000  Uiso   1.00
C100   C     0.54430   0.06221   0.59042   0.00000  Uiso   1.00
C101   C     0.40904   0.12150   0.54623   0.00000  Uiso   1.00
C102   C     0.65924   0.98120   0.73355   0.00000  Uiso   1.00
C103   C     0.78142   0.00809   0.78998   0.00000  Uiso   1.00
C104   C     0.71913   0.02763   0.84623   0.00000  Uiso   1.00
C105   C     0.68506   0.06688   0.95009   0.00000  Uiso   1.00
C106   C     0.37078   0.94352   0.66626   0.00000  Uiso   1.00
C107   C     0.43982   0.87848   0.62779   0.00000  Uiso   1.00
C108   C     0.34259   0.81759   0.59524   0.00000  Uiso   1.00
C109   C     0.42984   0.76400   0.56288   0.00000  Uiso   1.00
C110   C     0.41600   0.98699   0.63796   0.00000  Uiso   1.00
C111   C     0.29872   0.01733   0.61397   0.00000  Uiso   1.00
C112   C     0.36590   0.05508   0.59018   0.00000  Uiso   1.00
C113   C     0.48116   0.97408   0.73332   0.00000  Uiso   1.00
C114   C     0.41868   0.99358   0.78950   0.00000  Uiso   1.00
C115   C     0.54073   0.02050   0.84600   0.00000  Uiso   1.00
H116   H     0.83727   0.96217   0.66687   0.00000  Uiso   1.00
H117   H     0.84313   0.83762   0.59590   0.00000  Uiso   1.00
H118   H     0.79927   0.03733   0.61464   0.00000  Uiso   1.00
H119   H     0.91921   0.01359   0.79014   0.00000  Uiso   1.00
H120   H     0.77108   0.69640   0.51709   0.00000  Uiso   1.00
H121   H     0.67861   0.11751   0.55662   0.00000  Uiso   1.00
H122   H     0.93153   0.06745   0.92670   0.00000  Uiso   1.00
H123   H     0.23213   0.93798   0.66608   0.00000  Uiso   1.00
H124   H     0.20478   0.81210   0.59507   0.00000  Uiso   1.00
H125   H     0.16092   0.01181   0.61380   0.00000  Uiso   1.00
H126   H     0.28086   0.98807   0.78930   0.00000  Uiso   1.00
H127   H     0.25297   0.67568   0.51641   0.00000  Uiso   1.00
H128   H     0.16050   0.09680   0.55594   0.00000  Uiso   1.00
H129   H     0.41342   0.04674   0.92602   0.00000  Uiso   1.00
O130   O     0.50494   0.60367   0.47003   0.00000  Uiso   1.00
O131   O     0.38363   0.15617   0.52191   0.00000  Uiso   1.00
O132   O     0.71546   0.09049   0.00743   0.00000  Uiso   1.00
N133   N     0.65291   0.70880   0.52669   0.00000  Uiso   1.00
N134   N     0.56644   0.10251   0.56364   0.00000  Uiso   1.00
N135   N     0.80290   0.05572   0.90963   0.00000  Uiso   1.00
N136   N     0.37411   0.69765   0.52632   0.00000  Uiso   1.00
N137   N     0.28765   0.09136   0.56327   0.00000  Uiso   1.00
N138   N     0.52411   0.04457   0.90926   0.00000  Uiso   1.00
C139   C     0.98876   0.65737   0.71352   0.00000  Uiso   1.00
C140   C     0.08524   0.61890   0.74267   0.00000  Uiso   1.00
C141   C     0.00991   0.58181   0.76554   0.00000  Uiso   1.00
C142   C     0.12046   0.55029   0.79038   0.00000  Uiso   1.00
C143   C     0.24297   0.48970   0.83533   0.00000  Uiso   1.00
C144   C     0.03375   0.63225   0.64738   0.00000  Uiso   1.00
C145   C     0.91513   0.60640   0.59013   0.00000  Uiso   1.00
C146   C     0.98234   0.58613   0.53475   0.00000  Uiso   1.00
C147   C     0.02491   0.54631   0.43176   0.00000  Uiso   1.00
C148   C     0.07362   0.72781   0.75287   0.00000  Uiso   1.00
C149   C     0.98852   0.78232   0.78431   0.00000  Uiso   1.00
C150   C     0.08930   0.84251   0.81773   0.00000  Uiso   1.00
C151   C     0.19377   0.95107   0.87854   0.00000  Uiso   1.00
C152   C     0.31905   0.66737   0.71697   0.00000  Uiso   1.00
C153   C     0.26464   0.62432   0.74454   0.00000  Uiso   1.00
C154   C     0.37534   0.59286   0.76936   0.00000  Uiso   1.00
C155   C     0.30019   0.55573   0.79226   0.00000  Uiso   1.00
C156   C     0.21315   0.63768   0.64925   0.00000  Uiso   1.00
C157   C     0.28056   0.61745   0.59395   0.00000  Uiso   1.00
C158   C     0.16207   0.59157   0.53663   0.00000  Uiso   1.00
C159   C     0.25303   0.73324   0.75475   0.00000  Uiso   1.00
C160   C     0.35395   0.79337   0.78813   0.00000  Uiso   1.00
C161   C     0.26902   0.84795   0.81961   0.00000  Uiso   1.00
H162   H     0.84909   0.65315   0.71206   0.00000  Uiso   1.00
H163   H     0.87106   0.57761   0.76408   0.00000  Uiso   1.00
H164   H     0.77630   0.60221   0.58870   0.00000  Uiso   1.00
H165   H     0.84969   0.77810   0.78285   0.00000  Uiso   1.00
H166   H     0.97454   0.49625   0.82255   0.00000  Uiso   1.00
H167   H     0.77472   0.54812   0.45275   0.00000  Uiso   1.00
H168   H     0.92947   0.91902   0.86216   0.00000  Uiso   1.00
H169   H     0.45873   0.67159   0.71843   0.00000  Uiso   1.00
H170   H     0.51417   0.59707   0.77080   0.00000  Uiso   1.00
H171   H     0.41940   0.62166   0.59542   0.00000  Uiso   1.00
H172   H     0.49278   0.79755   0.78957   0.00000  Uiso   1.00
H173   H     0.49651   0.51204   0.82800   0.00000  Uiso   1.00
H174   H     0.29668   0.56391   0.45820   0.00000  Uiso   1.00
H175   H     0.45143   0.93481   0.86761   0.00000  Uiso   1.00
O176   O     0.26099   0.45477   0.85959   0.00000  Uiso   1.00
O177   O     0.99882   0.52284   0.37443   0.00000  Uiso   1.00
O178   O     0.20185   0.00945   0.91156   0.00000  Uiso   1.00
N179   N     0.08979   0.51020   0.81666   0.00000  Uiso   1.00
N180   N     0.90296   0.55869   0.47092   0.00000  Uiso   1.00
N181   N     0.04763   0.90545   0.85366   0.00000  Uiso   1.00
N182   N     0.37065   0.51870   0.81960   0.00000  Uiso   1.00
N183   N     0.18383   0.56719   0.47385   0.00000  Uiso   1.00
N184   N     0.32849   0.91395   0.85660   0.00000  Uiso   1.00
C185   C     0.96342   0.28412   0.95247   0.00000  Uiso   1.00
C186   C     0.99909   0.25808   0.88495   0.00000  Uiso   1.00
C187   C     0.87406   0.23287   0.82937   0.00000  Uiso   1.00
C188   C     0.93315   0.21158   0.77231   0.00000  Uiso   1.00
C189   C     0.96149   0.17059   0.66768   0.00000  Uiso   1.00
C190   C     0.05263   0.35403   0.99045   0.00000  Uiso   1.00
C191   C     0.97261   0.40947   0.02358   0.00000  Uiso   1.00
C192   C     0.07678   0.46894   0.05534   0.00000  Uiso   1.00
C193   C     0.18827   0.57690   0.11454   0.00000  Uiso   1.00
C194   C     0.06282   0.24509   0.98029   0.00000  Uiso   1.00
C195   C     0.99138   0.20896   0.00489   0.00000  Uiso   1.00
C196   C     0.10415   0.17673   0.02811   0.00000  Uiso   1.00
C197   C     0.23145   0.11556   0.07153   0.00000  Uiso   1.00
C198   C     0.29070   0.29116   0.94997   0.00000  Uiso   1.00
C199   C     0.17686   0.26191   0.88360   0.00000  Uiso   1.00
C200   C     0.23616   0.24064   0.82660   0.00000  Uiso   1.00
C201   C     0.11123   0.21540   0.77094   0.00000  Uiso   1.00
C202   C     0.23039   0.35785   0.98909   0.00000  Uiso   1.00
C203   C     0.33471   0.41725   0.02081   0.00000  Uiso   1.00
C204   C     0.25487   0.47277   0.05397   0.00000  Uiso   1.00
C205   C     0.24059   0.24891   0.97893   0.00000  Uiso   1.00
C206   C     0.35348   0.21674   0.00212   0.00000  Uiso   1.00
C207   C     0.28223   0.18056   0.02675   0.00000  Uiso   1.00
H208   H     0.82502   0.28116   0.95353   0.00000  Uiso   1.00
H209   H     0.73650   0.22992   0.83044   0.00000  Uiso   1.00
H210   H     0.83505   0.40650   0.02463   0.00000  Uiso   1.00
H211   H     0.85382   0.20602   0.00594   0.00000  Uiso   1.00
H212   H     0.71675   0.17483   0.69338   0.00000  Uiso   1.00
H213   H     0.92455   0.54714   0.10285   0.00000  Uiso   1.00
H214   H     0.96412   0.12439   0.06344   0.00000  Uiso   1.00
H215   H     0.42910   0.29413   0.94891   0.00000  Uiso   1.00
H216   H     0.37373   0.24361   0.82556   0.00000  Uiso   1.00
H217   H     0.47227   0.42019   0.01975   0.00000  Uiso   1.00
H218   H     0.49104   0.21970   0.00106   0.00000  Uiso   1.00
H219   H     0.23395   0.18594   0.68942   0.00000  Uiso   1.00
H220   H     0.44174   0.55826   0.09889   0.00000  Uiso   1.00
H221   H     0.48132   0.13550   0.05948   0.00000  Uiso   1.00
O222   O     0.92802   0.14694   0.61034   0.00000  Uiso   1.00
O223   O     0.20065   0.63539   0.14756   0.00000  Uiso   1.00
O224   O     0.25257   0.08075   0.09585   0.00000  Uiso   1.00
N225   N     0.84607   0.18437   0.70937   0.00000  Uiso   1.00
N226   N     0.04034   0.53246   0.09219   0.00000  Uiso   1.00
N227   N     0.07735   0.13724   0.05536   0.00000  Uiso   1.00
N228   N     0.12437   0.19034   0.70724   0.00000  Uiso   1.00
N229   N     0.31864   0.53844   0.09007   0.00000  Uiso   1.00
N230   N     0.35565   0.14321   0.05323   0.00000  Uiso   1.00
C231   C     0.30137   0.04337   0.33331   0.00000  Uiso   1.00
C232   C     0.38209   0.11440   0.37197   0.00000  Uiso   1.00
C233   C     0.29468   0.16791   0.40429   0.00000  Uiso   1.00
C234   C     0.39176   0.22887   0.43688   0.00000  Uiso   1.00
C235   C     0.49004   0.33806   0.49691   0.00000  Uiso   1.00
C236   C     0.40593   0.00590   0.36180   0.00000  Uiso   1.00
C237   C     0.33855   0.96817   0.38555   0.00000  Uiso   1.00
C238   C     0.45570   0.93779   0.40958   0.00000  Uiso   1.00
C239   C     0.59096   0.87850   0.45377   0.00000  Uiso   1.00
C240   C     0.34076   0.01880   0.26645   0.00000  Uiso   1.00
C241   C     0.21858   0.99191   0.21002   0.00000  Uiso   1.00
C242   C     0.28087   0.97237   0.15377   0.00000  Uiso   1.00
C243   C     0.31494   0.93312   0.04991   0.00000  Uiso   1.00
C244   C     0.62922   0.05648   0.33374   0.00000  Uiso   1.00
C245   C     0.56018   0.12152   0.37221   0.00000  Uiso   1.00
C246   C     0.65741   0.18241   0.40476   0.00000  Uiso   1.00
C247   C     0.57016   0.23600   0.43712   0.00000  Uiso   1.00
C248   C     0.58400   0.01301   0.36204   0.00000  Uiso   1.00
C249   C     0.70128   0.98267   0.38603   0.00000  Uiso   1.00
C250   C     0.63410   0.94492   0.40982   0.00000  Uiso   1.00
C251   C     0.51884   0.02592   0.26668   0.00000  Uiso   1.00
C252   C     0.58132   0.00642   0.21050   0.00000  Uiso   1.00
C253   C     0.45927   0.97950   0.15400   0.00000  Uiso   1.00
H254   H     0.16273   0.03783   0.33313   0.00000  Uiso   1.00
H255   H     0.15687   0.16238   0.40410   0.00000  Uiso   1.00
H256   H     0.20073   0.96267   0.38536   0.00000  Uiso   1.00
H257   H     0.08079   0.98641   0.20986   0.00000  Uiso   1.00
H258   H     0.22892   0.30360   0.48291   0.00000  Uiso   1.00
H259   H     0.32139   0.88249   0.44338   0.00000  Uiso   1.00
H260   H     0.06847   0.93254   0.07330   0.00000  Uiso   1.00
H261   H     0.76787   0.06202   0.33392   0.00000  Uiso   1.00
H262   H     0.79522   0.18790   0.40493   0.00000  Uiso   1.00
H263   H     0.83908   0.98819   0.38620   0.00000  Uiso   1.00
H264   H     0.71914   0.01193   0.21070   0.00000  Uiso   1.00
H265   H     0.74703   0.32432   0.48359   0.00000  Uiso   1.00
H266   H     0.83950   0.90320   0.44406   0.00000  Uiso   1.00
H267   H     0.58658   0.95326   0.07398   0.00000  Uiso   1.00
O268   O     0.49506   0.39633   0.52997   0.00000  Uiso   1.00
O269   O     0.61637   0.84383   0.47809   0.00000  Uiso   1.00
O270   O     0.28454   0.90951   0.99257   0.00000  Uiso   1.00
N271   N     0.34709   0.29120   0.47331   0.00000  Uiso   1.00
N272   N     0.43356   0.89749   0.43636   0.00000  Uiso   1.00
N273   N     0.19710   0.94428   0.09037   0.00000  Uiso   1.00
N274   N     0.62589   0.30235   0.47368   0.00000  Uiso   1.00
N275   N     0.71235   0.90864   0.43673   0.00000  Uiso   1.00
N276   N     0.47589   0.95543   0.09074   0.00000  Uiso   1.00
