data_job_02468
_audit_creation_date              2018-12-19
_audit_creation_method            'Materials Studio'
_symmetry_space_group_name_H-M    'P1'
_symmetry_Int_Tables_number       1
_symmetry_cell_setting            triclinic
loop_
_symmetry_equiv_pos_as_xyz
  x,y,z
_cell_length_a                    9.4917
_cell_length_b                    14.6324
_cell_length_c                    9.7653
_cell_angle_alpha                 90.0000
_cell_angle_beta                  80.8701
_cell_angle_gamma                 90.0000
loop_
_atom_site_label
_atom_site_type_symbol
_atom_site_fract_x
_atom_site_fract_y
_atom_site_fract_z
_atom_site_U_iso_or_equiv
_atom_site_adp_type
_atom_site_occupancy
C1     C     0.74914   0.77153   0.96759   0.00000  Uiso   1.00
C2     C     0.65575   0.72397   0.08817   0.00000  Uiso   1.00
C3     C     0.67244   0.72933   0.22657   0.00000  Uiso   1.00
C4     C     0.57598   0.68077   0.32114   0.00000  Uiso   1.00
C5     C     0.44761   0.61479   0.51482   0.00000  Uiso   1.00
C6     C     0.80563   0.69625   0.86548   0.00000  Uiso   1.00
C7     C     0.94834   0.67831   0.81665   0.00000  Uiso   1.00
C8     C     0.97805   0.60643   0.72374   0.00000  Uiso   1.00
C9     C     0.08238   0.49746   0.57162   0.00000  Uiso   1.00
C10    C     0.64832   0.82875   0.89554   0.00000  Uiso   1.00
C11    C     0.65878   0.92221   0.87194   0.00000  Uiso   1.00
C12    C     0.55606   0.96187   0.80431   0.00000  Uiso   1.00
C13    C     0.41615   0.05862   0.69886   0.00000  Uiso   1.00
C14    C     0.54815   0.67577   0.88942   0.00000  Uiso   1.00
C15    C     0.54658   0.67195   0.04570   0.00000  Uiso   1.00
C16    C     0.45007   0.62338   0.14009   0.00000  Uiso   1.00
C17    C     0.46661   0.62867   0.27861   0.00000  Uiso   1.00
C18    C     0.69647   0.64424   0.82302   0.00000  Uiso   1.00
C19    C     0.72597   0.57237   0.73016   0.00000  Uiso   1.00
C20    C     0.86869   0.55432   0.68121   0.00000  Uiso   1.00
C21    C     0.53915   0.77673   0.85308   0.00000  Uiso   1.00
C22    C     0.43641   0.81626   0.78547   0.00000  Uiso   1.00
C23    C     0.44670   0.90977   0.76177   0.00000  Uiso   1.00
H24    H     0.83414   0.81202   0.00064   0.00000  Uiso   1.00
H25    H     0.75695   0.76958   0.25939   0.00000  Uiso   1.00
H26    H     0.03280   0.71858   0.84951   0.00000  Uiso   1.00
H27    H     0.74328   0.96244   0.90481   0.00000  Uiso   1.00
H28    H     0.62325   0.69956   0.52753   0.00000  Uiso   1.00
H29    H     0.20490   0.59205   0.66325   0.00000  Uiso   1.00
H30    H     0.59440   0.10627   0.77985   0.00000  Uiso   1.00
H31    H     0.46316   0.63527   0.85636   0.00000  Uiso   1.00
H32    H     0.36560   0.58313   0.10720   0.00000  Uiso   1.00
H33    H     0.64146   0.53213   0.69732   0.00000  Uiso   1.00
H34    H     0.35194   0.77599   0.75262   0.00000  Uiso   1.00
H35    H     0.30562   0.54823   0.40401   0.00000  Uiso   1.00
H36    H     0.88728   0.44072   0.53972   0.00000  Uiso   1.00
H37    H     0.27677   0.95493   0.65633   0.00000  Uiso   1.00
O38    O     0.40698   0.59276   0.63338   0.00000  Uiso   1.00
O39    O     0.17009   0.45172   0.49946   0.00000  Uiso   1.00
O40    O     0.36911   0.12636   0.65245   0.00000  Uiso   1.00
N41    N     0.56186   0.67112   0.46404   0.00000  Uiso   1.00
N42    N     0.10568   0.57059   0.65601   0.00000  Uiso   1.00
N43    N     0.53493   0.05133   0.76498   0.00000  Uiso   1.00
N44    N     0.39095   0.58969   0.39757   0.00000  Uiso   1.00
N45    N     0.93477   0.48916   0.58954   0.00000  Uiso   1.00
N46    N     0.36402   0.96990   0.69852   0.00000  Uiso   1.00
C47    C     0.74914   0.22847   0.46759   0.00000  Uiso   1.00
C48    C     0.65575   0.27603   0.58817   0.00000  Uiso   1.00
C49    C     0.67244   0.27067   0.72657   0.00000  Uiso   1.00
C50    C     0.57598   0.31923   0.82114   0.00000  Uiso   1.00
C51    C     0.44761   0.38521   0.01482   0.00000  Uiso   1.00
C52    C     0.80563   0.30375   0.36548   0.00000  Uiso   1.00
C53    C     0.94834   0.32169   0.31665   0.00000  Uiso   1.00
C54    C     0.97805   0.39357   0.22374   0.00000  Uiso   1.00
C55    C     0.08238   0.50254   0.07162   0.00000  Uiso   1.00
C56    C     0.64832   0.17125   0.39554   0.00000  Uiso   1.00
C57    C     0.65878   0.07779   0.37194   0.00000  Uiso   1.00
C58    C     0.55606   0.03813   0.30431   0.00000  Uiso   1.00
C59    C     0.41615   0.94138   0.19886   0.00000  Uiso   1.00
C60    C     0.54815   0.32423   0.38942   0.00000  Uiso   1.00
C61    C     0.54658   0.32805   0.54570   0.00000  Uiso   1.00
C62    C     0.45007   0.37662   0.64009   0.00000  Uiso   1.00
C63    C     0.46661   0.37133   0.77861   0.00000  Uiso   1.00
C64    C     0.69647   0.35576   0.32302   0.00000  Uiso   1.00
C65    C     0.72597   0.42763   0.23016   0.00000  Uiso   1.00
C66    C     0.86869   0.44568   0.18121   0.00000  Uiso   1.00
C67    C     0.53915   0.22327   0.35308   0.00000  Uiso   1.00
C68    C     0.43641   0.18374   0.28547   0.00000  Uiso   1.00
C69    C     0.44670   0.09023   0.26177   0.00000  Uiso   1.00
H70    H     0.83414   0.18798   0.50064   0.00000  Uiso   1.00
H71    H     0.75695   0.23042   0.75939   0.00000  Uiso   1.00
H72    H     0.03280   0.28142   0.34951   0.00000  Uiso   1.00
H73    H     0.74328   0.03756   0.40481   0.00000  Uiso   1.00
H74    H     0.62325   0.30044   0.02753   0.00000  Uiso   1.00
H75    H     0.20490   0.40795   0.16325   0.00000  Uiso   1.00
H76    H     0.59440   0.89373   0.27985   0.00000  Uiso   1.00
H77    H     0.46316   0.36473   0.35636   0.00000  Uiso   1.00
H78    H     0.36560   0.41687   0.60720   0.00000  Uiso   1.00
H79    H     0.64146   0.46787   0.19732   0.00000  Uiso   1.00
H80    H     0.35194   0.22401   0.25262   0.00000  Uiso   1.00
H81    H     0.30562   0.45177   0.90401   0.00000  Uiso   1.00
H82    H     0.88728   0.55928   0.03972   0.00000  Uiso   1.00
H83    H     0.27677   0.04507   0.15633   0.00000  Uiso   1.00
O84    O     0.40698   0.40724   0.13338   0.00000  Uiso   1.00
O85    O     0.17009   0.54828   0.99946   0.00000  Uiso   1.00
O86    O     0.36911   0.87364   0.15245   0.00000  Uiso   1.00
N87    N     0.56186   0.32888   0.96404   0.00000  Uiso   1.00
N88    N     0.10568   0.42941   0.15601   0.00000  Uiso   1.00
N89    N     0.53493   0.94867   0.26498   0.00000  Uiso   1.00
N90    N     0.39095   0.41031   0.89757   0.00000  Uiso   1.00
N91    N     0.93477   0.51084   0.08954   0.00000  Uiso   1.00
N92    N     0.36402   0.03010   0.19852   0.00000  Uiso   1.00
