data_job_04224
_audit_creation_date              2018-12-19
_audit_creation_method            'Materials Studio'
_symmetry_space_group_name_H-M    'P1'
_symmetry_Int_Tables_number       1
_symmetry_cell_setting            triclinic
loop_
_symmetry_equiv_pos_as_xyz
  x,y,z
_cell_length_a                    30.9179
_cell_length_b                    12.5358
_cell_length_c                    20.2682
_cell_angle_alpha                 90.0000
_cell_angle_beta                  120.2440
_cell_angle_gamma                 90.0000
loop_
_atom_site_label
_atom_site_type_symbol
_atom_site_fract_x
_atom_site_fract_y
_atom_site_fract_z
_atom_site_U_iso_or_equiv
_atom_site_adp_type
_atom_site_occupancy
C1     C     0.41595   0.89260   0.57677   0.00000  Uiso   1.00
C2     C     0.41782   0.99796   0.54069   0.00000  Uiso   1.00
C3     C     0.46003   0.06088   0.56419   0.00000  Uiso   1.00
C4     C     0.45400   0.15440   0.52374   0.00000  Uiso   1.00
C5     C     0.46400   0.31355   0.47713   0.00000  Uiso   1.00
C6     C     0.37604   0.90649   0.59923   0.00000  Uiso   1.00
C7     C     0.38312   0.89249   0.67195   0.00000  Uiso   1.00
C8     C     0.34191   0.90900   0.68076   0.00000  Uiso   1.00
C9     C     0.28703   0.92606   0.72502   0.00000  Uiso   1.00
C10    C     0.39518   0.81050   0.51251   0.00000  Uiso   1.00
C11    C     0.41835   0.71577   0.51233   0.00000  Uiso   1.00
C12    C     0.39325   0.65145   0.44814   0.00000  Uiso   1.00
C13    C     0.36809   0.51947   0.35777   0.00000  Uiso   1.00
C14    C     0.33016   0.94681   0.46312   0.00000  Uiso   1.00
C15    C     0.37123   0.02740   0.47896   0.00000  Uiso   1.00
C16    C     0.36513   0.12086   0.43845   0.00000  Uiso   1.00
C17    C     0.40732   0.18390   0.46189   0.00000  Uiso   1.00
C18    C     0.32945   0.93594   0.53750   0.00000  Uiso   1.00
C19    C     0.28821   0.95246   0.54621   0.00000  Uiso   1.00
C20    C     0.29523   0.93850   0.61892   0.00000  Uiso   1.00
C21    C     0.34859   0.83994   0.45078   0.00000  Uiso   1.00
C22    C     0.32344   0.77575   0.38659   0.00000  Uiso   1.00
C23    C     0.34657   0.68094   0.38630   0.00000  Uiso   1.00
H24    H     0.45222   0.86968   0.62483   0.00000  Uiso   1.00
H25    H     0.49609   0.03807   0.61197   0.00000  Uiso   1.00
H26    H     0.41918   0.86969   0.71971   0.00000  Uiso   1.00
H27    H     0.45441   0.69301   0.56011   0.00000  Uiso   1.00
H28    H     0.52417   0.23777   0.57051   0.00000  Uiso   1.00
H29    H     0.36201   0.88270   0.79767   0.00000  Uiso   1.00
H30    H     0.43629   0.51012   0.46113   0.00000  Uiso   1.00
H31    H     0.29389   0.96973   0.41506   0.00000  Uiso   1.00
H32    H     0.32907   0.14362   0.39069   0.00000  Uiso   1.00
H33    H     0.25216   0.97524   0.49842   0.00000  Uiso   1.00
H34    H     0.28739   0.79856   0.33883   0.00000  Uiso   1.00
H35    H     0.38861   0.32344   0.39091   0.00000  Uiso   1.00
H36    H     0.22645   0.96837   0.61807   0.00000  Uiso   1.00
H37    H     0.30073   0.59580   0.28153   0.00000  Uiso   1.00
O38    O     0.48238   0.39321   0.46848   0.00000  Uiso   1.00
O39    O     0.26963   0.92735   0.76650   0.00000  Uiso   1.00
O40    O     0.36709   0.43855   0.32497   0.00000  Uiso   1.00
N41    N     0.48744   0.23406   0.53158   0.00000  Uiso   1.00
N42    N     0.33583   0.90211   0.74396   0.00000  Uiso   1.00
N43    N     0.40527   0.55377   0.42933   0.00000  Uiso   1.00
N44    N     0.41450   0.28016   0.43493   0.00000  Uiso   1.00
N45    N     0.26289   0.94821   0.64731   0.00000  Uiso   1.00
N46    N     0.33233   0.59986   0.33269   0.00000  Uiso   1.00
C47    C     0.91595   0.39260   0.57677   0.00000  Uiso   1.00
C48    C     0.91782   0.49796   0.54069   0.00000  Uiso   1.00
C49    C     0.96003   0.56088   0.56419   0.00000  Uiso   1.00
C50    C     0.95400   0.65440   0.52374   0.00000  Uiso   1.00
C51    C     0.96400   0.81355   0.47713   0.00000  Uiso   1.00
C52    C     0.87604   0.40649   0.59923   0.00000  Uiso   1.00
C53    C     0.88312   0.39249   0.67195   0.00000  Uiso   1.00
C54    C     0.84191   0.40900   0.68076   0.00000  Uiso   1.00
C55    C     0.78703   0.42606   0.72502   0.00000  Uiso   1.00
C56    C     0.89518   0.31050   0.51251   0.00000  Uiso   1.00
C57    C     0.91835   0.21577   0.51233   0.00000  Uiso   1.00
C58    C     0.89325   0.15145   0.44814   0.00000  Uiso   1.00
C59    C     0.86809   0.01947   0.35777   0.00000  Uiso   1.00
C60    C     0.83016   0.44681   0.46312   0.00000  Uiso   1.00
C61    C     0.87123   0.52740   0.47896   0.00000  Uiso   1.00
C62    C     0.86513   0.62086   0.43845   0.00000  Uiso   1.00
C63    C     0.90732   0.68390   0.46189   0.00000  Uiso   1.00
C64    C     0.82945   0.43594   0.53750   0.00000  Uiso   1.00
C65    C     0.78821   0.45246   0.54621   0.00000  Uiso   1.00
C66    C     0.79523   0.43850   0.61892   0.00000  Uiso   1.00
C67    C     0.84859   0.33994   0.45078   0.00000  Uiso   1.00
C68    C     0.82344   0.27575   0.38659   0.00000  Uiso   1.00
C69    C     0.84657   0.18094   0.38630   0.00000  Uiso   1.00
H70    H     0.95222   0.36968   0.62483   0.00000  Uiso   1.00
H71    H     0.99609   0.53807   0.61197   0.00000  Uiso   1.00
H72    H     0.91918   0.36969   0.71971   0.00000  Uiso   1.00
H73    H     0.95441   0.19301   0.56011   0.00000  Uiso   1.00
H74    H     0.02417   0.73777   0.57051   0.00000  Uiso   1.00
H75    H     0.86201   0.38270   0.79767   0.00000  Uiso   1.00
H76    H     0.93629   0.01012   0.46113   0.00000  Uiso   1.00
H77    H     0.79389   0.46973   0.41506   0.00000  Uiso   1.00
H78    H     0.82907   0.64362   0.39069   0.00000  Uiso   1.00
H79    H     0.75216   0.47524   0.49842   0.00000  Uiso   1.00
H80    H     0.78739   0.29856   0.33883   0.00000  Uiso   1.00
H81    H     0.88861   0.82344   0.39091   0.00000  Uiso   1.00
H82    H     0.72645   0.46837   0.61807   0.00000  Uiso   1.00
H83    H     0.80073   0.09580   0.28153   0.00000  Uiso   1.00
O84    O     0.98238   0.89321   0.46848   0.00000  Uiso   1.00
O85    O     0.76963   0.42735   0.76650   0.00000  Uiso   1.00
O86    O     0.86709   0.93855   0.32497   0.00000  Uiso   1.00
N87    N     0.98744   0.73406   0.53158   0.00000  Uiso   1.00
N88    N     0.83583   0.40211   0.74396   0.00000  Uiso   1.00
N89    N     0.90527   0.05377   0.42933   0.00000  Uiso   1.00
N90    N     0.91450   0.78016   0.43493   0.00000  Uiso   1.00
N91    N     0.76289   0.44821   0.64731   0.00000  Uiso   1.00
N92    N     0.83233   0.09986   0.33269   0.00000  Uiso   1.00
C93    C     0.58405   0.89260   0.92323   0.00000  Uiso   1.00
C94    C     0.58218   0.99796   0.95931   0.00000  Uiso   1.00
C95    C     0.53997   0.06088   0.93581   0.00000  Uiso   1.00
C96    C     0.54600   0.15440   0.97626   0.00000  Uiso   1.00
C97    C     0.53600   0.31355   0.02287   0.00000  Uiso   1.00
C98    C     0.62396   0.90649   0.90077   0.00000  Uiso   1.00
C99    C     0.61688   0.89249   0.82805   0.00000  Uiso   1.00
C100   C     0.65809   0.90900   0.81924   0.00000  Uiso   1.00
C101   C     0.71297   0.92606   0.77498   0.00000  Uiso   1.00
C102   C     0.60482   0.81050   0.98749   0.00000  Uiso   1.00
C103   C     0.58165   0.71577   0.98767   0.00000  Uiso   1.00
C104   C     0.60675   0.65145   0.05186   0.00000  Uiso   1.00
C105   C     0.63191   0.51947   0.14223   0.00000  Uiso   1.00
C106   C     0.66984   0.94681   0.03688   0.00000  Uiso   1.00
C107   C     0.62877   0.02740   0.02104   0.00000  Uiso   1.00
C108   C     0.63487   0.12086   0.06155   0.00000  Uiso   1.00
C109   C     0.59268   0.18390   0.03811   0.00000  Uiso   1.00
C110   C     0.67055   0.93594   0.96250   0.00000  Uiso   1.00
C111   C     0.71179   0.95246   0.95379   0.00000  Uiso   1.00
C112   C     0.70477   0.93850   0.88108   0.00000  Uiso   1.00
C113   C     0.65141   0.83994   0.04922   0.00000  Uiso   1.00
C114   C     0.67656   0.77575   0.11341   0.00000  Uiso   1.00
C115   C     0.65343   0.68094   0.11370   0.00000  Uiso   1.00
H116   H     0.54778   0.86968   0.87517   0.00000  Uiso   1.00
H117   H     0.50391   0.03807   0.88803   0.00000  Uiso   1.00
H118   H     0.58082   0.86969   0.78029   0.00000  Uiso   1.00
H119   H     0.54559   0.69301   0.93989   0.00000  Uiso   1.00
H120   H     0.47583   0.23777   0.92949   0.00000  Uiso   1.00
H121   H     0.63799   0.88270   0.70233   0.00000  Uiso   1.00
H122   H     0.56371   0.51012   0.03887   0.00000  Uiso   1.00
H123   H     0.70611   0.96973   0.08494   0.00000  Uiso   1.00
H124   H     0.67093   0.14362   0.10931   0.00000  Uiso   1.00
H125   H     0.74784   0.97524   0.00158   0.00000  Uiso   1.00
H126   H     0.71261   0.79856   0.16117   0.00000  Uiso   1.00
H127   H     0.61139   0.32344   0.10909   0.00000  Uiso   1.00
H128   H     0.77355   0.96837   0.88193   0.00000  Uiso   1.00
H129   H     0.69927   0.59580   0.21847   0.00000  Uiso   1.00
O130   O     0.51762   0.39321   0.03152   0.00000  Uiso   1.00
O131   O     0.73037   0.92735   0.73350   0.00000  Uiso   1.00
O132   O     0.63291   0.43855   0.17503   0.00000  Uiso   1.00
N133   N     0.51256   0.23406   0.96842   0.00000  Uiso   1.00
N134   N     0.66417   0.90211   0.75604   0.00000  Uiso   1.00
N135   N     0.59473   0.55377   0.07067   0.00000  Uiso   1.00
N136   N     0.58550   0.28016   0.06507   0.00000  Uiso   1.00
N137   N     0.73711   0.94821   0.85269   0.00000  Uiso   1.00
N138   N     0.66767   0.59986   0.16731   0.00000  Uiso   1.00
C139   C     0.08405   0.39260   0.92323   0.00000  Uiso   1.00
C140   C     0.08218   0.49796   0.95931   0.00000  Uiso   1.00
C141   C     0.03997   0.56088   0.93581   0.00000  Uiso   1.00
C142   C     0.04600   0.65440   0.97626   0.00000  Uiso   1.00
C143   C     0.03600   0.81355   0.02287   0.00000  Uiso   1.00
C144   C     0.12396   0.40649   0.90077   0.00000  Uiso   1.00
C145   C     0.11688   0.39249   0.82805   0.00000  Uiso   1.00
C146   C     0.15809   0.40900   0.81924   0.00000  Uiso   1.00
C147   C     0.21297   0.42606   0.77498   0.00000  Uiso   1.00
C148   C     0.10482   0.31050   0.98749   0.00000  Uiso   1.00
C149   C     0.08165   0.21577   0.98767   0.00000  Uiso   1.00
C150   C     0.10675   0.15145   0.05186   0.00000  Uiso   1.00
C151   C     0.13191   0.01947   0.14223   0.00000  Uiso   1.00
C152   C     0.16984   0.44681   0.03688   0.00000  Uiso   1.00
C153   C     0.12877   0.52740   0.02104   0.00000  Uiso   1.00
C154   C     0.13487   0.62086   0.06155   0.00000  Uiso   1.00
C155   C     0.09268   0.68390   0.03811   0.00000  Uiso   1.00
C156   C     0.17055   0.43594   0.96250   0.00000  Uiso   1.00
C157   C     0.21179   0.45246   0.95379   0.00000  Uiso   1.00
C158   C     0.20477   0.43850   0.88108   0.00000  Uiso   1.00
C159   C     0.15141   0.33994   0.04922   0.00000  Uiso   1.00
C160   C     0.17656   0.27575   0.11341   0.00000  Uiso   1.00
C161   C     0.15343   0.18094   0.11370   0.00000  Uiso   1.00
H162   H     0.04778   0.36968   0.87517   0.00000  Uiso   1.00
H163   H     0.00391   0.53807   0.88803   0.00000  Uiso   1.00
H164   H     0.08082   0.36969   0.78029   0.00000  Uiso   1.00
H165   H     0.04559   0.19301   0.93989   0.00000  Uiso   1.00
H166   H     0.97583   0.73777   0.92949   0.00000  Uiso   1.00
H167   H     0.13799   0.38270   0.70233   0.00000  Uiso   1.00
H168   H     0.06371   0.01012   0.03887   0.00000  Uiso   1.00
H169   H     0.20611   0.46973   0.08494   0.00000  Uiso   1.00
H170   H     0.17093   0.64362   0.10931   0.00000  Uiso   1.00
H171   H     0.24784   0.47524   0.00158   0.00000  Uiso   1.00
H172   H     0.21261   0.29856   0.16117   0.00000  Uiso   1.00
H173   H     0.11139   0.82344   0.10909   0.00000  Uiso   1.00
H174   H     0.27355   0.46837   0.88193   0.00000  Uiso   1.00
H175   H     0.19927   0.09580   0.21847   0.00000  Uiso   1.00
O176   O     0.01762   0.89321   0.03152   0.00000  Uiso   1.00
O177   O     0.23037   0.42735   0.73350   0.00000  Uiso   1.00
O178   O     0.13291   0.93855   0.17503   0.00000  Uiso   1.00
N179   N     0.01256   0.73406   0.96842   0.00000  Uiso   1.00
N180   N     0.16417   0.40211   0.75604   0.00000  Uiso   1.00
N181   N     0.09473   0.05377   0.07067   0.00000  Uiso   1.00
N182   N     0.08550   0.78016   0.06507   0.00000  Uiso   1.00
N183   N     0.23711   0.44821   0.85269   0.00000  Uiso   1.00
N184   N     0.16767   0.09986   0.16731   0.00000  Uiso   1.00
C185   C     0.58405   0.10740   0.42323   0.00000  Uiso   1.00
C186   C     0.58218   0.00204   0.45931   0.00000  Uiso   1.00
C187   C     0.53997   0.93912   0.43581   0.00000  Uiso   1.00
C188   C     0.54600   0.84560   0.47626   0.00000  Uiso   1.00
C189   C     0.53600   0.68645   0.52287   0.00000  Uiso   1.00
C190   C     0.62396   0.09351   0.40077   0.00000  Uiso   1.00
C191   C     0.61688   0.10751   0.32805   0.00000  Uiso   1.00
C192   C     0.65809   0.09100   0.31924   0.00000  Uiso   1.00
C193   C     0.71297   0.07394   0.27498   0.00000  Uiso   1.00
C194   C     0.60482   0.18950   0.48749   0.00000  Uiso   1.00
C195   C     0.58165   0.28423   0.48767   0.00000  Uiso   1.00
C196   C     0.60675   0.34855   0.55186   0.00000  Uiso   1.00
C197   C     0.63191   0.48053   0.64223   0.00000  Uiso   1.00
C198   C     0.66984   0.05319   0.53688   0.00000  Uiso   1.00
C199   C     0.62877   0.97260   0.52104   0.00000  Uiso   1.00
C200   C     0.63487   0.87914   0.56155   0.00000  Uiso   1.00
C201   C     0.59268   0.81610   0.53811   0.00000  Uiso   1.00
C202   C     0.67055   0.06406   0.46250   0.00000  Uiso   1.00
C203   C     0.71179   0.04754   0.45379   0.00000  Uiso   1.00
C204   C     0.70477   0.06150   0.38108   0.00000  Uiso   1.00
C205   C     0.65141   0.16006   0.54922   0.00000  Uiso   1.00
C206   C     0.67656   0.22425   0.61341   0.00000  Uiso   1.00
C207   C     0.65343   0.31906   0.61370   0.00000  Uiso   1.00
H208   H     0.54778   0.13032   0.37517   0.00000  Uiso   1.00
H209   H     0.50391   0.96193   0.38803   0.00000  Uiso   1.00
H210   H     0.58082   0.13031   0.28029   0.00000  Uiso   1.00
H211   H     0.54559   0.30699   0.43989   0.00000  Uiso   1.00
H212   H     0.47583   0.76223   0.42949   0.00000  Uiso   1.00
H213   H     0.63799   0.11730   0.20233   0.00000  Uiso   1.00
H214   H     0.56371   0.48988   0.53887   0.00000  Uiso   1.00
H215   H     0.70611   0.03027   0.58494   0.00000  Uiso   1.00
H216   H     0.67093   0.85638   0.60931   0.00000  Uiso   1.00
H217   H     0.74784   0.02476   0.50158   0.00000  Uiso   1.00
H218   H     0.71261   0.20144   0.66117   0.00000  Uiso   1.00
H219   H     0.61139   0.67656   0.60909   0.00000  Uiso   1.00
H220   H     0.77355   0.03163   0.38193   0.00000  Uiso   1.00
H221   H     0.69927   0.40420   0.71847   0.00000  Uiso   1.00
O222   O     0.51762   0.60679   0.53152   0.00000  Uiso   1.00
O223   O     0.73037   0.07265   0.23350   0.00000  Uiso   1.00
O224   O     0.63291   0.56145   0.67503   0.00000  Uiso   1.00
N225   N     0.51256   0.76594   0.46842   0.00000  Uiso   1.00
N226   N     0.66417   0.09789   0.25604   0.00000  Uiso   1.00
N227   N     0.59473   0.44623   0.57067   0.00000  Uiso   1.00
N228   N     0.58550   0.71984   0.56507   0.00000  Uiso   1.00
N229   N     0.73711   0.05179   0.35269   0.00000  Uiso   1.00
N230   N     0.66767   0.40014   0.66731   0.00000  Uiso   1.00
C231   C     0.08405   0.60740   0.42323   0.00000  Uiso   1.00
C232   C     0.08218   0.50204   0.45931   0.00000  Uiso   1.00
C233   C     0.03997   0.43912   0.43581   0.00000  Uiso   1.00
C234   C     0.04600   0.34560   0.47626   0.00000  Uiso   1.00
C235   C     0.03600   0.18645   0.52287   0.00000  Uiso   1.00
C236   C     0.12396   0.59351   0.40077   0.00000  Uiso   1.00
C237   C     0.11688   0.60751   0.32805   0.00000  Uiso   1.00
C238   C     0.15809   0.59100   0.31924   0.00000  Uiso   1.00
C239   C     0.21297   0.57394   0.27498   0.00000  Uiso   1.00
C240   C     0.10482   0.68950   0.48749   0.00000  Uiso   1.00
C241   C     0.08165   0.78423   0.48767   0.00000  Uiso   1.00
C242   C     0.10675   0.84855   0.55186   0.00000  Uiso   1.00
C243   C     0.13191   0.98053   0.64223   0.00000  Uiso   1.00
C244   C     0.16984   0.55319   0.53688   0.00000  Uiso   1.00
C245   C     0.12877   0.47260   0.52104   0.00000  Uiso   1.00
C246   C     0.13487   0.37914   0.56155   0.00000  Uiso   1.00
C247   C     0.09268   0.31610   0.53811   0.00000  Uiso   1.00
C248   C     0.17055   0.56406   0.46250   0.00000  Uiso   1.00
C249   C     0.21179   0.54754   0.45379   0.00000  Uiso   1.00
C250   C     0.20477   0.56150   0.38108   0.00000  Uiso   1.00
C251   C     0.15141   0.66006   0.54922   0.00000  Uiso   1.00
C252   C     0.17656   0.72425   0.61341   0.00000  Uiso   1.00
C253   C     0.15343   0.81906   0.61370   0.00000  Uiso   1.00
H254   H     0.04778   0.63032   0.37517   0.00000  Uiso   1.00
H255   H     0.00391   0.46193   0.38803   0.00000  Uiso   1.00
H256   H     0.08082   0.63031   0.28029   0.00000  Uiso   1.00
H257   H     0.04559   0.80699   0.43989   0.00000  Uiso   1.00
H258   H     0.97583   0.26223   0.42949   0.00000  Uiso   1.00
H259   H     0.13799   0.61730   0.20233   0.00000  Uiso   1.00
H260   H     0.06371   0.98988   0.53887   0.00000  Uiso   1.00
H261   H     0.20611   0.53027   0.58494   0.00000  Uiso   1.00
H262   H     0.17093   0.35638   0.60931   0.00000  Uiso   1.00
H263   H     0.24784   0.52476   0.50158   0.00000  Uiso   1.00
H264   H     0.21261   0.70144   0.66117   0.00000  Uiso   1.00
H265   H     0.11139   0.17656   0.60909   0.00000  Uiso   1.00
H266   H     0.27355   0.53163   0.38193   0.00000  Uiso   1.00
H267   H     0.19927   0.90420   0.71847   0.00000  Uiso   1.00
O268   O     0.01762   0.10679   0.53152   0.00000  Uiso   1.00
O269   O     0.23037   0.57265   0.23350   0.00000  Uiso   1.00
O270   O     0.13291   0.06145   0.67503   0.00000  Uiso   1.00
N271   N     0.01256   0.26594   0.46842   0.00000  Uiso   1.00
N272   N     0.16417   0.59789   0.25604   0.00000  Uiso   1.00
N273   N     0.09473   0.94623   0.57067   0.00000  Uiso   1.00
N274   N     0.08550   0.21984   0.56507   0.00000  Uiso   1.00
N275   N     0.23711   0.55179   0.35269   0.00000  Uiso   1.00
N276   N     0.16767   0.90014   0.66731   0.00000  Uiso   1.00
C277   C     0.41595   0.10740   0.07677   0.00000  Uiso   1.00
C278   C     0.41782   0.00204   0.04069   0.00000  Uiso   1.00
C279   C     0.46003   0.93912   0.06419   0.00000  Uiso   1.00
C280   C     0.45400   0.84560   0.02374   0.00000  Uiso   1.00
C281   C     0.46400   0.68645   0.97713   0.00000  Uiso   1.00
C282   C     0.37604   0.09351   0.09923   0.00000  Uiso   1.00
C283   C     0.38312   0.10751   0.17195   0.00000  Uiso   1.00
C284   C     0.34191   0.09100   0.18076   0.00000  Uiso   1.00
C285   C     0.28703   0.07394   0.22502   0.00000  Uiso   1.00
C286   C     0.39518   0.18950   0.01251   0.00000  Uiso   1.00
C287   C     0.41835   0.28423   0.01233   0.00000  Uiso   1.00
C288   C     0.39325   0.34855   0.94814   0.00000  Uiso   1.00
C289   C     0.36809   0.48053   0.85777   0.00000  Uiso   1.00
C290   C     0.33016   0.05319   0.96312   0.00000  Uiso   1.00
C291   C     0.37123   0.97260   0.97896   0.00000  Uiso   1.00
C292   C     0.36513   0.87914   0.93845   0.00000  Uiso   1.00
C293   C     0.40732   0.81610   0.96189   0.00000  Uiso   1.00
C294   C     0.32945   0.06406   0.03750   0.00000  Uiso   1.00
C295   C     0.28821   0.04754   0.04621   0.00000  Uiso   1.00
C296   C     0.29523   0.06150   0.11892   0.00000  Uiso   1.00
C297   C     0.34859   0.16006   0.95078   0.00000  Uiso   1.00
C298   C     0.32344   0.22425   0.88659   0.00000  Uiso   1.00
C299   C     0.34657   0.31906   0.88630   0.00000  Uiso   1.00
H300   H     0.45222   0.13032   0.12483   0.00000  Uiso   1.00
H301   H     0.49609   0.96193   0.11197   0.00000  Uiso   1.00
H302   H     0.41918   0.13031   0.21971   0.00000  Uiso   1.00
H303   H     0.45441   0.30699   0.06011   0.00000  Uiso   1.00
H304   H     0.52417   0.76223   0.07051   0.00000  Uiso   1.00
H305   H     0.36201   0.11730   0.29767   0.00000  Uiso   1.00
H306   H     0.43629   0.48988   0.96113   0.00000  Uiso   1.00
H307   H     0.29389   0.03027   0.91506   0.00000  Uiso   1.00
H308   H     0.32907   0.85638   0.89069   0.00000  Uiso   1.00
H309   H     0.25216   0.02476   0.99842   0.00000  Uiso   1.00
H310   H     0.28739   0.20144   0.83883   0.00000  Uiso   1.00
H311   H     0.38861   0.67656   0.89091   0.00000  Uiso   1.00
H312   H     0.22645   0.03163   0.11807   0.00000  Uiso   1.00
H313   H     0.30073   0.40420   0.78153   0.00000  Uiso   1.00
O314   O     0.48238   0.60679   0.96848   0.00000  Uiso   1.00
O315   O     0.26963   0.07265   0.26650   0.00000  Uiso   1.00
O316   O     0.36709   0.56145   0.82497   0.00000  Uiso   1.00
N317   N     0.48744   0.76594   0.03158   0.00000  Uiso   1.00
N318   N     0.33583   0.09789   0.24396   0.00000  Uiso   1.00
N319   N     0.40527   0.44623   0.92933   0.00000  Uiso   1.00
N320   N     0.41450   0.71984   0.93493   0.00000  Uiso   1.00
N321   N     0.26289   0.05179   0.14731   0.00000  Uiso   1.00
N322   N     0.33233   0.40014   0.83269   0.00000  Uiso   1.00
C323   C     0.91595   0.60740   0.07677   0.00000  Uiso   1.00
C324   C     0.91782   0.50204   0.04069   0.00000  Uiso   1.00
C325   C     0.96003   0.43912   0.06419   0.00000  Uiso   1.00
C326   C     0.95400   0.34560   0.02374   0.00000  Uiso   1.00
C327   C     0.96400   0.18645   0.97713   0.00000  Uiso   1.00
C328   C     0.87604   0.59351   0.09923   0.00000  Uiso   1.00
C329   C     0.88312   0.60751   0.17195   0.00000  Uiso   1.00
C330   C     0.84191   0.59100   0.18076   0.00000  Uiso   1.00
C331   C     0.78703   0.57394   0.22502   0.00000  Uiso   1.00
C332   C     0.89518   0.68950   0.01251   0.00000  Uiso   1.00
C333   C     0.91835   0.78423   0.01233   0.00000  Uiso   1.00
C334   C     0.89325   0.84855   0.94814   0.00000  Uiso   1.00
C335   C     0.86809   0.98053   0.85777   0.00000  Uiso   1.00
C336   C     0.83016   0.55319   0.96312   0.00000  Uiso   1.00
C337   C     0.87123   0.47260   0.97896   0.00000  Uiso   1.00
C338   C     0.86513   0.37914   0.93845   0.00000  Uiso   1.00
C339   C     0.90732   0.31610   0.96189   0.00000  Uiso   1.00
C340   C     0.82945   0.56406   0.03750   0.00000  Uiso   1.00
C341   C     0.78821   0.54754   0.04621   0.00000  Uiso   1.00
C342   C     0.79523   0.56150   0.11892   0.00000  Uiso   1.00
C343   C     0.84859   0.66006   0.95078   0.00000  Uiso   1.00
C344   C     0.82344   0.72425   0.88659   0.00000  Uiso   1.00
C345   C     0.84657   0.81906   0.88630   0.00000  Uiso   1.00
H346   H     0.95222   0.63032   0.12483   0.00000  Uiso   1.00
H347   H     0.99609   0.46193   0.11197   0.00000  Uiso   1.00
H348   H     0.91918   0.63031   0.21971   0.00000  Uiso   1.00
H349   H     0.95441   0.80699   0.06011   0.00000  Uiso   1.00
H350   H     0.02417   0.26223   0.07051   0.00000  Uiso   1.00
H351   H     0.86201   0.61730   0.29767   0.00000  Uiso   1.00
H352   H     0.93629   0.98988   0.96113   0.00000  Uiso   1.00
H353   H     0.79389   0.53027   0.91506   0.00000  Uiso   1.00
H354   H     0.82907   0.35638   0.89069   0.00000  Uiso   1.00
H355   H     0.75216   0.52476   0.99842   0.00000  Uiso   1.00
H356   H     0.78739   0.70144   0.83883   0.00000  Uiso   1.00
H357   H     0.88861   0.17656   0.89091   0.00000  Uiso   1.00
H358   H     0.72645   0.53163   0.11807   0.00000  Uiso   1.00
H359   H     0.80073   0.90420   0.78153   0.00000  Uiso   1.00
O360   O     0.98238   0.10679   0.96848   0.00000  Uiso   1.00
O361   O     0.76963   0.57265   0.26650   0.00000  Uiso   1.00
O362   O     0.86709   0.06145   0.82497   0.00000  Uiso   1.00
N363   N     0.98744   0.26594   0.03158   0.00000  Uiso   1.00
N364   N     0.83583   0.59789   0.24396   0.00000  Uiso   1.00
N365   N     0.90527   0.94623   0.92933   0.00000  Uiso   1.00
N366   N     0.91450   0.21984   0.93493   0.00000  Uiso   1.00
N367   N     0.76289   0.55179   0.14731   0.00000  Uiso   1.00
N368   N     0.83233   0.90014   0.83269   0.00000  Uiso   1.00
