data_job_04080
_audit_creation_date              2018-12-19
_audit_creation_method            'Materials Studio'
_symmetry_space_group_name_H-M    'P1'
_symmetry_Int_Tables_number       1
_symmetry_cell_setting            triclinic
loop_
_symmetry_equiv_pos_as_xyz
  x,y,z
_cell_length_a                    21.1004
_cell_length_b                    25.0717
_cell_length_c                    14.3482
_cell_angle_alpha                 90.0000
_cell_angle_beta                  80.1546
_cell_angle_gamma                 90.0000
loop_
_atom_site_label
_atom_site_type_symbol
_atom_site_fract_x
_atom_site_fract_y
_atom_site_fract_z
_atom_site_U_iso_or_equiv
_atom_site_adp_type
_atom_site_occupancy
C1     C     0.59020   0.82241   0.51602   0.00000  Uiso   1.00
C2     C     0.53438   0.85133   0.48315   0.00000  Uiso   1.00
C3     C     0.46986   0.83789   0.50727   0.00000  Uiso   1.00
C4     C     0.42616   0.86932   0.46989   0.00000  Uiso   1.00
C5     C     0.33643   0.90763   0.42784   0.00000  Uiso   1.00
C6     C     0.63576   0.80600   0.42636   0.00000  Uiso   1.00
C7     C     0.65647   0.75445   0.40274   0.00000  Uiso   1.00
C8     C     0.69813   0.74771   0.31755   0.00000  Uiso   1.00
C9     C     0.76582   0.71565   0.18737   0.00000  Uiso   1.00
C10    C     0.62591   0.86451   0.56365   0.00000  Uiso   1.00
C11    C     0.63836   0.86214   0.65545   0.00000  Uiso   1.00
C12    C     0.67174   0.90467   0.68584   0.00000  Uiso   1.00
C13    C     0.72415   0.96345   0.76882   0.00000  Uiso   1.00
C14    C     0.62735   0.90212   0.40673   0.00000  Uiso   1.00
C15    C     0.55456   0.89463   0.42379   0.00000  Uiso   1.00
C16    C     0.51096   0.92609   0.38636   0.00000  Uiso   1.00
C17    C     0.44638   0.91270   0.41042   0.00000  Uiso   1.00
C18    C     0.65594   0.84930   0.36700   0.00000  Uiso   1.00
C19    C     0.69757   0.84264   0.28183   0.00000  Uiso   1.00
C20    C     0.71835   0.79109   0.25808   0.00000  Uiso   1.00
C21    C     0.64609   0.90781   0.50429   0.00000  Uiso   1.00
C22    C     0.67946   0.95034   0.53454   0.00000  Uiso   1.00
C23    C     0.69196   0.94804   0.62637   0.00000  Uiso   1.00
H24    H     0.57449   0.78870   0.56223   0.00000  Uiso   1.00
H25    H     0.45426   0.80438   0.55321   0.00000  Uiso   1.00
H26    H     0.64086   0.72095   0.44870   0.00000  Uiso   1.00
H27    H     0.62274   0.82863   0.70137   0.00000  Uiso   1.00
H28    H     0.32986   0.84085   0.51699   0.00000  Uiso   1.00
H29    H     0.72333   0.66493   0.29665   0.00000  Uiso   1.00
H30    H     0.68514   0.89200   0.82945   0.00000  Uiso   1.00
H31    H     0.64306   0.93584   0.36052   0.00000  Uiso   1.00
H32    H     0.52658   0.95959   0.34042   0.00000  Uiso   1.00
H33    H     0.71318   0.87616   0.23591   0.00000  Uiso   1.00
H34    H     0.69507   0.98384   0.48858   0.00000  Uiso   1.00
H35    H     0.38856   0.96682   0.34429   0.00000  Uiso   1.00
H36    H     0.78203   0.79091   0.12394   0.00000  Uiso   1.00
H37    H     0.74384   0.01798   0.65674   0.00000  Uiso   1.00
O38    O     0.28136   0.91680   0.42104   0.00000  Uiso   1.00
O39    O     0.79758   0.68600   0.13196   0.00000  Uiso   1.00
O40    O     0.74747   0.98392   0.83099   0.00000  Uiso   1.00
N41    N     0.35966   0.86724   0.47912   0.00000  Uiso   1.00
N42    N     0.72752   0.70277   0.27310   0.00000  Uiso   1.00
N43    N     0.69183   0.91506   0.77122   0.00000  Uiso   1.00
N44    N     0.39125   0.93503   0.38619   0.00000  Uiso   1.00
N45    N     0.75911   0.77056   0.18017   0.00000  Uiso   1.00
N46    N     0.72341   0.98284   0.67829   0.00000  Uiso   1.00
C47    C     0.09020   0.32241   0.51602   0.00000  Uiso   1.00
C48    C     0.03438   0.35133   0.48315   0.00000  Uiso   1.00
C49    C     0.96986   0.33789   0.50727   0.00000  Uiso   1.00
C50    C     0.92616   0.36932   0.46989   0.00000  Uiso   1.00
C51    C     0.83643   0.40763   0.42784   0.00000  Uiso   1.00
C52    C     0.13576   0.30600   0.42636   0.00000  Uiso   1.00
C53    C     0.15647   0.25445   0.40274   0.00000  Uiso   1.00
C54    C     0.19813   0.24771   0.31755   0.00000  Uiso   1.00
C55    C     0.26582   0.21565   0.18737   0.00000  Uiso   1.00
C56    C     0.12591   0.36451   0.56365   0.00000  Uiso   1.00
C57    C     0.13836   0.36214   0.65545   0.00000  Uiso   1.00
C58    C     0.17174   0.40467   0.68584   0.00000  Uiso   1.00
C59    C     0.22415   0.46345   0.76882   0.00000  Uiso   1.00
C60    C     0.12735   0.40212   0.40673   0.00000  Uiso   1.00
C61    C     0.05456   0.39463   0.42379   0.00000  Uiso   1.00
C62    C     0.01096   0.42609   0.38636   0.00000  Uiso   1.00
C63    C     0.94638   0.41270   0.41042   0.00000  Uiso   1.00
C64    C     0.15594   0.34930   0.36700   0.00000  Uiso   1.00
C65    C     0.19757   0.34264   0.28183   0.00000  Uiso   1.00
C66    C     0.21835   0.29109   0.25808   0.00000  Uiso   1.00
C67    C     0.14609   0.40781   0.50429   0.00000  Uiso   1.00
C68    C     0.17946   0.45034   0.53454   0.00000  Uiso   1.00
C69    C     0.19196   0.44804   0.62637   0.00000  Uiso   1.00
H70    H     0.07449   0.28870   0.56223   0.00000  Uiso   1.00
H71    H     0.95426   0.30438   0.55321   0.00000  Uiso   1.00
H72    H     0.14086   0.22095   0.44870   0.00000  Uiso   1.00
H73    H     0.12274   0.32863   0.70137   0.00000  Uiso   1.00
H74    H     0.82986   0.34085   0.51699   0.00000  Uiso   1.00
H75    H     0.22333   0.16493   0.29665   0.00000  Uiso   1.00
H76    H     0.18514   0.39200   0.82945   0.00000  Uiso   1.00
H77    H     0.14306   0.43584   0.36052   0.00000  Uiso   1.00
H78    H     0.02658   0.45959   0.34042   0.00000  Uiso   1.00
H79    H     0.21318   0.37616   0.23591   0.00000  Uiso   1.00
H80    H     0.19507   0.48384   0.48858   0.00000  Uiso   1.00
H81    H     0.88856   0.46682   0.34429   0.00000  Uiso   1.00
H82    H     0.28203   0.29091   0.12394   0.00000  Uiso   1.00
H83    H     0.24384   0.51798   0.65674   0.00000  Uiso   1.00
O84    O     0.78136   0.41680   0.42104   0.00000  Uiso   1.00
O85    O     0.29758   0.18600   0.13196   0.00000  Uiso   1.00
O86    O     0.24747   0.48392   0.83099   0.00000  Uiso   1.00
N87    N     0.85966   0.36724   0.47912   0.00000  Uiso   1.00
N88    N     0.22752   0.20277   0.27310   0.00000  Uiso   1.00
N89    N     0.19183   0.41506   0.77122   0.00000  Uiso   1.00
N90    N     0.89125   0.43503   0.38619   0.00000  Uiso   1.00
N91    N     0.25911   0.27056   0.18017   0.00000  Uiso   1.00
N92    N     0.22341   0.48284   0.67829   0.00000  Uiso   1.00
C93    C     0.40980   0.82241   0.98398   0.00000  Uiso   1.00
C94    C     0.46562   0.85133   0.01685   0.00000  Uiso   1.00
C95    C     0.53014   0.83789   0.99273   0.00000  Uiso   1.00
C96    C     0.57384   0.86932   0.03011   0.00000  Uiso   1.00
C97    C     0.66357   0.90763   0.07216   0.00000  Uiso   1.00
C98    C     0.36424   0.80600   0.07364   0.00000  Uiso   1.00
C99    C     0.34353   0.75445   0.09726   0.00000  Uiso   1.00
C100   C     0.30187   0.74771   0.18245   0.00000  Uiso   1.00
C101   C     0.23418   0.71565   0.31263   0.00000  Uiso   1.00
C102   C     0.37409   0.86451   0.93635   0.00000  Uiso   1.00
C103   C     0.36164   0.86214   0.84455   0.00000  Uiso   1.00
C104   C     0.32826   0.90467   0.81416   0.00000  Uiso   1.00
C105   C     0.27585   0.96345   0.73118   0.00000  Uiso   1.00
C106   C     0.37265   0.90212   0.09327   0.00000  Uiso   1.00
C107   C     0.44544   0.89463   0.07621   0.00000  Uiso   1.00
C108   C     0.48904   0.92609   0.11364   0.00000  Uiso   1.00
C109   C     0.55362   0.91270   0.08958   0.00000  Uiso   1.00
C110   C     0.34406   0.84930   0.13300   0.00000  Uiso   1.00
C111   C     0.30243   0.84264   0.21817   0.00000  Uiso   1.00
C112   C     0.28165   0.79109   0.24192   0.00000  Uiso   1.00
C113   C     0.35391   0.90781   0.99571   0.00000  Uiso   1.00
C114   C     0.32054   0.95034   0.96546   0.00000  Uiso   1.00
C115   C     0.30804   0.94804   0.87363   0.00000  Uiso   1.00
H116   H     0.42551   0.78870   0.93777   0.00000  Uiso   1.00
H117   H     0.54574   0.80438   0.94679   0.00000  Uiso   1.00
H118   H     0.35914   0.72095   0.05130   0.00000  Uiso   1.00
H119   H     0.37726   0.82863   0.79863   0.00000  Uiso   1.00
H120   H     0.67014   0.84085   0.98301   0.00000  Uiso   1.00
H121   H     0.27667   0.66493   0.20335   0.00000  Uiso   1.00
H122   H     0.31486   0.89200   0.67055   0.00000  Uiso   1.00
H123   H     0.35694   0.93584   0.13948   0.00000  Uiso   1.00
H124   H     0.47342   0.95959   0.15958   0.00000  Uiso   1.00
H125   H     0.28682   0.87616   0.26409   0.00000  Uiso   1.00
H126   H     0.30493   0.98384   0.01142   0.00000  Uiso   1.00
H127   H     0.61144   0.96682   0.15571   0.00000  Uiso   1.00
H128   H     0.21797   0.79091   0.37606   0.00000  Uiso   1.00
H129   H     0.25616   0.01798   0.84326   0.00000  Uiso   1.00
O130   O     0.71864   0.91680   0.07896   0.00000  Uiso   1.00
O131   O     0.20242   0.68600   0.36804   0.00000  Uiso   1.00
O132   O     0.25253   0.98392   0.66901   0.00000  Uiso   1.00
N133   N     0.64034   0.86724   0.02088   0.00000  Uiso   1.00
N134   N     0.27248   0.70277   0.22690   0.00000  Uiso   1.00
N135   N     0.30817   0.91506   0.72878   0.00000  Uiso   1.00
N136   N     0.60875   0.93503   0.11381   0.00000  Uiso   1.00
N137   N     0.24089   0.77056   0.31983   0.00000  Uiso   1.00
N138   N     0.27659   0.98284   0.82171   0.00000  Uiso   1.00
C139   C     0.90980   0.32241   0.98398   0.00000  Uiso   1.00
C140   C     0.96562   0.35133   0.01685   0.00000  Uiso   1.00
C141   C     0.03014   0.33789   0.99273   0.00000  Uiso   1.00
C142   C     0.07384   0.36932   0.03011   0.00000  Uiso   1.00
C143   C     0.16357   0.40763   0.07216   0.00000  Uiso   1.00
C144   C     0.86424   0.30600   0.07364   0.00000  Uiso   1.00
C145   C     0.84353   0.25445   0.09726   0.00000  Uiso   1.00
C146   C     0.80187   0.24771   0.18245   0.00000  Uiso   1.00
C147   C     0.73418   0.21565   0.31263   0.00000  Uiso   1.00
C148   C     0.87409   0.36451   0.93635   0.00000  Uiso   1.00
C149   C     0.86164   0.36214   0.84455   0.00000  Uiso   1.00
C150   C     0.82826   0.40467   0.81416   0.00000  Uiso   1.00
C151   C     0.77585   0.46345   0.73118   0.00000  Uiso   1.00
C152   C     0.87265   0.40212   0.09327   0.00000  Uiso   1.00
C153   C     0.94544   0.39463   0.07621   0.00000  Uiso   1.00
C154   C     0.98904   0.42609   0.11364   0.00000  Uiso   1.00
C155   C     0.05362   0.41270   0.08958   0.00000  Uiso   1.00
C156   C     0.84406   0.34930   0.13300   0.00000  Uiso   1.00
C157   C     0.80243   0.34264   0.21817   0.00000  Uiso   1.00
C158   C     0.78165   0.29109   0.24192   0.00000  Uiso   1.00
C159   C     0.85391   0.40781   0.99571   0.00000  Uiso   1.00
C160   C     0.82054   0.45034   0.96546   0.00000  Uiso   1.00
C161   C     0.80804   0.44804   0.87363   0.00000  Uiso   1.00
H162   H     0.92551   0.28870   0.93777   0.00000  Uiso   1.00
H163   H     0.04574   0.30438   0.94679   0.00000  Uiso   1.00
H164   H     0.85914   0.22095   0.05130   0.00000  Uiso   1.00
H165   H     0.87726   0.32863   0.79863   0.00000  Uiso   1.00
H166   H     0.17014   0.34085   0.98301   0.00000  Uiso   1.00
H167   H     0.77667   0.16493   0.20335   0.00000  Uiso   1.00
H168   H     0.81486   0.39200   0.67055   0.00000  Uiso   1.00
H169   H     0.85694   0.43584   0.13948   0.00000  Uiso   1.00
H170   H     0.97342   0.45959   0.15958   0.00000  Uiso   1.00
H171   H     0.78682   0.37616   0.26409   0.00000  Uiso   1.00
H172   H     0.80493   0.48384   0.01142   0.00000  Uiso   1.00
H173   H     0.11144   0.46682   0.15571   0.00000  Uiso   1.00
H174   H     0.71797   0.29091   0.37606   0.00000  Uiso   1.00
H175   H     0.75616   0.51798   0.84326   0.00000  Uiso   1.00
O176   O     0.21864   0.41680   0.07896   0.00000  Uiso   1.00
O177   O     0.70242   0.18600   0.36804   0.00000  Uiso   1.00
O178   O     0.75253   0.48392   0.66901   0.00000  Uiso   1.00
N179   N     0.14034   0.36724   0.02088   0.00000  Uiso   1.00
N180   N     0.77248   0.20277   0.22690   0.00000  Uiso   1.00
N181   N     0.80817   0.41506   0.72878   0.00000  Uiso   1.00
N182   N     0.10875   0.43503   0.11381   0.00000  Uiso   1.00
N183   N     0.74089   0.27056   0.31983   0.00000  Uiso   1.00
N184   N     0.77659   0.48284   0.82171   0.00000  Uiso   1.00
C185   C     0.40980   0.17759   0.48398   0.00000  Uiso   1.00
C186   C     0.46562   0.14867   0.51685   0.00000  Uiso   1.00
C187   C     0.53014   0.16211   0.49273   0.00000  Uiso   1.00
C188   C     0.57384   0.13068   0.53011   0.00000  Uiso   1.00
C189   C     0.66357   0.09237   0.57216   0.00000  Uiso   1.00
C190   C     0.36424   0.19400   0.57364   0.00000  Uiso   1.00
C191   C     0.34353   0.24555   0.59726   0.00000  Uiso   1.00
C192   C     0.30187   0.25229   0.68245   0.00000  Uiso   1.00
C193   C     0.23418   0.28435   0.81263   0.00000  Uiso   1.00
C194   C     0.37409   0.13549   0.43635   0.00000  Uiso   1.00
C195   C     0.36164   0.13786   0.34455   0.00000  Uiso   1.00
C196   C     0.32826   0.09533   0.31416   0.00000  Uiso   1.00
C197   C     0.27585   0.03655   0.23118   0.00000  Uiso   1.00
C198   C     0.37265   0.09788   0.59327   0.00000  Uiso   1.00
C199   C     0.44544   0.10537   0.57621   0.00000  Uiso   1.00
C200   C     0.48904   0.07391   0.61364   0.00000  Uiso   1.00
C201   C     0.55362   0.08730   0.58958   0.00000  Uiso   1.00
C202   C     0.34406   0.15070   0.63300   0.00000  Uiso   1.00
C203   C     0.30243   0.15736   0.71817   0.00000  Uiso   1.00
C204   C     0.28165   0.20891   0.74192   0.00000  Uiso   1.00
C205   C     0.35391   0.09219   0.49571   0.00000  Uiso   1.00
C206   C     0.32054   0.04966   0.46546   0.00000  Uiso   1.00
C207   C     0.30804   0.05196   0.37363   0.00000  Uiso   1.00
H208   H     0.42551   0.21130   0.43777   0.00000  Uiso   1.00
H209   H     0.54574   0.19562   0.44679   0.00000  Uiso   1.00
H210   H     0.35914   0.27905   0.55130   0.00000  Uiso   1.00
H211   H     0.37726   0.17137   0.29863   0.00000  Uiso   1.00
H212   H     0.67014   0.15915   0.48301   0.00000  Uiso   1.00
H213   H     0.27667   0.33507   0.70335   0.00000  Uiso   1.00
H214   H     0.31486   0.10800   0.17055   0.00000  Uiso   1.00
H215   H     0.35694   0.06416   0.63948   0.00000  Uiso   1.00
H216   H     0.47342   0.04041   0.65958   0.00000  Uiso   1.00
H217   H     0.28682   0.12384   0.76409   0.00000  Uiso   1.00
H218   H     0.30493   0.01616   0.51142   0.00000  Uiso   1.00
H219   H     0.61144   0.03318   0.65571   0.00000  Uiso   1.00
H220   H     0.21797   0.20909   0.87606   0.00000  Uiso   1.00
H221   H     0.25616   0.98202   0.34326   0.00000  Uiso   1.00
O222   O     0.71864   0.08320   0.57896   0.00000  Uiso   1.00
O223   O     0.20242   0.31400   0.86804   0.00000  Uiso   1.00
O224   O     0.25253   0.01608   0.16901   0.00000  Uiso   1.00
N225   N     0.64034   0.13276   0.52088   0.00000  Uiso   1.00
N226   N     0.27248   0.29723   0.72690   0.00000  Uiso   1.00
N227   N     0.30817   0.08494   0.22878   0.00000  Uiso   1.00
N228   N     0.60875   0.06497   0.61381   0.00000  Uiso   1.00
N229   N     0.24089   0.22944   0.81983   0.00000  Uiso   1.00
N230   N     0.27659   0.01716   0.32171   0.00000  Uiso   1.00
C231   C     0.90980   0.67759   0.48398   0.00000  Uiso   1.00
C232   C     0.96562   0.64867   0.51685   0.00000  Uiso   1.00
C233   C     0.03014   0.66211   0.49273   0.00000  Uiso   1.00
C234   C     0.07384   0.63068   0.53011   0.00000  Uiso   1.00
C235   C     0.16357   0.59237   0.57216   0.00000  Uiso   1.00
C236   C     0.86424   0.69400   0.57364   0.00000  Uiso   1.00
C237   C     0.84353   0.74555   0.59726   0.00000  Uiso   1.00
C238   C     0.80187   0.75229   0.68245   0.00000  Uiso   1.00
C239   C     0.73418   0.78435   0.81263   0.00000  Uiso   1.00
C240   C     0.87409   0.63549   0.43635   0.00000  Uiso   1.00
C241   C     0.86164   0.63786   0.34455   0.00000  Uiso   1.00
C242   C     0.82826   0.59533   0.31416   0.00000  Uiso   1.00
C243   C     0.77585   0.53655   0.23118   0.00000  Uiso   1.00
C244   C     0.87265   0.59788   0.59327   0.00000  Uiso   1.00
C245   C     0.94544   0.60537   0.57621   0.00000  Uiso   1.00
C246   C     0.98904   0.57391   0.61364   0.00000  Uiso   1.00
C247   C     0.05362   0.58730   0.58958   0.00000  Uiso   1.00
C248   C     0.84406   0.65070   0.63300   0.00000  Uiso   1.00
C249   C     0.80243   0.65736   0.71817   0.00000  Uiso   1.00
C250   C     0.78165   0.70891   0.74192   0.00000  Uiso   1.00
C251   C     0.85391   0.59219   0.49571   0.00000  Uiso   1.00
C252   C     0.82054   0.54966   0.46546   0.00000  Uiso   1.00
C253   C     0.80804   0.55196   0.37363   0.00000  Uiso   1.00
H254   H     0.92551   0.71130   0.43777   0.00000  Uiso   1.00
H255   H     0.04574   0.69562   0.44679   0.00000  Uiso   1.00
H256   H     0.85914   0.77905   0.55130   0.00000  Uiso   1.00
H257   H     0.87726   0.67137   0.29863   0.00000  Uiso   1.00
H258   H     0.17014   0.65915   0.48301   0.00000  Uiso   1.00
H259   H     0.77667   0.83507   0.70335   0.00000  Uiso   1.00
H260   H     0.81486   0.60800   0.17055   0.00000  Uiso   1.00
H261   H     0.85694   0.56416   0.63948   0.00000  Uiso   1.00
H262   H     0.97342   0.54041   0.65958   0.00000  Uiso   1.00
H263   H     0.78682   0.62384   0.76409   0.00000  Uiso   1.00
H264   H     0.80493   0.51616   0.51142   0.00000  Uiso   1.00
H265   H     0.11144   0.53318   0.65571   0.00000  Uiso   1.00
H266   H     0.71797   0.70909   0.87606   0.00000  Uiso   1.00
H267   H     0.75616   0.48202   0.34326   0.00000  Uiso   1.00
O268   O     0.21864   0.58320   0.57896   0.00000  Uiso   1.00
O269   O     0.70242   0.81400   0.86804   0.00000  Uiso   1.00
O270   O     0.75253   0.51608   0.16901   0.00000  Uiso   1.00
N271   N     0.14034   0.63276   0.52088   0.00000  Uiso   1.00
N272   N     0.77248   0.79723   0.72690   0.00000  Uiso   1.00
N273   N     0.80817   0.58494   0.22878   0.00000  Uiso   1.00
N274   N     0.10875   0.56497   0.61381   0.00000  Uiso   1.00
N275   N     0.74089   0.72944   0.81983   0.00000  Uiso   1.00
N276   N     0.77659   0.51716   0.32171   0.00000  Uiso   1.00
C277   C     0.59020   0.17759   0.01602   0.00000  Uiso   1.00
C278   C     0.53438   0.14867   0.98315   0.00000  Uiso   1.00
C279   C     0.46986   0.16211   0.00727   0.00000  Uiso   1.00
C280   C     0.42616   0.13068   0.96989   0.00000  Uiso   1.00
C281   C     0.33643   0.09237   0.92784   0.00000  Uiso   1.00
C282   C     0.63576   0.19400   0.92636   0.00000  Uiso   1.00
C283   C     0.65647   0.24555   0.90274   0.00000  Uiso   1.00
C284   C     0.69813   0.25229   0.81755   0.00000  Uiso   1.00
C285   C     0.76582   0.28435   0.68737   0.00000  Uiso   1.00
C286   C     0.62591   0.13549   0.06365   0.00000  Uiso   1.00
C287   C     0.63836   0.13786   0.15545   0.00000  Uiso   1.00
C288   C     0.67174   0.09533   0.18584   0.00000  Uiso   1.00
C289   C     0.72415   0.03655   0.26882   0.00000  Uiso   1.00
C290   C     0.62735   0.09788   0.90673   0.00000  Uiso   1.00
C291   C     0.55456   0.10537   0.92379   0.00000  Uiso   1.00
C292   C     0.51096   0.07391   0.88636   0.00000  Uiso   1.00
C293   C     0.44638   0.08730   0.91042   0.00000  Uiso   1.00
C294   C     0.65594   0.15070   0.86700   0.00000  Uiso   1.00
C295   C     0.69757   0.15736   0.78183   0.00000  Uiso   1.00
C296   C     0.71835   0.20891   0.75808   0.00000  Uiso   1.00
C297   C     0.64609   0.09219   0.00429   0.00000  Uiso   1.00
C298   C     0.67946   0.04966   0.03454   0.00000  Uiso   1.00
C299   C     0.69196   0.05196   0.12637   0.00000  Uiso   1.00
H300   H     0.57449   0.21130   0.06223   0.00000  Uiso   1.00
H301   H     0.45426   0.19562   0.05321   0.00000  Uiso   1.00
H302   H     0.64086   0.27905   0.94870   0.00000  Uiso   1.00
H303   H     0.62274   0.17137   0.20137   0.00000  Uiso   1.00
H304   H     0.32986   0.15915   0.01699   0.00000  Uiso   1.00
H305   H     0.72333   0.33507   0.79665   0.00000  Uiso   1.00
H306   H     0.68514   0.10800   0.32945   0.00000  Uiso   1.00
H307   H     0.64306   0.06416   0.86052   0.00000  Uiso   1.00
H308   H     0.52658   0.04041   0.84042   0.00000  Uiso   1.00
H309   H     0.71318   0.12384   0.73591   0.00000  Uiso   1.00
H310   H     0.69507   0.01616   0.98858   0.00000  Uiso   1.00
H311   H     0.38856   0.03318   0.84429   0.00000  Uiso   1.00
H312   H     0.78203   0.20909   0.62394   0.00000  Uiso   1.00
H313   H     0.74384   0.98202   0.15674   0.00000  Uiso   1.00
O314   O     0.28136   0.08320   0.92104   0.00000  Uiso   1.00
O315   O     0.79758   0.31400   0.63196   0.00000  Uiso   1.00
O316   O     0.74747   0.01608   0.33099   0.00000  Uiso   1.00
N317   N     0.35966   0.13276   0.97912   0.00000  Uiso   1.00
N318   N     0.72752   0.29723   0.77310   0.00000  Uiso   1.00
N319   N     0.69183   0.08494   0.27122   0.00000  Uiso   1.00
N320   N     0.39125   0.06497   0.88619   0.00000  Uiso   1.00
N321   N     0.75911   0.22944   0.68017   0.00000  Uiso   1.00
N322   N     0.72341   0.01716   0.17829   0.00000  Uiso   1.00
C323   C     0.09020   0.67759   0.01602   0.00000  Uiso   1.00
C324   C     0.03438   0.64867   0.98315   0.00000  Uiso   1.00
C325   C     0.96986   0.66211   0.00727   0.00000  Uiso   1.00
C326   C     0.92616   0.63068   0.96989   0.00000  Uiso   1.00
C327   C     0.83643   0.59237   0.92784   0.00000  Uiso   1.00
C328   C     0.13576   0.69400   0.92636   0.00000  Uiso   1.00
C329   C     0.15647   0.74555   0.90274   0.00000  Uiso   1.00
C330   C     0.19813   0.75229   0.81755   0.00000  Uiso   1.00
C331   C     0.26582   0.78435   0.68737   0.00000  Uiso   1.00
C332   C     0.12591   0.63549   0.06365   0.00000  Uiso   1.00
C333   C     0.13836   0.63786   0.15545   0.00000  Uiso   1.00
C334   C     0.17174   0.59533   0.18584   0.00000  Uiso   1.00
C335   C     0.22415   0.53655   0.26882   0.00000  Uiso   1.00
C336   C     0.12735   0.59788   0.90673   0.00000  Uiso   1.00
C337   C     0.05456   0.60537   0.92379   0.00000  Uiso   1.00
C338   C     0.01096   0.57391   0.88636   0.00000  Uiso   1.00
C339   C     0.94638   0.58730   0.91042   0.00000  Uiso   1.00
C340   C     0.15594   0.65070   0.86700   0.00000  Uiso   1.00
C341   C     0.19757   0.65736   0.78183   0.00000  Uiso   1.00
C342   C     0.21835   0.70891   0.75808   0.00000  Uiso   1.00
C343   C     0.14609   0.59219   0.00429   0.00000  Uiso   1.00
C344   C     0.17946   0.54966   0.03454   0.00000  Uiso   1.00
C345   C     0.19196   0.55196   0.12637   0.00000  Uiso   1.00
H346   H     0.07449   0.71130   0.06223   0.00000  Uiso   1.00
H347   H     0.95426   0.69562   0.05321   0.00000  Uiso   1.00
H348   H     0.14086   0.77905   0.94870   0.00000  Uiso   1.00
H349   H     0.12274   0.67137   0.20137   0.00000  Uiso   1.00
H350   H     0.82986   0.65915   0.01699   0.00000  Uiso   1.00
H351   H     0.22333   0.83507   0.79665   0.00000  Uiso   1.00
H352   H     0.18514   0.60800   0.32945   0.00000  Uiso   1.00
H353   H     0.14306   0.56416   0.86052   0.00000  Uiso   1.00
H354   H     0.02658   0.54041   0.84042   0.00000  Uiso   1.00
H355   H     0.21318   0.62384   0.73591   0.00000  Uiso   1.00
H356   H     0.19507   0.51616   0.98858   0.00000  Uiso   1.00
H357   H     0.88856   0.53318   0.84429   0.00000  Uiso   1.00
H358   H     0.28203   0.70909   0.62394   0.00000  Uiso   1.00
H359   H     0.24384   0.48202   0.15674   0.00000  Uiso   1.00
O360   O     0.78136   0.58320   0.92104   0.00000  Uiso   1.00
O361   O     0.29758   0.81400   0.63196   0.00000  Uiso   1.00
O362   O     0.24747   0.51608   0.33099   0.00000  Uiso   1.00
N363   N     0.85966   0.63276   0.97912   0.00000  Uiso   1.00
N364   N     0.22752   0.79723   0.77310   0.00000  Uiso   1.00
N365   N     0.19183   0.58494   0.27122   0.00000  Uiso   1.00
N366   N     0.89125   0.56497   0.88619   0.00000  Uiso   1.00
N367   N     0.25911   0.72944   0.68017   0.00000  Uiso   1.00
N368   N     0.22341   0.51716   0.17829   0.00000  Uiso   1.00
