data_job_06597
_audit_creation_date              2018-12-19
_audit_creation_method            'Materials Studio'
_symmetry_space_group_name_H-M    'P1'
_symmetry_Int_Tables_number       1
_symmetry_cell_setting            triclinic
loop_
_symmetry_equiv_pos_as_xyz
  x,y,z
_cell_length_a                    17.3250
_cell_length_b                    23.2830
_cell_length_c                    24.9561
_cell_angle_alpha                 107.3651
_cell_angle_beta                  98.4494
_cell_angle_gamma                 72.6554
loop_
_atom_site_label
_atom_site_type_symbol
_atom_site_fract_x
_atom_site_fract_y
_atom_site_fract_z
_atom_site_U_iso_or_equiv
_atom_site_adp_type
_atom_site_occupancy
C1     C     0.14560   0.62271   0.88676   0.00000  Uiso   1.00
C2     C     0.22815   0.58272   0.90248   0.00000  Uiso   1.00
C3     C     0.24189   0.52844   0.91899   0.00000  Uiso   1.00
C4     C     0.32182   0.49865   0.93161   0.00000  Uiso   1.00
C5     C     0.44028   0.43297   0.95662   0.00000  Uiso   1.00
C6     C     0.13846   0.68837   0.92542   0.00000  Uiso   1.00
C7     C     0.07679   0.72294   0.96122   0.00000  Uiso   1.00
C8     C     0.08122   0.78209   0.99315   0.00000  Uiso   1.00
C9     C     0.06041   0.88046   0.05375   0.00000  Uiso   1.00
C10    C     0.15072   0.62692   0.82763   0.00000  Uiso   1.00
C11    C     0.09934   0.60983   0.78121   0.00000  Uiso   1.00
C12    C     0.11408   0.61726   0.73080   0.00000  Uiso   1.00
C13    C     0.11231   0.62022   0.63956   0.00000  Uiso   1.00
C14    C     0.26312   0.66631   0.87981   0.00000  Uiso   1.00
C15    C     0.29198   0.60640   0.89871   0.00000  Uiso   1.00
C16    C     0.37191   0.57668   0.91130   0.00000  Uiso   1.00
C17    C     0.38577   0.52237   0.92783   0.00000  Uiso   1.00
C18    C     0.20229   0.71206   0.92165   0.00000  Uiso   1.00
C19    C     0.20681   0.77118   0.95353   0.00000  Uiso   1.00
C20    C     0.14516   0.80582   0.98937   0.00000  Uiso   1.00
C21    C     0.21455   0.65060   0.82386   0.00000  Uiso   1.00
C22    C     0.22937   0.65807   0.77352   0.00000  Uiso   1.00
C23    C     0.17803   0.64099   0.72702   0.00000  Uiso   1.00
H24    H     0.09590   0.60428   0.88970   0.00000  Uiso   1.00
H25    H     0.19247   0.51013   0.92191   0.00000  Uiso   1.00
H26    H     0.02739   0.70460   0.96413   0.00000  Uiso   1.00
H27    H     0.04995   0.59151   0.78414   0.00000  Uiso   1.00
H28    H     0.32768   0.41622   0.95597   0.00000  Uiso   1.00
H29    H     0.97960   0.82627   0.04498   0.00000  Uiso   1.00
H30    H     0.02715   0.58779   0.66544   0.00000  Uiso   1.00
H31    H     0.31282   0.68475   0.87688   0.00000  Uiso   1.00
H32    H     0.42130   0.59502   0.90838   0.00000  Uiso   1.00
H33    H     0.25622   0.78949   0.95060   0.00000  Uiso   1.00
H34    H     0.27877   0.67640   0.77061   0.00000  Uiso   1.00
H35    H     0.51341   0.48511   0.94500   0.00000  Uiso   1.00
H36    H     0.16532   0.89517   0.03400   0.00000  Uiso   1.00
H37    H     0.21288   0.65669   0.65446   0.00000  Uiso   1.00
O38    O     0.48799   0.39020   0.97146   0.00000  Uiso   1.00
O39    O     0.03130   0.92817   0.08822   0.00000  Uiso   1.00
O40    O     0.09370   0.61530   0.59028   0.00000  Uiso   1.00
N41    N     0.35651   0.44474   0.94906   0.00000  Uiso   1.00
N42    N     0.03107   0.82811   0.03228   0.00000  Uiso   1.00
N43    N     0.07552   0.60517   0.67744   0.00000  Uiso   1.00
N44    N     0.45644   0.48181   0.94315   0.00000  Uiso   1.00
N45    N     0.13101   0.86518   0.02637   0.00000  Uiso   1.00
N46    N     0.17546   0.64224   0.67154   0.00000  Uiso   1.00
C47    C     0.84603   0.07149   0.82036   0.00000  Uiso   1.00
C48    C     0.88530   0.04659   0.76417   0.00000  Uiso   1.00
C49    C     0.84471   0.04532   0.71174   0.00000  Uiso   1.00
C50    C     0.89157   0.02066   0.66541   0.00000  Uiso   1.00
C51    C     0.93971   0.98541   0.57725   0.00000  Uiso   1.00
C52    C     0.87284   0.01797   0.84814   0.00000  Uiso   1.00
C53    C     0.82176   0.99263   0.86633   0.00000  Uiso   1.00
C54    C     0.85814   0.94388   0.89069   0.00000  Uiso   1.00
C55    C     0.88692   0.86422   0.93295   0.00000  Uiso   1.00
C56    C     0.88644   0.12145   0.85625   0.00000  Uiso   1.00
C57    C     0.84681   0.18312   0.88128   0.00000  Uiso   1.00
C58    C     0.89464   0.22149   0.91248   0.00000  Uiso   1.00
C59    C     0.94455   0.30250   0.96733   0.00000  Uiso   1.00
C60    C     0.00143   0.02997   0.83129   0.00000  Uiso   1.00
C61    C     0.96971   0.02404   0.77011   0.00000  Uiso   1.00
C62    C     0.01665   0.99939   0.72384   0.00000  Uiso   1.00
C63    C     0.97613   0.99807   0.67136   0.00000  Uiso   1.00
C64    C     0.95724   0.99542   0.85408   0.00000  Uiso   1.00
C65    C     0.99370   0.94670   0.87843   0.00000  Uiso   1.00
C66    C     0.94270   0.92129   0.89664   0.00000  Uiso   1.00
C67    C     0.97085   0.09890   0.86219   0.00000  Uiso   1.00
C68    C     0.01875   0.13719   0.89337   0.00000  Uiso   1.00
C69    C     0.97920   0.19890   0.91843   0.00000  Uiso   1.00
H70    H     0.78031   0.08904   0.81574   0.00000  Uiso   1.00
H71    H     0.77939   0.06276   0.70717   0.00000  Uiso   1.00
H72    H     0.75645   0.01009   0.86174   0.00000  Uiso   1.00
H73    H     0.78149   0.20055   0.87667   0.00000  Uiso   1.00
H74    H     0.81558   0.02367   0.58941   0.00000  Uiso   1.00
H75    H     0.76721   0.91262   0.91535   0.00000  Uiso   1.00
H76    H     0.82002   0.31424   0.94685   0.00000  Uiso   1.00
H77    H     0.06715   0.01242   0.83591   0.00000  Uiso   1.00
H78    H     0.08196   0.98194   0.72845   0.00000  Uiso   1.00
H79    H     0.05902   0.92927   0.88302   0.00000  Uiso   1.00
H80    H     0.08407   0.11972   0.89795   0.00000  Uiso   1.00
H81    H     0.06116   0.95806   0.60668   0.00000  Uiso   1.00
H82    H     0.01279   0.84702   0.93262   0.00000  Uiso   1.00
H83    H     0.06561   0.24863   0.96412   0.00000  Uiso   1.00
O84    O     0.94294   0.97218   0.52699   0.00000  Uiso   1.00
O85    O     0.87947   0.82650   0.95461   0.00000  Uiso   1.00
O86    O     0.94877   0.35341   0.99594   0.00000  Uiso   1.00
N87    N     0.87135   0.01242   0.60823   0.00000  Uiso   1.00
N88    N     0.82612   0.90859   0.91295   0.00000  Uiso   1.00
N89    N     0.87550   0.28407   0.94241   0.00000  Uiso   1.00
N90    N     0.00349   0.97712   0.61752   0.00000  Uiso   1.00
N91    N     0.95827   0.87329   0.92224   0.00000  Uiso   1.00
N92    N     0.00764   0.24877   0.95171   0.00000  Uiso   1.00
C93    C     0.98678   0.13729   0.40304   0.00000  Uiso   1.00
C94    C     0.96298   0.20833   0.42514   0.00000  Uiso   1.00
C95    C     0.92186   0.24270   0.47322   0.00000  Uiso   1.00
C96    C     0.90576   0.30726   0.48629   0.00000  Uiso   1.00
C97    C     0.86508   0.41314   0.52573   0.00000  Uiso   1.00
C98    C     0.94959   0.12268   0.34290   0.00000  Uiso   1.00
C99    C     0.89724   0.08503   0.32184   0.00000  Uiso   1.00
C100   C     0.86989   0.07749   0.26567   0.00000  Uiso   1.00
C101   C     0.80848   0.05036   0.17743   0.00000  Uiso   1.00
C102   C     0.07827   0.11754   0.39839   0.00000  Uiso   1.00
C103   C     0.13412   0.07557   0.42398   0.00000  Uiso   1.00
C104   C     0.21511   0.06369   0.41452   0.00000  Uiso   1.00
C105   C     0.35349   0.02859   0.41243   0.00000  Uiso   1.00
C106   C     0.03130   0.19081   0.34074   0.00000  Uiso   1.00
C107   C     0.98715   0.23740   0.39130   0.00000  Uiso   1.00
C108   C     0.97111   0.30192   0.40429   0.00000  Uiso   1.00
C109   C     0.92999   0.33638   0.45239   0.00000  Uiso   1.00
C110   C     0.97377   0.15175   0.30906   0.00000  Uiso   1.00
C111   C     0.94649   0.14425   0.25291   0.00000  Uiso   1.00
C112   C     0.89411   0.10661   0.23177   0.00000  Uiso   1.00
C113   C     0.10246   0.14662   0.36455   0.00000  Uiso   1.00
C114   C     0.18337   0.13479   0.35505   0.00000  Uiso   1.00
C115   C     0.23933   0.09281   0.38061   0.00000  Uiso   1.00
H116   H     0.96796   0.11465   0.42939   0.00000  Uiso   1.00
H117   H     0.90315   0.22019   0.49940   0.00000  Uiso   1.00
H118   H     0.87855   0.06254   0.34804   0.00000  Uiso   1.00
H119   H     0.11539   0.05308   0.45016   0.00000  Uiso   1.00
H120   H     0.84195   0.35001   0.56208   0.00000  Uiso   1.00
H121   H     0.79008   0.01758   0.24293   0.00000  Uiso   1.00
H122   H     0.28951   0.99764   0.45827   0.00000  Uiso   1.00
H123   H     0.05012   0.21345   0.31439   0.00000  Uiso   1.00
H124   H     0.98983   0.32440   0.37809   0.00000  Uiso   1.00
H125   H     0.96522   0.16675   0.22673   0.00000  Uiso   1.00
H126   H     0.20206   0.15730   0.32885   0.00000  Uiso   1.00
H127   H     0.91229   0.43460   0.46363   0.00000  Uiso   1.00
H128   H     0.86043   0.10216   0.14447   0.00000  Uiso   1.00
H129   H     0.35985   0.08222   0.35981   0.00000  Uiso   1.00
O130   O     0.83595   0.46351   0.55683   0.00000  Uiso   1.00
O131   O     0.76792   0.02737   0.13810   0.00000  Uiso   1.00
O132   O     0.42315   0.00121   0.42063   0.00000  Uiso   1.00
N133   N     0.86679   0.35469   0.53018   0.00000  Uiso   1.00
N134   N     0.81829   0.04390   0.23178   0.00000  Uiso   1.00
N135   N     0.28521   0.02524   0.43310   0.00000  Uiso   1.00
N136   N     0.90465   0.40021   0.47720   0.00000  Uiso   1.00
N137   N     0.85614   0.08941   0.17881   0.00000  Uiso   1.00
N138   N     0.32306   0.07075   0.38012   0.00000  Uiso   1.00
C139   C     0.34526   0.45658   0.33450   0.00000  Uiso   1.00
C140   C     0.35483   0.48950   0.39687   0.00000  Uiso   1.00
C141   C     0.29536   0.53644   0.42831   0.00000  Uiso   1.00
C142   C     0.31606   0.56053   0.48476   0.00000  Uiso   1.00
C143   C     0.31913   0.61498   0.57794   0.00000  Uiso   1.00
C144   C     0.36658   0.38701   0.33037   0.00000  Uiso   1.00
C145   C     0.31699   0.34779   0.30588   0.00000  Uiso   1.00
C146   C     0.34759   0.28560   0.30634   0.00000  Uiso   1.00
C147   C     0.36892   0.18094   0.29624   0.00000  Uiso   1.00
C148   C     0.41205   0.46535   0.30666   0.00000  Uiso   1.00
C149   C     0.40070   0.49197   0.26222   0.00000  Uiso   1.00
C150   C     0.46959   0.49572   0.24271   0.00000  Uiso   1.00
C151   C     0.56152   0.51268   0.19580   0.00000  Uiso   1.00
C152   C     0.48779   0.41589   0.37885   0.00000  Uiso   1.00
C153   C     0.43224   0.46739   0.42096   0.00000  Uiso   1.00
C154   C     0.45305   0.49142   0.47737   0.00000  Uiso   1.00
C155   C     0.39362   0.53839   0.50889   0.00000  Uiso   1.00
C156   C     0.44399   0.36491   0.35445   0.00000  Uiso   1.00
C157   C     0.47468   0.30277   0.35494   0.00000  Uiso   1.00
C158   C     0.42515   0.26346   0.33047   0.00000  Uiso   1.00
C159   C     0.48947   0.44325   0.33074   0.00000  Uiso   1.00
C160   C     0.55839   0.44696   0.31129   0.00000  Uiso   1.00
C161   C     0.54715   0.47358   0.26684   0.00000  Uiso   1.00
H162   H     0.28499   0.47378   0.31575   0.00000  Uiso   1.00
H163   H     0.23545   0.55352   0.40965   0.00000  Uiso   1.00
H164   H     0.25709   0.36490   0.28724   0.00000  Uiso   1.00
H165   H     0.34079   0.50906   0.24359   0.00000  Uiso   1.00
H166   H     0.21466   0.63217   0.52439   0.00000  Uiso   1.00
H167   H     0.26028   0.23445   0.26626   0.00000  Uiso   1.00
H168   H     0.43678   0.53844   0.17422   0.00000  Uiso   1.00
H169   H     0.54806   0.39869   0.39760   0.00000  Uiso   1.00
H170   H     0.51296   0.47431   0.49600   0.00000  Uiso   1.00
H171   H     0.53459   0.28569   0.37358   0.00000  Uiso   1.00
H172   H     0.61829   0.42985   0.32994   0.00000  Uiso   1.00
H173   H     0.43989   0.56787   0.59448   0.00000  Uiso   1.00
H174   H     0.48552   0.17015   0.33633   0.00000  Uiso   1.00
H175   H     0.66201   0.47415   0.24430   0.00000  Uiso   1.00
O176   O     0.29943   0.65111   0.62269   0.00000  Uiso   1.00
O177   O     0.35929   0.12931   0.28402   0.00000  Uiso   1.00
O178   O     0.59085   0.52815   0.16327   0.00000  Uiso   1.00
N179   N     0.27249   0.60667   0.52738   0.00000  Uiso   1.00
N180   N     0.31514   0.23482   0.28605   0.00000  Uiso   1.00
N181   N     0.48015   0.51902   0.19999   0.00000  Uiso   1.00
N182   N     0.39369   0.57207   0.56509   0.00000  Uiso   1.00
N183   N     0.43634   0.20023   0.32376   0.00000  Uiso   1.00
N184   N     0.60135   0.48442   0.23770   0.00000  Uiso   1.00
C185   C     0.40843   0.89102   0.80617   0.00000  Uiso   1.00
C186   C     0.39443   0.92541   0.76082   0.00000  Uiso   1.00
C187   C     0.34237   0.91692   0.71300   0.00000  Uiso   1.00
C188   C     0.33813   0.95290   0.67664   0.00000  Uiso   1.00
C189   C     0.30933   0.99980   0.60455   0.00000  Uiso   1.00
C190   C     0.38983   0.94147   0.86146   0.00000  Uiso   1.00
C191   C     0.33391   0.94647   0.89827   0.00000  Uiso   1.00
C192   C     0.32580   0.99597   0.94664   0.00000  Uiso   1.00
C193   C     0.28991   0.06777   0.03082   0.00000  Uiso   1.00
C194   C     0.49930   0.86031   0.81025   0.00000  Uiso   1.00
C195   C     0.53542   0.79707   0.80401   0.00000  Uiso   1.00
C196   C     0.61948   0.77823   0.80927   0.00000  Uiso   1.00
C197   C     0.75355   0.72402   0.81393   0.00000  Uiso   1.00
C198   C     0.49347   0.97001   0.82663   0.00000  Uiso   1.00
C199   C     0.44062   0.96832   0.77194   0.00000  Uiso   1.00
C200   C     0.43645   0.00431   0.73564   0.00000  Uiso   1.00
C201   C     0.38440   0.99588   0.68777   0.00000  Uiso   1.00
C202   C     0.43602   0.98438   0.87258   0.00000  Uiso   1.00
C203   C     0.42799   0.03387   0.92091   0.00000  Uiso   1.00
C204   C     0.37208   0.03895   0.95778   0.00000  Uiso   1.00
C205   C     0.54549   0.90321   0.82136   0.00000  Uiso   1.00
C206   C     0.62950   0.88447   0.82665   0.00000  Uiso   1.00
C207   C     0.66575   0.82122   0.82041   0.00000  Uiso   1.00
H208   H     0.37247   0.85762   0.79752   0.00000  Uiso   1.00
H209   H     0.30663   0.88372   0.70441   0.00000  Uiso   1.00
H210   H     0.29818   0.91326   0.88966   0.00000  Uiso   1.00
H211   H     0.49966   0.76389   0.79540   0.00000  Uiso   1.00
H212   H     0.25399   0.93159   0.60610   0.00000  Uiso   1.00
H213   H     0.23619   0.99388   0.99671   0.00000  Uiso   1.00
H214   H     0.66104   0.67889   0.79796   0.00000  Uiso   1.00
H215   H     0.52943   0.00341   0.83529   0.00000  Uiso   1.00
H216   H     0.47220   0.03751   0.74425   0.00000  Uiso   1.00
H217   H     0.46375   0.06706   0.92950   0.00000  Uiso   1.00
H218   H     0.66523   0.91768   0.83525   0.00000  Uiso   1.00
H219   H     0.38837   0.05642   0.63844   0.00000  Uiso   1.00
H220   H     0.37057   0.11870   0.02905   0.00000  Uiso   1.00
H221   H     0.79543   0.80371   0.83030   0.00000  Uiso   1.00
O222   O     0.28068   0.01382   0.56172   0.00000  Uiso   1.00
O223   O     0.25734   0.09553   0.07418   0.00000  Uiso   1.00
O224   O     0.81474   0.68227   0.81343   0.00000  Uiso   1.00
N225   N     0.29348   0.95628   0.62620   0.00000  Uiso   1.00
N226   N     0.27683   0.01452   0.99139   0.00000  Uiso   1.00
N227   N     0.67403   0.72003   0.80560   0.00000  Uiso   1.00
N228   N     0.36579   0.02345   0.64360   0.00000  Uiso   1.00
N229   N     0.34914   0.08169   0.00879   0.00000  Uiso   1.00
N230   N     0.74634   0.78720   0.82300   0.00000  Uiso   1.00
C231   C     0.60535   0.85525   0.25661   0.00000  Uiso   1.00
C232   C     0.66051   0.79051   0.23189   0.00000  Uiso   1.00
C233   C     0.63900   0.73473   0.21759   0.00000  Uiso   1.00
C234   C     0.69816   0.68047   0.19555   0.00000  Uiso   1.00
C235   C     0.77195   0.57971   0.15828   0.00000  Uiso   1.00
C236   C     0.60482   0.89416   0.21699   0.00000  Uiso   1.00
C237   C     0.53649   0.92554   0.19018   0.00000  Uiso   1.00
C238   C     0.54877   0.95855   0.15561   0.00000  Uiso   1.00
C239   C     0.53611   0.01876   0.09524   0.00000  Uiso   1.00
C240   C     0.64892   0.88304   0.31154   0.00000  Uiso   1.00
C241   C     0.61767   0.90507   0.36422   0.00000  Uiso   1.00
C242   C     0.66707   0.92873   0.40925   0.00000  Uiso   1.00
C243   C     0.72288   0.97165   0.49567   0.00000  Uiso   1.00
C244   C     0.74866   0.85810   0.24289   0.00000  Uiso   1.00
C245   C     0.73835   0.79206   0.22443   0.00000  Uiso   1.00
C246   C     0.79755   0.73787   0.20241   0.00000  Uiso   1.00
C247   C     0.77614   0.68202   0.18809   0.00000  Uiso   1.00
C248   C     0.68265   0.89571   0.20954   0.00000  Uiso   1.00
C249   C     0.69504   0.92869   0.17500   0.00000  Uiso   1.00
C250   C     0.62675   0.96010   0.14815   0.00000  Uiso   1.00
C251   C     0.72676   0.88458   0.30409   0.00000  Uiso   1.00
C252   C     0.77622   0.90822   0.34904   0.00000  Uiso   1.00
C253   C     0.74505   0.93028   0.40178   0.00000  Uiso   1.00
H254   H     0.54475   0.85405   0.26241   0.00000  Uiso   1.00
H255   H     0.57875   0.73355   0.22336   0.00000  Uiso   1.00
H256   H     0.47626   0.92434   0.19596   0.00000  Uiso   1.00
H257   H     0.55743   0.90387   0.36997   0.00000  Uiso   1.00
H258   H     0.65078   0.60063   0.17677   0.00000  Uiso   1.00
H259   H     0.43466   0.00294   0.11901   0.00000  Uiso   1.00
H260   H     0.60581   0.95978   0.48594   0.00000  Uiso   1.00
H261   H     0.80926   0.85930   0.23709   0.00000  Uiso   1.00
H262   H     0.85778   0.73908   0.19665   0.00000  Uiso   1.00
H263   H     0.75529   0.92988   0.16925   0.00000  Uiso   1.00
H264   H     0.83645   0.90940   0.34326   0.00000  Uiso   1.00
H265   H     0.87725   0.60513   0.15508   0.00000  Uiso   1.00
H266   H     0.66113   0.00744   0.09733   0.00000  Uiso   1.00
H267   H     0.83228   0.96427   0.46426   0.00000  Uiso   1.00
O268   O     0.79115   0.52370   0.13977   0.00000  Uiso   1.00
O269   O     0.50762   0.05153   0.06400   0.00000  Uiso   1.00
O270   O     0.73216   0.99489   0.54540   0.00000  Uiso   1.00
N271   N     0.69742   0.61819   0.17722   0.00000  Uiso   1.00
N272   N     0.49537   0.99432   0.12321   0.00000  Uiso   1.00
N273   N     0.65537   0.95398   0.46627   0.00000  Uiso   1.00
N274   N     0.81928   0.62061   0.16556   0.00000  Uiso   1.00
N275   N     0.61723   0.99673   0.11155   0.00000  Uiso   1.00
N276   N     0.77723   0.95639   0.45460   0.00000  Uiso   1.00
C277   C     0.87919   0.27665   0.15332   0.00000  Uiso   1.00
C278   C     0.81652   0.30776   0.11368   0.00000  Uiso   1.00
C279   C     0.81295   0.36353   0.10266   0.00000  Uiso   1.00
C280   C     0.75099   0.38416   0.06509   0.00000  Uiso   1.00
C281   C     0.66226   0.43761   0.00741   0.00000  Uiso   1.00
C282   C     0.91867   0.21101   0.11820   0.00000  Uiso   1.00
C283   C     0.00099   0.18543   0.11098   0.00000  Uiso   1.00
C284   C     0.02501   0.12461   0.07723   0.00000  Uiso   1.00
C285   C     0.09488   0.02783   0.02660   0.00000  Uiso   1.00
C286   C     0.83133   0.26834   0.19579   0.00000  Uiso   1.00
C287   C     0.84023   0.29094   0.25382   0.00000  Uiso   1.00
C288   C     0.79073   0.27837   0.28540   0.00000  Uiso   1.00
C289   C     0.72500   0.27061   0.35525   0.00000  Uiso   1.00
C290   C     0.77549   0.21412   0.10620   0.00000  Uiso   1.00
C291   C     0.76019   0.27379   0.08809   0.00000  Uiso   1.00
C292   C     0.69821   0.29434   0.05053   0.00000  Uiso   1.00
C293   C     0.69455   0.35014   0.03946   0.00000  Uiso   1.00
C294   C     0.86234   0.17704   0.09261   0.00000  Uiso   1.00
C295   C     0.88625   0.11624   0.05886   0.00000  Uiso   1.00
C296   C     0.96858   0.09058   0.05159   0.00000  Uiso   1.00
C297   C     0.77500   0.23437   0.17020   0.00000  Uiso   1.00
C298   C     0.72549   0.22176   0.20170   0.00000  Uiso   1.00
C299   C     0.73430   0.24434   0.25976   0.00000  Uiso   1.00
H300   H     0.92305   0.30309   0.17324   0.00000  Uiso   1.00
H301   H     0.85656   0.38980   0.12247   0.00000  Uiso   1.00
H302   H     0.04456   0.21172   0.13080   0.00000  Uiso   1.00
H303   H     0.88382   0.31723   0.27361   0.00000  Uiso   1.00
H304   H     0.75802   0.47094   0.05487   0.00000  Uiso   1.00
H305   H     0.15444   0.09544   0.07245   0.00000  Uiso   1.00
H306   H     0.81549   0.31792   0.37361   0.00000  Uiso   1.00
H307   H     0.73164   0.18767   0.08628   0.00000  Uiso   1.00
H308   H     0.65464   0.26805   0.03073   0.00000  Uiso   1.00
H309   H     0.84265   0.08997   0.03906   0.00000  Uiso   1.00
H310   H     0.68191   0.19547   0.18188   0.00000  Uiso   1.00
H311   H     0.59413   0.37212   0.98041   0.00000  Uiso   1.00
H312   H     0.99056   0.99662   0.99800   0.00000  Uiso   1.00
H313   H     0.65161   0.21909   0.29915   0.00000  Uiso   1.00
O314   O     0.62889   0.47647   0.98266   0.00000  Uiso   1.00
O315   O     0.14898   0.98384   0.00573   0.00000  Uiso   1.00
O316   O     0.70429   0.27572   0.40084   0.00000  Uiso   1.00
N317   N     0.73000   0.43666   0.04498   0.00000  Uiso   1.00
N318   N     0.10063   0.08560   0.06141   0.00000  Uiso   1.00
N319   N     0.78376   0.29357   0.34297   0.00000  Uiso   1.00
N320   N     0.64182   0.38348   0.00492   0.00000  Uiso   1.00
N321   N     0.01245   0.03242   0.02135   0.00000  Uiso   1.00
N322   N     0.69558   0.24040   0.30290   0.00000  Uiso   1.00
C323   C     0.25760   0.86869   0.28748   0.00000  Uiso   1.00
C324   C     0.21661   0.88379   0.34195   0.00000  Uiso   1.00
C325   C     0.25597   0.88031   0.39395   0.00000  Uiso   1.00
C326   C     0.20762   0.89607   0.43865   0.00000  Uiso   1.00
C327   C     0.15685   0.91674   0.52432   0.00000  Uiso   1.00
C328   C     0.22630   0.92707   0.26631   0.00000  Uiso   1.00
C329   C     0.27383   0.95995   0.25472   0.00000  Uiso   1.00
C330   C     0.23363   0.01214   0.23573   0.00000  Uiso   1.00
C331   C     0.19792   0.09995   0.20394   0.00000  Uiso   1.00
C332   C     0.22307   0.81864   0.24519   0.00000  Uiso   1.00
C333   C     0.26788   0.76037   0.21583   0.00000  Uiso   1.00
C334   C     0.22496   0.72127   0.17906   0.00000  Uiso   1.00
C335   C     0.18423   0.64074   0.11447   0.00000  Uiso   1.00
C336   C     0.10173   0.90288   0.27438   0.00000  Uiso   1.00
C337   C     0.13194   0.90237   0.33483   0.00000  Uiso   1.00
C338   C     0.08352   0.91814   0.37946   0.00000  Uiso   1.00
C339   C     0.12280   0.91468   0.43152   0.00000  Uiso   1.00
C340   C     0.14164   0.94564   0.25920   0.00000  Uiso   1.00
C341   C     0.10137   0.99779   0.24022   0.00000  Uiso   1.00
C342   C     0.14882   0.03075   0.22861   0.00000  Uiso   1.00
C343   C     0.13841   0.83721   0.23808   0.00000  Uiso   1.00
C344   C     0.09542   0.79820   0.20134   0.00000  Uiso   1.00
C345   C     0.14015   0.73988   0.17193   0.00000  Uiso   1.00
H346   H     0.32351   0.85423   0.29301   0.00000  Uiso   1.00
H347   H     0.32149   0.86594   0.39944   0.00000  Uiso   1.00
H348   H     0.33934   0.94557   0.26022   0.00000  Uiso   1.00
H349   H     0.33339   0.74601   0.22135   0.00000  Uiso   1.00
H350   H     0.28192   0.88713   0.51431   0.00000  Uiso   1.00
H351   H     0.31955   0.05502   0.22073   0.00000  Uiso   1.00
H352   H     0.30701   0.63422   0.13875   0.00000  Uiso   1.00
H353   H     0.03581   0.91734   0.26883   0.00000  Uiso   1.00
H354   H     0.01800   0.93251   0.37394   0.00000  Uiso   1.00
H355   H     0.03585   0.01214   0.23472   0.00000  Uiso   1.00
H356   H     0.02990   0.81259   0.19584   0.00000  Uiso   1.00
H357   H     0.03559   0.94117   0.49361   0.00000  Uiso   1.00
H358   H     0.07323   0.10906   0.20003   0.00000  Uiso   1.00
H359   H     0.06069   0.68826   0.11805   0.00000  Uiso   1.00
O360   O     0.15223   0.92301   0.57354   0.00000  Uiso   1.00
O361   O     0.20161   0.14326   0.18837   0.00000  Uiso   1.00
O362   O     0.18515   0.59119   0.08082   0.00000  Uiso   1.00
N363   N     0.22639   0.89776   0.49501   0.00000  Uiso   1.00
N364   N     0.26158   0.05473   0.22054   0.00000  Uiso   1.00
N365   N     0.24985   0.66132   0.14389   0.00000  Uiso   1.00
N366   N     0.09384   0.92683   0.48387   0.00000  Uiso   1.00
N367   N     0.12903   0.08380   0.20940   0.00000  Uiso   1.00
N368   N     0.11731   0.69040   0.13275   0.00000  Uiso   1.00
C369   C     0.92402   0.80007   0.61579   0.00000  Uiso   1.00
C370   C     0.91467   0.73404   0.59074   0.00000  Uiso   1.00
C371   C     0.93492   0.69624   0.53736   0.00000  Uiso   1.00
C372   C     0.92179   0.63733   0.52233   0.00000  Uiso   1.00
C373   C     0.91221   0.53788   0.47780   0.00000  Uiso   1.00
C374   C     0.97655   0.79906   0.67036   0.00000  Uiso   1.00
C375   C     0.04882   0.81593   0.68392   0.00000  Uiso   1.00
C376   C     0.08777   0.81176   0.73592   0.00000  Uiso   1.00
C377   C     0.17424   0.81330   0.81502   0.00000  Uiso   1.00
C378   C     0.84019   0.84147   0.63304   0.00000  Uiso   1.00
C379   C     0.79781   0.89402   0.61524   0.00000  Uiso   1.00
C380   C     0.72197   0.92557   0.63584   0.00000  Uiso   1.00
C381   C     0.59671   0.99296   0.65699   0.00000  Uiso   1.00
C382   C     0.86469   0.76267   0.68403   0.00000  Uiso   1.00
C383   C     0.88244   0.71373   0.62780   0.00000  Uiso   1.00
C384   C     0.86928   0.65486   0.61285   0.00000  Uiso   1.00
C385   C     0.88951   0.61698   0.55945   0.00000  Uiso   1.00
C386   C     0.94432   0.77875   0.70742   0.00000  Uiso   1.00
C387   C     0.98318   0.77456   0.75942   0.00000  Uiso   1.00
C388   C     0.05549   0.79141   0.77305   0.00000  Uiso   1.00
C389   C     0.80796   0.82116   0.67011   0.00000  Uiso   1.00
C390   C     0.73217   0.85264   0.69073   0.00000  Uiso   1.00
C391   C     0.68969   0.90522   0.67297   0.00000  Uiso   1.00
H392   H     0.94911   0.81589   0.58694   0.00000  Uiso   1.00
H393   H     0.95986   0.71198   0.50869   0.00000  Uiso   1.00
H394   H     0.07374   0.83166   0.65524   0.00000  Uiso   1.00
H395   H     0.82277   0.90972   0.58656   0.00000  Uiso   1.00
H396   H     0.95760   0.58780   0.43828   0.00000  Uiso   1.00
H397   H     0.19770   0.84018   0.74729   0.00000  Uiso   1.00
H398   H     0.66848   0.00480   0.60248   0.00000  Uiso   1.00
H399   H     0.83960   0.74686   0.71289   0.00000  Uiso   1.00
H400   H     0.84434   0.63916   0.64154   0.00000  Uiso   1.00
H401   H     0.95822   0.75884   0.78809   0.00000  Uiso   1.00
H402   H     0.70725   0.83691   0.71941   0.00000  Uiso   1.00
H403   H     0.86385   0.52870   0.54611   0.00000  Uiso   1.00
H404   H     0.10395   0.78108   0.85512   0.00000  Uiso   1.00
H405   H     0.57473   0.94570   0.71031   0.00000  Uiso   1.00
O406   O     0.91585   0.48864   0.44300   0.00000  Uiso   1.00
O407   O     0.23084   0.81976   0.84841   0.00000  Uiso   1.00
O408   O     0.53652   0.03574   0.65842   0.00000  Uiso   1.00
N409   N     0.93487   0.58868   0.47345   0.00000  Uiso   1.00
N410   N     0.15936   0.82463   0.76235   0.00000  Uiso   1.00
N411   N     0.66459   0.97855   0.62698   0.00000  Uiso   1.00
N412   N     0.88442   0.55688   0.53147   0.00000  Uiso   1.00
N413   N     0.10891   0.79282   0.82037   0.00000  Uiso   1.00
N414   N     0.61414   0.94674   0.68500   0.00000  Uiso   1.00
C415   C     0.61178   0.66430   0.93142   0.00000  Uiso   1.00
C416   C     0.57269   0.64770   0.87200   0.00000  Uiso   1.00
C417   C     0.60766   0.59946   0.82712   0.00000  Uiso   1.00
C418   C     0.56204   0.59192   0.77614   0.00000  Uiso   1.00
C419   C     0.51320   0.56018   0.68477   0.00000  Uiso   1.00
C420   C     0.61123   0.73272   0.94454   0.00000  Uiso   1.00
C421   C     0.67860   0.75597   0.96066   0.00000  Uiso   1.00
C422   C     0.66542   0.82000   0.97076   0.00000  Uiso   1.00
C423   C     0.67640   0.92026   0.99204   0.00000  Uiso   1.00
C424   C     0.55329   0.66208   0.97037   0.00000  Uiso   1.00
C425   C     0.57194   0.62595   0.00820   0.00000  Uiso   1.00
C426   C     0.50998   0.63052   0.04006   0.00000  Uiso   1.00
C427   C     0.43099   0.62111   0.10143   0.00000  Uiso   1.00
C428   C     0.46858   0.73667   0.92071   0.00000  Uiso   1.00
C429   C     0.49491   0.68701   0.86619   0.00000  Uiso   1.00
C430   C     0.44922   0.67954   0.81527   0.00000  Uiso   1.00
C431   C     0.48412   0.63130   0.77032   0.00000  Uiso   1.00
C432   C     0.53345   0.77203   0.93873   0.00000  Uiso   1.00
C433   C     0.52017   0.83604   0.94881   0.00000  Uiso   1.00
C434   C     0.58750   0.85938   0.96493   0.00000  Uiso   1.00
C435   C     0.47550   0.70139   0.96455   0.00000  Uiso   1.00
C436   C     0.41350   0.70602   0.99636   0.00000  Uiso   1.00
C437   C     0.43206   0.66990   0.03423   0.00000  Uiso   1.00
H438   H     0.67234   0.63370   0.93594   0.00000  Uiso   1.00
H439   H     0.66786   0.56906   0.83163   0.00000  Uiso   1.00
H440   H     0.73879   0.72553   0.96516   0.00000  Uiso   1.00
H441   H     0.63214   0.59554   0.01269   0.00000  Uiso   1.00
H442   H     0.62861   0.51474   0.71341   0.00000  Uiso   1.00
H443   H     0.77816   0.84469   0.99498   0.00000  Uiso   1.00
H444   H     0.55327   0.57056   0.09522   0.00000  Uiso   1.00
H445   H     0.40802   0.76728   0.91619   0.00000  Uiso   1.00
H446   H     0.38903   0.70996   0.81079   0.00000  Uiso   1.00
H447   H     0.45996   0.86644   0.94431   0.00000  Uiso   1.00
H448   H     0.35332   0.73645   0.99185   0.00000  Uiso   1.00
H449   H     0.40230   0.62911   0.69649   0.00000  Uiso   1.00
H450   H     0.55185   0.95905   0.97806   0.00000  Uiso   1.00
H451   H     0.32697   0.68493   0.07830   0.00000  Uiso   1.00
O452   O     0.50775   0.53182   0.63597   0.00000  Uiso   1.00
O453   O     0.70395   0.96470   0.00538   0.00000  Uiso   1.00
O454   O     0.40891   0.60506   0.13689   0.00000  Uiso   1.00
N455   N     0.57795   0.54951   0.72390   0.00000  Uiso   1.00
N456   N     0.71777   0.85799   0.98713   0.00000  Uiso   1.00
N457   N     0.50753   0.60172   0.08086   0.00000  Uiso   1.00
N458   N     0.45617   0.61105   0.71479   0.00000  Uiso   1.00
N459   N     0.59599   0.91953   0.97803   0.00000  Uiso   1.00
N460   N     0.38575   0.66326   0.07176   0.00000  Uiso   1.00
C461   C     0.48608   0.27901   0.51038   0.00000  Uiso   1.00
C462   C     0.48100   0.26223   0.56410   0.00000  Uiso   1.00
C463   C     0.51137   0.28889   0.61737   0.00000  Uiso   1.00
C464   C     0.50061   0.26711   0.66107   0.00000  Uiso   1.00
C465   C     0.49880   0.24815   0.74589   0.00000  Uiso   1.00
C466   C     0.52801   0.21816   0.46927   0.00000  Uiso   1.00
C467   C     0.59790   0.20777   0.44281   0.00000  Uiso   1.00
C468   C     0.62671   0.14889   0.40668   0.00000  Uiso   1.00
C469   C     0.69785   0.06151   0.34424   0.00000  Uiso   1.00
C470   C     0.39912   0.29766   0.48605   0.00000  Uiso   1.00
C471   C     0.36065   0.35410   0.47367   0.00000  Uiso   1.00
C472   C     0.28095   0.36214   0.45166   0.00000  Uiso   1.00
C473   C     0.15199   0.39820   0.41527   0.00000  Uiso   1.00
C474   C     0.41296   0.19294   0.49328   0.00000  Uiso   1.00
C475   C     0.44128   0.21548   0.55481   0.00000  Uiso   1.00
C476   C     0.43047   0.19366   0.59844   0.00000  Uiso   1.00
C477   C     0.46082   0.22028   0.65177   0.00000  Uiso   1.00
C478   C     0.48830   0.17141   0.45998   0.00000  Uiso   1.00
C479   C     0.51701   0.11253   0.42388   0.00000  Uiso   1.00
C480   C     0.58693   0.10205   0.39737   0.00000  Uiso   1.00
C481   C     0.35941   0.25090   0.47676   0.00000  Uiso   1.00
C482   C     0.27976   0.25886   0.45475   0.00000  Uiso   1.00
C483   C     0.24117   0.31531   0.44235   0.00000  Uiso   1.00
H484   H     0.51700   0.31541   0.51761   0.00000  Uiso   1.00
H485   H     0.54211   0.32507   0.62454   0.00000  Uiso   1.00
H486   H     0.62862   0.24396   0.45000   0.00000  Uiso   1.00
H487   H     0.39141   0.39026   0.48087   0.00000  Uiso   1.00
H488   H     0.55246   0.31514   0.73899   0.00000  Uiso   1.00
H489   H     0.73485   0.14412   0.37095   0.00000  Uiso   1.00
H490   H     0.23465   0.45264   0.43603   0.00000  Uiso   1.00
H491   H     0.38204   0.15654   0.48604   0.00000  Uiso   1.00
H492   H     0.39974   0.15748   0.59124   0.00000  Uiso   1.00
H493   H     0.48625   0.07637   0.41670   0.00000  Uiso   1.00
H494   H     0.24904   0.22267   0.44757   0.00000  Uiso   1.00
H495   H     0.43691   0.17911   0.71196   0.00000  Uiso   1.00
H496   H     0.61931   0.00810   0.34391   0.00000  Uiso   1.00
H497   H     0.11910   0.31662   0.40901   0.00000  Uiso   1.00
O498   O     0.50879   0.25059   0.79524   0.00000  Uiso   1.00
O499   O     0.74808   0.02623   0.31238   0.00000  Uiso   1.00
O500   O     0.09182   0.43100   0.39778   0.00000  Uiso   1.00
N501   N     0.52282   0.28300   0.71819   0.00000  Uiso   1.00
N502   N     0.69336   0.12311   0.37410   0.00000  Uiso   1.00
N503   N     0.22571   0.41154   0.43494   0.00000  Uiso   1.00
N504   N     0.46064   0.20981   0.70365   0.00000  Uiso   1.00
N505   N     0.63118   0.04992   0.35956   0.00000  Uiso   1.00
N506   N     0.16354   0.33835   0.42040   0.00000  Uiso   1.00
C507   C     0.35081   0.33161   0.04005   0.00000  Uiso   1.00
C508   C     0.26352   0.36707   0.05379   0.00000  Uiso   1.00
C509   C     0.23165   0.43144   0.06646   0.00000  Uiso   1.00
C510   C     0.15038   0.45482   0.07782   0.00000  Uiso   1.00
C511   C     0.02209   0.51592   0.09937   0.00000  Uiso   1.00
C512   C     0.38281   0.29272   0.08211   0.00000  Uiso   1.00
C513   C     0.45125   0.29457   0.11858   0.00000  Uiso   1.00
C514   C     0.47040   0.25535   0.15377   0.00000  Uiso   1.00
C515   C     0.52734   0.20098   0.21925   0.00000  Uiso   1.00
C516   C     0.34603   0.28505   0.98267   0.00000  Uiso   1.00
C517   C     0.38357   0.28043   0.93553   0.00000  Uiso   1.00
C518   C     0.37177   0.23474   0.88700   0.00000  Uiso   1.00
C519   C     0.37161   0.16846   0.79808   0.00000  Uiso   1.00
C520   C     0.26314   0.25867   0.03771   0.00000  Uiso   1.00
C521   C     0.21590   0.32745   0.05251   0.00000  Uiso   1.00
C522   C     0.13465   0.35074   0.06386   0.00000  Uiso   1.00
C523   C     0.10267   0.41513   0.07654   0.00000  Uiso   1.00
C524   C     0.33519   0.25310   0.08083   0.00000  Uiso   1.00
C525   C     0.35425   0.21387   0.11598   0.00000  Uiso   1.00
C526   C     0.42269   0.21566   0.15249   0.00000  Uiso   1.00
C527   C     0.29841   0.24543   0.98139   0.00000  Uiso   1.00
C528   C     0.28656   0.19973   0.93293   0.00000  Uiso   1.00
C529   C     0.32406   0.19505   0.88572   0.00000  Uiso   1.00
H530   H     0.38789   0.36245   0.04105   0.00000  Uiso   1.00
H531   H     0.26853   0.46209   0.06744   0.00000  Uiso   1.00
H532   H     0.48809   0.32523   0.11955   0.00000  Uiso   1.00
H533   H     0.42041   0.31110   0.93653   0.00000  Uiso   1.00
H534   H     0.11520   0.55508   0.09617   0.00000  Uiso   1.00
H535   H     0.57818   0.26650   0.20602   0.00000  Uiso   1.00
H536   H     0.43547   0.23669   0.82008   0.00000  Uiso   1.00
H537   H     0.22606   0.22782   0.03671   0.00000  Uiso   1.00
H538   H     0.09782   0.32007   0.06287   0.00000  Uiso   1.00
H539   H     0.31738   0.18321   0.11498   0.00000  Uiso   1.00
H540   H     0.24970   0.16908   0.93196   0.00000  Uiso   1.00
H541   H     0.97665   0.43981   0.09245   0.00000  Uiso   1.00
H542   H     0.43963   0.15123   0.20231   0.00000  Uiso   1.00
H543   H     0.29691   0.12143   0.81637   0.00000  Uiso   1.00
O544   O     0.96449   0.56056   0.11161   0.00000  Uiso   1.00
O545   O     0.57190   0.18195   0.25573   0.00000  Uiso   1.00
O546   O     0.38466   0.14285   0.74939   0.00000  Uiso   1.00
N547   N     0.10019   0.51529   0.09169   0.00000  Uiso   1.00
N548   N     0.53304   0.24549   0.19441   0.00000  Uiso   1.00
N549   N     0.39963   0.21762   0.83359   0.00000  Uiso   1.00
N550   N     0.02563   0.45327   0.08969   0.00000  Uiso   1.00
N551   N     0.45848   0.18347   0.19241   0.00000  Uiso   1.00
N552   N     0.32508   0.15559   0.83159   0.00000  Uiso   1.00
