data_job_04584
_audit_creation_date              2018-12-19
_audit_creation_method            'Materials Studio'
_symmetry_space_group_name_H-M    'P1'
_symmetry_Int_Tables_number       1
_symmetry_cell_setting            triclinic
loop_
_symmetry_equiv_pos_as_xyz
  x,y,z
_cell_length_a                    17.1697
_cell_length_b                    26.4860
_cell_length_c                    14.1190
_cell_angle_alpha                 90.0000
_cell_angle_beta                  134.2479
_cell_angle_gamma                 90.0000
loop_
_atom_site_label
_atom_site_type_symbol
_atom_site_fract_x
_atom_site_fract_y
_atom_site_fract_z
_atom_site_U_iso_or_equiv
_atom_site_adp_type
_atom_site_occupancy
C1     C     0.18194   0.56856   0.07074   0.00000  Uiso   1.00
C2     C     0.27593   0.59047   0.09330   0.00000  Uiso   1.00
C3     C     0.37568   0.56735   0.16277   0.00000  Uiso   1.00
C4     C     0.45094   0.59359   0.17232   0.00000  Uiso   1.00
C5     C     0.60052   0.62037   0.21621   0.00000  Uiso   1.00
C6     C     0.15565   0.60755   0.12453   0.00000  Uiso   1.00
C7     C     0.15425   0.59879   0.22025   0.00000  Uiso   1.00
C8     C     0.12823   0.63941   0.25607   0.00000  Uiso   1.00
C9     C     0.09099   0.69270   0.34837   0.00000  Uiso   1.00
C10    C     0.08427   0.56777   0.92136   0.00000  Uiso   1.00
C11    C     0.02283   0.52556   0.84624   0.00000  Uiso   1.00
C12    C     0.93670   0.53268   0.71100   0.00000  Uiso   1.00
C13    C     0.78864   0.52420   0.48785   0.00000  Uiso   1.00
C14    C     0.13821   0.65626   0.96414   0.00000  Uiso   1.00
C15    C     0.25218   0.63811   0.03540   0.00000  Uiso   1.00
C16    C     0.32730   0.66438   0.04484   0.00000  Uiso   1.00
C17    C     0.42715   0.64131   0.11431   0.00000  Uiso   1.00
C18    C     0.13190   0.65519   0.06664   0.00000  Uiso   1.00
C19    C     0.10587   0.69582   0.10231   0.00000  Uiso   1.00
C20    C     0.10444   0.68713   0.19807   0.00000  Uiso   1.00
C21    C     0.06052   0.61540   0.86345   0.00000  Uiso   1.00
C22    C     0.97446   0.62259   0.72831   0.00000  Uiso   1.00
C23    C     0.91291   0.58040   0.65300   0.00000  Uiso   1.00
H24    H     0.20043   0.53148   0.11582   0.00000  Uiso   1.00
H25    H     0.39404   0.53049   0.20757   0.00000  Uiso   1.00
H26    H     0.17262   0.56192   0.26502   0.00000  Uiso   1.00
H27    H     0.04124   0.48870   0.89108   0.00000  Uiso   1.00
H28    H     0.59823   0.55041   0.28381   0.00000  Uiso   1.00
H29    H     0.13133   0.61669   0.40492   0.00000  Uiso   1.00
H30    H     0.85427   0.46228   0.61638   0.00000  Uiso   1.00
H31    H     0.11972   0.69335   0.91907   0.00000  Uiso   1.00
H32    H     0.30890   0.70125   0.00002   0.00000  Uiso   1.00
H33    H     0.08749   0.73268   0.05748   0.00000  Uiso   1.00
H34    H     0.95610   0.65946   0.68354   0.00000  Uiso   1.00
H35    H     0.52913   0.68900   0.11536   0.00000  Uiso   1.00
H36    H     0.06223   0.75528   0.23647   0.00000  Uiso   1.00
H37    H     0.78517   0.60088   0.44793   0.00000  Uiso   1.00
O38    O     0.68960   0.62199   0.25643   0.00000  Uiso   1.00
O39    O     0.07702   0.70893   0.41530   0.00000  Uiso   1.00
O40    O     0.71354   0.50636   0.38076   0.00000  Uiso   1.00
N41    N     0.55600   0.58194   0.23303   0.00000  Uiso   1.00
N42    N     0.11949   0.64391   0.34628   0.00000  Uiso   1.00
N43    N     0.86045   0.49956   0.60906   0.00000  Uiso   1.00
N44    N     0.51881   0.65652   0.14239   0.00000  Uiso   1.00
N45    N     0.08231   0.71848   0.25564   0.00000  Uiso   1.00
N46    N     0.82326   0.57413   0.51842   0.00000  Uiso   1.00
C47    C     0.39512   0.09097   0.62004   0.00000  Uiso   1.00
C48    C     0.48498   0.12175   0.64934   0.00000  Uiso   1.00
C49    C     0.58624   0.10361   0.70841   0.00000  Uiso   1.00
C50    C     0.65708   0.13778   0.72664   0.00000  Uiso   1.00
C51    C     0.80110   0.17790   0.77820   0.00000  Uiso   1.00
C52    C     0.36781   0.11830   0.68890   0.00000  Uiso   1.00
C53    C     0.37054   0.09725   0.78121   0.00000  Uiso   1.00
C54    C     0.34273   0.12852   0.83272   0.00000  Uiso   1.00
C55    C     0.30477   0.16328   0.94562   0.00000  Uiso   1.00
C56    C     0.29540   0.09655   0.47212   0.00000  Uiso   1.00
C57    C     0.23722   0.05722   0.38215   0.00000  Uiso   1.00
C58    C     0.14842   0.07017   0.25115   0.00000  Uiso   1.00
C59    C     0.99803   0.07116   0.02747   0.00000  Uiso   1.00
C60    C     0.34085   0.18392   0.54740   0.00000  Uiso   1.00
C61    C     0.45550   0.17224   0.60989   0.00000  Uiso   1.00
C62    C     0.52620   0.20645   0.62803   0.00000  Uiso   1.00
C63    C     0.62754   0.18836   0.68711   0.00000  Uiso   1.00
C64    C     0.33833   0.16879   0.64944   0.00000  Uiso   1.00
C65    C     0.31050   0.20009   0.70083   0.00000  Uiso   1.00
C66    C     0.31319   0.17910   0.79319   0.00000  Uiso   1.00
C67    C     0.26592   0.14704   0.43265   0.00000  Uiso   1.00
C68    C     0.17718   0.16006   0.30178   0.00000  Uiso   1.00
C69    C     0.11889   0.12075   0.21163   0.00000  Uiso   1.00
H70    H     0.41807   0.05166   0.65077   0.00000  Uiso   1.00
H71    H     0.60903   0.06453   0.73894   0.00000  Uiso   1.00
H72    H     0.39335   0.05818   0.81171   0.00000  Uiso   1.00
H73    H     0.26006   0.01815   0.41272   0.00000  Uiso   1.00
H74    H     0.80775   0.10107   0.81934   0.00000  Uiso   1.00
H75    H     0.35295   0.08767   0.97275   0.00000  Uiso   1.00
H76    H     0.07187   0.00326   0.13140   0.00000  Uiso   1.00
H77    H     0.31790   0.22323   0.51668   0.00000  Uiso   1.00
H78    H     0.50336   0.24552   0.59749   0.00000  Uiso   1.00
H79    H     0.28768   0.23916   0.67026   0.00000  Uiso   1.00
H80    H     0.15439   0.19913   0.27127   0.00000  Uiso   1.00
H81    H     0.72199   0.24797   0.70454   0.00000  Uiso   1.00
H82    H     0.26718   0.23456   0.85794   0.00000  Uiso   1.00
H83    H     0.98611   0.15015   0.01660   0.00000  Uiso   1.00
O84    O     0.88869   0.18609   0.81756   0.00000  Uiso   1.00
O85    O     0.29199   0.16850   0.01880   0.00000  Uiso   1.00
O86    O     0.92323   0.05776   0.91498   0.00000  Uiso   1.00
N87    N     0.76211   0.13258   0.78121   0.00000  Uiso   1.00
N88    N     0.33691   0.12006   0.92465   0.00000  Uiso   1.00
N89    N     0.07411   0.04114   0.13807   0.00000  Uiso   1.00
N90    N     0.71596   0.21162   0.71943   0.00000  Uiso   1.00
N91    N     0.29076   0.19910   0.86287   0.00000  Uiso   1.00
N92    N     0.02796   0.12018   0.07629   0.00000  Uiso   1.00
C93    C     0.81806   0.06856   0.42926   0.00000  Uiso   1.00
C94    C     0.72407   0.09047   0.40670   0.00000  Uiso   1.00
C95    C     0.62432   0.06735   0.33723   0.00000  Uiso   1.00
C96    C     0.54906   0.09359   0.32768   0.00000  Uiso   1.00
C97    C     0.39948   0.12037   0.28379   0.00000  Uiso   1.00
C98    C     0.84435   0.10755   0.37547   0.00000  Uiso   1.00
C99    C     0.84575   0.09879   0.27975   0.00000  Uiso   1.00
C100   C     0.87177   0.13941   0.24393   0.00000  Uiso   1.00
C101   C     0.90901   0.19270   0.15163   0.00000  Uiso   1.00
C102   C     0.91573   0.06777   0.57864   0.00000  Uiso   1.00
C103   C     0.97717   0.02556   0.65376   0.00000  Uiso   1.00
C104   C     0.06330   0.03268   0.78900   0.00000  Uiso   1.00
C105   C     0.21136   0.02420   0.01215   0.00000  Uiso   1.00
C106   C     0.86179   0.15626   0.53586   0.00000  Uiso   1.00
C107   C     0.74782   0.13811   0.46460   0.00000  Uiso   1.00
C108   C     0.67270   0.16438   0.45516   0.00000  Uiso   1.00
C109   C     0.57285   0.14131   0.38569   0.00000  Uiso   1.00
C110   C     0.86810   0.15519   0.43336   0.00000  Uiso   1.00
C111   C     0.89413   0.19582   0.39769   0.00000  Uiso   1.00
C112   C     0.89556   0.18713   0.30193   0.00000  Uiso   1.00
C113   C     0.93948   0.11540   0.63655   0.00000  Uiso   1.00
C114   C     0.02554   0.12259   0.77169   0.00000  Uiso   1.00
C115   C     0.08709   0.08040   0.84700   0.00000  Uiso   1.00
H116   H     0.79957   0.03148   0.38418   0.00000  Uiso   1.00
H117   H     0.60596   0.03049   0.29243   0.00000  Uiso   1.00
H118   H     0.82738   0.06192   0.23498   0.00000  Uiso   1.00
H119   H     0.95876   0.98870   0.60892   0.00000  Uiso   1.00
H120   H     0.40177   0.05041   0.21619   0.00000  Uiso   1.00
H121   H     0.86867   0.11669   0.09508   0.00000  Uiso   1.00
H122   H     0.14573   0.96228   0.88362   0.00000  Uiso   1.00
H123   H     0.88028   0.19335   0.58093   0.00000  Uiso   1.00
H124   H     0.69110   0.20125   0.49998   0.00000  Uiso   1.00
H125   H     0.91251   0.23268   0.44252   0.00000  Uiso   1.00
H126   H     0.04390   0.15946   0.81646   0.00000  Uiso   1.00
H127   H     0.47087   0.18900   0.38464   0.00000  Uiso   1.00
H128   H     0.93777   0.25528   0.26353   0.00000  Uiso   1.00
H129   H     0.21483   0.10088   0.05207   0.00000  Uiso   1.00
O130   O     0.31040   0.12199   0.24357   0.00000  Uiso   1.00
O131   O     0.92298   0.20893   0.08470   0.00000  Uiso   1.00
O132   O     0.28646   0.00636   0.11924   0.00000  Uiso   1.00
N133   N     0.44400   0.08194   0.26697   0.00000  Uiso   1.00
N134   N     0.88051   0.14391   0.15372   0.00000  Uiso   1.00
N135   N     0.13955   0.99956   0.89094   0.00000  Uiso   1.00
N136   N     0.48119   0.15652   0.35761   0.00000  Uiso   1.00
N137   N     0.91769   0.21848   0.24436   0.00000  Uiso   1.00
N138   N     0.17674   0.07413   0.98158   0.00000  Uiso   1.00
C139   C     0.60488   0.59097   0.87996   0.00000  Uiso   1.00
C140   C     0.51502   0.62175   0.85066   0.00000  Uiso   1.00
C141   C     0.41376   0.60361   0.79159   0.00000  Uiso   1.00
C142   C     0.34292   0.63778   0.77336   0.00000  Uiso   1.00
C143   C     0.19890   0.67790   0.72180   0.00000  Uiso   1.00
C144   C     0.63219   0.61830   0.81110   0.00000  Uiso   1.00
C145   C     0.62946   0.59725   0.71879   0.00000  Uiso   1.00
C146   C     0.65727   0.62852   0.66728   0.00000  Uiso   1.00
C147   C     0.69523   0.66328   0.55438   0.00000  Uiso   1.00
C148   C     0.70460   0.59655   0.02788   0.00000  Uiso   1.00
C149   C     0.76278   0.55722   0.11785   0.00000  Uiso   1.00
C150   C     0.85158   0.57017   0.24885   0.00000  Uiso   1.00
C151   C     0.00197   0.57116   0.47253   0.00000  Uiso   1.00
C152   C     0.65915   0.68392   0.95260   0.00000  Uiso   1.00
C153   C     0.54450   0.67224   0.89011   0.00000  Uiso   1.00
C154   C     0.47380   0.70645   0.87197   0.00000  Uiso   1.00
C155   C     0.37246   0.68836   0.81289   0.00000  Uiso   1.00
C156   C     0.66167   0.66879   0.85056   0.00000  Uiso   1.00
C157   C     0.68950   0.70009   0.79917   0.00000  Uiso   1.00
C158   C     0.68681   0.67910   0.70681   0.00000  Uiso   1.00
C159   C     0.73408   0.64704   0.06735   0.00000  Uiso   1.00
C160   C     0.82282   0.66006   0.19822   0.00000  Uiso   1.00
C161   C     0.88111   0.62075   0.28837   0.00000  Uiso   1.00
H162   H     0.58193   0.55166   0.84923   0.00000  Uiso   1.00
H163   H     0.39097   0.56453   0.76106   0.00000  Uiso   1.00
H164   H     0.60665   0.55818   0.68829   0.00000  Uiso   1.00
H165   H     0.73994   0.51815   0.08728   0.00000  Uiso   1.00
H166   H     0.19225   0.60107   0.68066   0.00000  Uiso   1.00
H167   H     0.64705   0.58767   0.52725   0.00000  Uiso   1.00
H168   H     0.92813   0.50326   0.36860   0.00000  Uiso   1.00
H169   H     0.68210   0.72323   0.98332   0.00000  Uiso   1.00
H170   H     0.49664   0.74552   0.90251   0.00000  Uiso   1.00
H171   H     0.71232   0.73916   0.82974   0.00000  Uiso   1.00
H172   H     0.84561   0.69913   0.22873   0.00000  Uiso   1.00
H173   H     0.27801   0.74797   0.79546   0.00000  Uiso   1.00
H174   H     0.73282   0.73456   0.64206   0.00000  Uiso   1.00
H175   H     0.01389   0.65015   0.48340   0.00000  Uiso   1.00
O176   O     0.11131   0.68609   0.68244   0.00000  Uiso   1.00
O177   O     0.70801   0.66850   0.48120   0.00000  Uiso   1.00
O178   O     0.07677   0.55776   0.58502   0.00000  Uiso   1.00
N179   N     0.23789   0.63258   0.71879   0.00000  Uiso   1.00
N180   N     0.66309   0.62006   0.57535   0.00000  Uiso   1.00
N181   N     0.92589   0.54114   0.36193   0.00000  Uiso   1.00
N182   N     0.28404   0.71162   0.78057   0.00000  Uiso   1.00
N183   N     0.70924   0.69910   0.63713   0.00000  Uiso   1.00
N184   N     0.97204   0.62018   0.42371   0.00000  Uiso   1.00
C185   C     0.81806   0.43144   0.92926   0.00000  Uiso   1.00
C186   C     0.72407   0.40953   0.90670   0.00000  Uiso   1.00
C187   C     0.62432   0.43265   0.83723   0.00000  Uiso   1.00
C188   C     0.54906   0.40641   0.82768   0.00000  Uiso   1.00
C189   C     0.39948   0.37963   0.78379   0.00000  Uiso   1.00
C190   C     0.84435   0.39245   0.87547   0.00000  Uiso   1.00
C191   C     0.84575   0.40121   0.77975   0.00000  Uiso   1.00
C192   C     0.87177   0.36059   0.74393   0.00000  Uiso   1.00
C193   C     0.90901   0.30730   0.65163   0.00000  Uiso   1.00
C194   C     0.91573   0.43223   0.07864   0.00000  Uiso   1.00
C195   C     0.97717   0.47444   0.15376   0.00000  Uiso   1.00
C196   C     0.06330   0.46732   0.28900   0.00000  Uiso   1.00
C197   C     0.21136   0.47580   0.51215   0.00000  Uiso   1.00
C198   C     0.86179   0.34374   0.03586   0.00000  Uiso   1.00
C199   C     0.74782   0.36189   0.96460   0.00000  Uiso   1.00
C200   C     0.67270   0.33562   0.95516   0.00000  Uiso   1.00
C201   C     0.57285   0.35869   0.88569   0.00000  Uiso   1.00
C202   C     0.86810   0.34481   0.93336   0.00000  Uiso   1.00
C203   C     0.89413   0.30418   0.89769   0.00000  Uiso   1.00
C204   C     0.89556   0.31287   0.80193   0.00000  Uiso   1.00
C205   C     0.93948   0.38460   0.13655   0.00000  Uiso   1.00
C206   C     0.02554   0.37741   0.27169   0.00000  Uiso   1.00
C207   C     0.08709   0.41960   0.34700   0.00000  Uiso   1.00
H208   H     0.79957   0.46852   0.88418   0.00000  Uiso   1.00
H209   H     0.60596   0.46951   0.79243   0.00000  Uiso   1.00
H210   H     0.82738   0.43808   0.73498   0.00000  Uiso   1.00
H211   H     0.95876   0.51130   0.10892   0.00000  Uiso   1.00
H212   H     0.40177   0.44959   0.71619   0.00000  Uiso   1.00
H213   H     0.86867   0.38331   0.59508   0.00000  Uiso   1.00
H214   H     0.14573   0.53772   0.38362   0.00000  Uiso   1.00
H215   H     0.88028   0.30665   0.08093   0.00000  Uiso   1.00
H216   H     0.69110   0.29875   0.99998   0.00000  Uiso   1.00
H217   H     0.91251   0.26732   0.94252   0.00000  Uiso   1.00
H218   H     0.04390   0.34054   0.31646   0.00000  Uiso   1.00
H219   H     0.47087   0.31100   0.88464   0.00000  Uiso   1.00
H220   H     0.93777   0.24472   0.76353   0.00000  Uiso   1.00
H221   H     0.21483   0.39912   0.55207   0.00000  Uiso   1.00
O222   O     0.31040   0.37801   0.74357   0.00000  Uiso   1.00
O223   O     0.92298   0.29107   0.58470   0.00000  Uiso   1.00
O224   O     0.28646   0.49364   0.61924   0.00000  Uiso   1.00
N225   N     0.44400   0.41806   0.76697   0.00000  Uiso   1.00
N226   N     0.88051   0.35609   0.65372   0.00000  Uiso   1.00
N227   N     0.13955   0.50044   0.39094   0.00000  Uiso   1.00
N228   N     0.48119   0.34348   0.85761   0.00000  Uiso   1.00
N229   N     0.91769   0.28152   0.74436   0.00000  Uiso   1.00
N230   N     0.17674   0.42587   0.48158   0.00000  Uiso   1.00
C231   C     0.60488   0.90903   0.37996   0.00000  Uiso   1.00
C232   C     0.51502   0.87825   0.35066   0.00000  Uiso   1.00
C233   C     0.41376   0.89639   0.29159   0.00000  Uiso   1.00
C234   C     0.34292   0.86222   0.27336   0.00000  Uiso   1.00
C235   C     0.19890   0.82210   0.22180   0.00000  Uiso   1.00
C236   C     0.63219   0.88170   0.31110   0.00000  Uiso   1.00
C237   C     0.62946   0.90275   0.21879   0.00000  Uiso   1.00
C238   C     0.65727   0.87148   0.16728   0.00000  Uiso   1.00
C239   C     0.69523   0.83672   0.05438   0.00000  Uiso   1.00
C240   C     0.70460   0.90345   0.52788   0.00000  Uiso   1.00
C241   C     0.76278   0.94278   0.61785   0.00000  Uiso   1.00
C242   C     0.85158   0.92983   0.74885   0.00000  Uiso   1.00
C243   C     0.00197   0.92884   0.97253   0.00000  Uiso   1.00
C244   C     0.65915   0.81608   0.45260   0.00000  Uiso   1.00
C245   C     0.54450   0.82776   0.39011   0.00000  Uiso   1.00
C246   C     0.47380   0.79355   0.37197   0.00000  Uiso   1.00
C247   C     0.37246   0.81164   0.31289   0.00000  Uiso   1.00
C248   C     0.66167   0.83121   0.35056   0.00000  Uiso   1.00
C249   C     0.68950   0.79991   0.29917   0.00000  Uiso   1.00
C250   C     0.68681   0.82090   0.20681   0.00000  Uiso   1.00
C251   C     0.73408   0.85296   0.56735   0.00000  Uiso   1.00
C252   C     0.82282   0.83994   0.69822   0.00000  Uiso   1.00
C253   C     0.88111   0.87925   0.78837   0.00000  Uiso   1.00
H254   H     0.58193   0.94834   0.34923   0.00000  Uiso   1.00
H255   H     0.39097   0.93547   0.26106   0.00000  Uiso   1.00
H256   H     0.60665   0.94182   0.18829   0.00000  Uiso   1.00
H257   H     0.73994   0.98185   0.58728   0.00000  Uiso   1.00
H258   H     0.19225   0.89893   0.18066   0.00000  Uiso   1.00
H259   H     0.64705   0.91233   0.02725   0.00000  Uiso   1.00
H260   H     0.92813   0.99674   0.86860   0.00000  Uiso   1.00
H261   H     0.68210   0.77677   0.48332   0.00000  Uiso   1.00
H262   H     0.49664   0.75448   0.40251   0.00000  Uiso   1.00
H263   H     0.71232   0.76084   0.32974   0.00000  Uiso   1.00
H264   H     0.84561   0.80087   0.72873   0.00000  Uiso   1.00
H265   H     0.27801   0.75203   0.29546   0.00000  Uiso   1.00
H266   H     0.73282   0.76544   0.14206   0.00000  Uiso   1.00
H267   H     0.01389   0.84985   0.98340   0.00000  Uiso   1.00
O268   O     0.11131   0.81391   0.18244   0.00000  Uiso   1.00
O269   O     0.70801   0.83150   0.98120   0.00000  Uiso   1.00
O270   O     0.07677   0.94224   0.08502   0.00000  Uiso   1.00
N271   N     0.23789   0.86742   0.21879   0.00000  Uiso   1.00
N272   N     0.66309   0.87994   0.07535   0.00000  Uiso   1.00
N273   N     0.92589   0.95886   0.86193   0.00000  Uiso   1.00
N274   N     0.28404   0.78838   0.28057   0.00000  Uiso   1.00
N275   N     0.70924   0.80090   0.13713   0.00000  Uiso   1.00
N276   N     0.97204   0.87982   0.92371   0.00000  Uiso   1.00
C277   C     0.18194   0.93144   0.57074   0.00000  Uiso   1.00
C278   C     0.27593   0.90953   0.59330   0.00000  Uiso   1.00
C279   C     0.37568   0.93265   0.66277   0.00000  Uiso   1.00
C280   C     0.45094   0.90641   0.67232   0.00000  Uiso   1.00
C281   C     0.60052   0.87963   0.71621   0.00000  Uiso   1.00
C282   C     0.15565   0.89245   0.62453   0.00000  Uiso   1.00
C283   C     0.15425   0.90121   0.72025   0.00000  Uiso   1.00
C284   C     0.12823   0.86059   0.75607   0.00000  Uiso   1.00
C285   C     0.09099   0.80730   0.84837   0.00000  Uiso   1.00
C286   C     0.08427   0.93223   0.42136   0.00000  Uiso   1.00
C287   C     0.02283   0.97444   0.34624   0.00000  Uiso   1.00
C288   C     0.93670   0.96732   0.21100   0.00000  Uiso   1.00
C289   C     0.78864   0.97580   0.98785   0.00000  Uiso   1.00
C290   C     0.13821   0.84374   0.46414   0.00000  Uiso   1.00
C291   C     0.25218   0.86189   0.53540   0.00000  Uiso   1.00
C292   C     0.32730   0.83562   0.54484   0.00000  Uiso   1.00
C293   C     0.42715   0.85869   0.61431   0.00000  Uiso   1.00
C294   C     0.13190   0.84481   0.56664   0.00000  Uiso   1.00
C295   C     0.10587   0.80418   0.60231   0.00000  Uiso   1.00
C296   C     0.10444   0.81287   0.69807   0.00000  Uiso   1.00
C297   C     0.06052   0.88460   0.36345   0.00000  Uiso   1.00
C298   C     0.97446   0.87741   0.22831   0.00000  Uiso   1.00
C299   C     0.91291   0.91960   0.15300   0.00000  Uiso   1.00
H300   H     0.20043   0.96852   0.61582   0.00000  Uiso   1.00
H301   H     0.39404   0.96951   0.70757   0.00000  Uiso   1.00
H302   H     0.17262   0.93808   0.76502   0.00000  Uiso   1.00
H303   H     0.04124   0.01130   0.39108   0.00000  Uiso   1.00
H304   H     0.59823   0.94959   0.78381   0.00000  Uiso   1.00
H305   H     0.13133   0.88331   0.90492   0.00000  Uiso   1.00
H306   H     0.85427   0.03772   0.11638   0.00000  Uiso   1.00
H307   H     0.11972   0.80665   0.41907   0.00000  Uiso   1.00
H308   H     0.30890   0.79875   0.50002   0.00000  Uiso   1.00
H309   H     0.08749   0.76732   0.55748   0.00000  Uiso   1.00
H310   H     0.95610   0.84054   0.18354   0.00000  Uiso   1.00
H311   H     0.52913   0.81100   0.61536   0.00000  Uiso   1.00
H312   H     0.06223   0.74472   0.73647   0.00000  Uiso   1.00
H313   H     0.78517   0.89912   0.94793   0.00000  Uiso   1.00
O314   O     0.68960   0.87801   0.75643   0.00000  Uiso   1.00
O315   O     0.07702   0.79107   0.91530   0.00000  Uiso   1.00
O316   O     0.71354   0.99364   0.88076   0.00000  Uiso   1.00
N317   N     0.55600   0.91806   0.73303   0.00000  Uiso   1.00
N318   N     0.11949   0.85609   0.84628   0.00000  Uiso   1.00
N319   N     0.86045   0.00044   0.10906   0.00000  Uiso   1.00
N320   N     0.51881   0.84348   0.64239   0.00000  Uiso   1.00
N321   N     0.08231   0.78152   0.75564   0.00000  Uiso   1.00
N322   N     0.82326   0.92587   0.01842   0.00000  Uiso   1.00
C323   C     0.39512   0.40903   0.12004   0.00000  Uiso   1.00
C324   C     0.48498   0.37825   0.14934   0.00000  Uiso   1.00
C325   C     0.58624   0.39639   0.20841   0.00000  Uiso   1.00
C326   C     0.65708   0.36222   0.22664   0.00000  Uiso   1.00
C327   C     0.80110   0.32210   0.27820   0.00000  Uiso   1.00
C328   C     0.36781   0.38170   0.18890   0.00000  Uiso   1.00
C329   C     0.37054   0.40275   0.28121   0.00000  Uiso   1.00
C330   C     0.34273   0.37148   0.33272   0.00000  Uiso   1.00
C331   C     0.30477   0.33672   0.44562   0.00000  Uiso   1.00
C332   C     0.29540   0.40345   0.97212   0.00000  Uiso   1.00
C333   C     0.23722   0.44278   0.88215   0.00000  Uiso   1.00
C334   C     0.14842   0.42983   0.75115   0.00000  Uiso   1.00
C335   C     0.99803   0.42884   0.52747   0.00000  Uiso   1.00
C336   C     0.34085   0.31608   0.04740   0.00000  Uiso   1.00
C337   C     0.45550   0.32776   0.10989   0.00000  Uiso   1.00
C338   C     0.52620   0.29355   0.12803   0.00000  Uiso   1.00
C339   C     0.62754   0.31164   0.18711   0.00000  Uiso   1.00
C340   C     0.33833   0.33121   0.14944   0.00000  Uiso   1.00
C341   C     0.31050   0.29991   0.20083   0.00000  Uiso   1.00
C342   C     0.31319   0.32090   0.29319   0.00000  Uiso   1.00
C343   C     0.26592   0.35296   0.93265   0.00000  Uiso   1.00
C344   C     0.17718   0.33994   0.80178   0.00000  Uiso   1.00
C345   C     0.11889   0.37925   0.71163   0.00000  Uiso   1.00
H346   H     0.41807   0.44834   0.15077   0.00000  Uiso   1.00
H347   H     0.60903   0.43547   0.23894   0.00000  Uiso   1.00
H348   H     0.39335   0.44182   0.31171   0.00000  Uiso   1.00
H349   H     0.26006   0.48185   0.91272   0.00000  Uiso   1.00
H350   H     0.80775   0.39893   0.31934   0.00000  Uiso   1.00
H351   H     0.35295   0.41233   0.47275   0.00000  Uiso   1.00
H352   H     0.07187   0.49674   0.63140   0.00000  Uiso   1.00
H353   H     0.31790   0.27677   0.01668   0.00000  Uiso   1.00
H354   H     0.50336   0.25448   0.09749   0.00000  Uiso   1.00
H355   H     0.28768   0.26084   0.17026   0.00000  Uiso   1.00
H356   H     0.15439   0.30087   0.77127   0.00000  Uiso   1.00
H357   H     0.72199   0.25203   0.20454   0.00000  Uiso   1.00
H358   H     0.26718   0.26544   0.35794   0.00000  Uiso   1.00
H359   H     0.98611   0.34985   0.51660   0.00000  Uiso   1.00
O360   O     0.88869   0.31391   0.31756   0.00000  Uiso   1.00
O361   O     0.29199   0.33150   0.51880   0.00000  Uiso   1.00
O362   O     0.92323   0.44224   0.41498   0.00000  Uiso   1.00
N363   N     0.76211   0.36742   0.28121   0.00000  Uiso   1.00
N364   N     0.33691   0.37994   0.42465   0.00000  Uiso   1.00
N365   N     0.07411   0.45886   0.63807   0.00000  Uiso   1.00
N366   N     0.71596   0.28838   0.21943   0.00000  Uiso   1.00
N367   N     0.29076   0.30090   0.36287   0.00000  Uiso   1.00
N368   N     0.02796   0.37982   0.57629   0.00000  Uiso   1.00
