data_job_05787
_audit_creation_date              2018-12-19
_audit_creation_method            'Materials Studio'
_symmetry_space_group_name_H-M    'P1'
_symmetry_Int_Tables_number       1
_symmetry_cell_setting            triclinic
loop_
_symmetry_equiv_pos_as_xyz
  x,y,z
_cell_length_a                    21.3949
_cell_length_b                    11.6869
_cell_length_c                    10.4269
_cell_angle_alpha                 90.0000
_cell_angle_beta                  90.0000
_cell_angle_gamma                 90.0000
loop_
_atom_site_label
_atom_site_type_symbol
_atom_site_fract_x
_atom_site_fract_y
_atom_site_fract_z
_atom_site_U_iso_or_equiv
_atom_site_adp_type
_atom_site_occupancy
C1     C     0.56671   0.86418   0.34480   0.00000  Uiso   1.00
C2     C     0.53906   0.79512   0.45516   0.00000  Uiso   1.00
C3     C     0.47705   0.79689   0.49415   0.00000  Uiso   1.00
C4     C     0.46104   0.72756   0.59716   0.00000  Uiso   1.00
C5     C     0.41135   0.63081   0.75918   0.00000  Uiso   1.00
C6     C     0.62023   0.93348   0.40220   0.00000  Uiso   1.00
C7     C     0.62646   0.05158   0.39665   0.00000  Uiso   1.00
C8     C     0.67879   0.09871   0.45506   0.00000  Uiso   1.00
C9     C     0.75514   0.21676   0.53478   0.00000  Uiso   1.00
C10    C     0.59692   0.77739   0.25490   0.00000  Uiso   1.00
C11    C     0.58358   0.76427   0.12548   0.00000  Uiso   1.00
C12    C     0.61630   0.68000   0.05987   0.00000  Uiso   1.00
C13    C     0.65647   0.55571   0.91088   0.00000  Uiso   1.00
C14    C     0.64855   0.73789   0.45841   0.00000  Uiso   1.00
C15    C     0.58351   0.72653   0.51687   0.00000  Uiso   1.00
C16    C     0.56759   0.65717   0.61985   0.00000  Uiso   1.00
C17    C     0.50557   0.65883   0.65898   0.00000  Uiso   1.00
C18    C     0.66468   0.86489   0.46391   0.00000  Uiso   1.00
C19    C     0.71701   0.91185   0.52234   0.00000  Uiso   1.00
C20    C     0.72333   0.02999   0.51688   0.00000  Uiso   1.00
C21    C     0.64138   0.70880   0.31661   0.00000  Uiso   1.00
C22    C     0.67413   0.62454   0.25119   0.00000  Uiso   1.00
C23    C     0.66083   0.61129   0.12169   0.00000  Uiso   1.00
H24    H     0.53210   0.91759   0.29676   0.00000  Uiso   1.00
H25    H     0.44266   0.85000   0.44638   0.00000  Uiso   1.00
H26    H     0.59206   0.10464   0.34888   0.00000  Uiso   1.00
H27    H     0.54918   0.81737   0.07776   0.00000  Uiso   1.00
H28    H     0.36310   0.74485   0.63950   0.00000  Uiso   1.00
H29    H     0.67813   0.28177   0.43387   0.00000  Uiso   1.00
H30    H     0.58771   0.67601   0.86217   0.00000  Uiso   1.00
H31    H     0.68316   0.68448   0.50646   0.00000  Uiso   1.00
H32    H     0.60200   0.60410   0.66758   0.00000  Uiso   1.00
H33    H     0.75140   0.85874   0.57008   0.00000  Uiso   1.00
H34    H     0.70852   0.57147   0.29897   0.00000  Uiso   1.00
H35    H     0.49243   0.54527   0.81904   0.00000  Uiso   1.00
H36    H     0.80747   0.08219   0.61341   0.00000  Uiso   1.00
H37    H     0.71704   0.47643   0.04172   0.00000  Uiso   1.00
O38    O     0.37166   0.59641   0.83151   0.00000  Uiso   1.00
O39    O     0.78497   0.30083   0.56171   0.00000  Uiso   1.00
O40    O     0.66634   0.50608   0.81166   0.00000  Uiso   1.00
N41    N     0.40468   0.70889   0.65962   0.00000  Uiso   1.00
N42    N     0.69921   0.21088   0.46740   0.00000  Uiso   1.00
N43    N     0.61468   0.64457   0.93289   0.00000  Uiso   1.00
N44    N     0.47427   0.60149   0.75623   0.00000  Uiso   1.00
N45    N     0.76880   0.10349   0.56401   0.00000  Uiso   1.00
N46    N     0.68427   0.53717   0.02950   0.00000  Uiso   1.00
C47    C     0.43329   0.13582   0.84480   0.00000  Uiso   1.00
C48    C     0.46094   0.20488   0.95516   0.00000  Uiso   1.00
C49    C     0.52295   0.20311   0.99415   0.00000  Uiso   1.00
C50    C     0.53896   0.27244   0.09716   0.00000  Uiso   1.00
C51    C     0.58865   0.36919   0.25918   0.00000  Uiso   1.00
C52    C     0.37977   0.06652   0.90220   0.00000  Uiso   1.00
C53    C     0.37354   0.94842   0.89665   0.00000  Uiso   1.00
C54    C     0.32121   0.90129   0.95506   0.00000  Uiso   1.00
C55    C     0.24486   0.78324   0.03478   0.00000  Uiso   1.00
C56    C     0.40308   0.22261   0.75490   0.00000  Uiso   1.00
C57    C     0.41642   0.23573   0.62548   0.00000  Uiso   1.00
C58    C     0.38370   0.32000   0.55987   0.00000  Uiso   1.00
C59    C     0.34353   0.44429   0.41088   0.00000  Uiso   1.00
C60    C     0.35145   0.26211   0.95841   0.00000  Uiso   1.00
C61    C     0.41649   0.27347   0.01687   0.00000  Uiso   1.00
C62    C     0.43241   0.34283   0.11985   0.00000  Uiso   1.00
C63    C     0.49443   0.34117   0.15898   0.00000  Uiso   1.00
C64    C     0.33532   0.13511   0.96391   0.00000  Uiso   1.00
C65    C     0.28299   0.08815   0.02234   0.00000  Uiso   1.00
C66    C     0.27667   0.97001   0.01688   0.00000  Uiso   1.00
C67    C     0.35862   0.29120   0.81661   0.00000  Uiso   1.00
C68    C     0.32587   0.37546   0.75119   0.00000  Uiso   1.00
C69    C     0.33917   0.38871   0.62169   0.00000  Uiso   1.00
H70    H     0.46790   0.08241   0.79676   0.00000  Uiso   1.00
H71    H     0.55734   0.15000   0.94638   0.00000  Uiso   1.00
H72    H     0.40794   0.89536   0.84888   0.00000  Uiso   1.00
H73    H     0.45082   0.18263   0.57776   0.00000  Uiso   1.00
H74    H     0.63690   0.25515   0.13950   0.00000  Uiso   1.00
H75    H     0.32187   0.71823   0.93387   0.00000  Uiso   1.00
H76    H     0.41229   0.32399   0.36217   0.00000  Uiso   1.00
H77    H     0.31684   0.31552   0.00646   0.00000  Uiso   1.00
H78    H     0.39800   0.39590   0.16758   0.00000  Uiso   1.00
H79    H     0.24860   0.14126   0.07008   0.00000  Uiso   1.00
H80    H     0.29148   0.42853   0.79897   0.00000  Uiso   1.00
H81    H     0.50757   0.45473   0.31904   0.00000  Uiso   1.00
H82    H     0.19253   0.91781   0.11341   0.00000  Uiso   1.00
H83    H     0.28296   0.52357   0.54172   0.00000  Uiso   1.00
O84    O     0.62834   0.40359   0.33151   0.00000  Uiso   1.00
O85    O     0.21503   0.69917   0.06171   0.00000  Uiso   1.00
O86    O     0.33366   0.49392   0.31166   0.00000  Uiso   1.00
N87    N     0.59532   0.29111   0.15962   0.00000  Uiso   1.00
N88    N     0.30079   0.78912   0.96740   0.00000  Uiso   1.00
N89    N     0.38532   0.35543   0.43289   0.00000  Uiso   1.00
N90    N     0.52573   0.39851   0.25623   0.00000  Uiso   1.00
N91    N     0.23120   0.89651   0.06401   0.00000  Uiso   1.00
N92    N     0.31573   0.46283   0.52950   0.00000  Uiso   1.00
C93    C     0.06671   0.13582   0.34480   0.00000  Uiso   1.00
C94    C     0.03906   0.20488   0.45516   0.00000  Uiso   1.00
C95    C     0.97705   0.20311   0.49415   0.00000  Uiso   1.00
C96    C     0.96104   0.27244   0.59716   0.00000  Uiso   1.00
C97    C     0.91135   0.36919   0.75918   0.00000  Uiso   1.00
C98    C     0.12023   0.06652   0.40220   0.00000  Uiso   1.00
C99    C     0.12646   0.94842   0.39665   0.00000  Uiso   1.00
C100   C     0.17879   0.90129   0.45506   0.00000  Uiso   1.00
C101   C     0.25514   0.78324   0.53478   0.00000  Uiso   1.00
C102   C     0.09692   0.22261   0.25490   0.00000  Uiso   1.00
C103   C     0.08358   0.23573   0.12548   0.00000  Uiso   1.00
C104   C     0.11630   0.32000   0.05987   0.00000  Uiso   1.00
C105   C     0.15647   0.44429   0.91088   0.00000  Uiso   1.00
C106   C     0.14855   0.26211   0.45841   0.00000  Uiso   1.00
C107   C     0.08351   0.27347   0.51687   0.00000  Uiso   1.00
C108   C     0.06759   0.34283   0.61985   0.00000  Uiso   1.00
C109   C     0.00557   0.34117   0.65898   0.00000  Uiso   1.00
C110   C     0.16468   0.13511   0.46391   0.00000  Uiso   1.00
C111   C     0.21701   0.08815   0.52234   0.00000  Uiso   1.00
C112   C     0.22333   0.97001   0.51688   0.00000  Uiso   1.00
C113   C     0.14138   0.29120   0.31661   0.00000  Uiso   1.00
C114   C     0.17413   0.37546   0.25119   0.00000  Uiso   1.00
C115   C     0.16083   0.38871   0.12169   0.00000  Uiso   1.00
H116   H     0.03210   0.08241   0.29676   0.00000  Uiso   1.00
H117   H     0.94266   0.15000   0.44638   0.00000  Uiso   1.00
H118   H     0.09206   0.89536   0.34888   0.00000  Uiso   1.00
H119   H     0.04918   0.18263   0.07776   0.00000  Uiso   1.00
H120   H     0.86310   0.25515   0.63950   0.00000  Uiso   1.00
H121   H     0.17813   0.71823   0.43387   0.00000  Uiso   1.00
H122   H     0.08771   0.32399   0.86217   0.00000  Uiso   1.00
H123   H     0.18316   0.31552   0.50646   0.00000  Uiso   1.00
H124   H     0.10200   0.39590   0.66758   0.00000  Uiso   1.00
H125   H     0.25140   0.14126   0.57008   0.00000  Uiso   1.00
H126   H     0.20852   0.42853   0.29897   0.00000  Uiso   1.00
H127   H     0.99243   0.45473   0.81904   0.00000  Uiso   1.00
H128   H     0.30747   0.91781   0.61341   0.00000  Uiso   1.00
H129   H     0.21704   0.52357   0.04172   0.00000  Uiso   1.00
O130   O     0.87166   0.40359   0.83151   0.00000  Uiso   1.00
O131   O     0.28497   0.69917   0.56171   0.00000  Uiso   1.00
O132   O     0.16634   0.49392   0.81166   0.00000  Uiso   1.00
N133   N     0.90468   0.29111   0.65962   0.00000  Uiso   1.00
N134   N     0.19921   0.78912   0.46740   0.00000  Uiso   1.00
N135   N     0.11468   0.35543   0.93289   0.00000  Uiso   1.00
N136   N     0.97427   0.39851   0.75623   0.00000  Uiso   1.00
N137   N     0.26880   0.89651   0.56401   0.00000  Uiso   1.00
N138   N     0.18427   0.46283   0.02950   0.00000  Uiso   1.00
C139   C     0.93329   0.86418   0.84480   0.00000  Uiso   1.00
C140   C     0.96094   0.79512   0.95516   0.00000  Uiso   1.00
C141   C     0.02295   0.79689   0.99415   0.00000  Uiso   1.00
C142   C     0.03896   0.72756   0.09716   0.00000  Uiso   1.00
C143   C     0.08865   0.63081   0.25918   0.00000  Uiso   1.00
C144   C     0.87977   0.93348   0.90220   0.00000  Uiso   1.00
C145   C     0.87354   0.05158   0.89665   0.00000  Uiso   1.00
C146   C     0.82121   0.09871   0.95506   0.00000  Uiso   1.00
C147   C     0.74486   0.21676   0.03478   0.00000  Uiso   1.00
C148   C     0.90308   0.77739   0.75490   0.00000  Uiso   1.00
C149   C     0.91642   0.76427   0.62548   0.00000  Uiso   1.00
C150   C     0.88370   0.68000   0.55987   0.00000  Uiso   1.00
C151   C     0.84353   0.55571   0.41088   0.00000  Uiso   1.00
C152   C     0.85145   0.73789   0.95841   0.00000  Uiso   1.00
C153   C     0.91649   0.72653   0.01687   0.00000  Uiso   1.00
C154   C     0.93241   0.65717   0.11985   0.00000  Uiso   1.00
C155   C     0.99443   0.65883   0.15898   0.00000  Uiso   1.00
C156   C     0.83532   0.86489   0.96391   0.00000  Uiso   1.00
C157   C     0.78299   0.91185   0.02234   0.00000  Uiso   1.00
C158   C     0.77667   0.02999   0.01688   0.00000  Uiso   1.00
C159   C     0.85862   0.70880   0.81661   0.00000  Uiso   1.00
C160   C     0.82587   0.62454   0.75119   0.00000  Uiso   1.00
C161   C     0.83917   0.61129   0.62169   0.00000  Uiso   1.00
H162   H     0.96790   0.91759   0.79676   0.00000  Uiso   1.00
H163   H     0.05734   0.85000   0.94638   0.00000  Uiso   1.00
H164   H     0.90794   0.10464   0.84888   0.00000  Uiso   1.00
H165   H     0.95082   0.81737   0.57776   0.00000  Uiso   1.00
H166   H     0.13690   0.74485   0.13950   0.00000  Uiso   1.00
H167   H     0.82187   0.28177   0.93387   0.00000  Uiso   1.00
H168   H     0.91229   0.67601   0.36217   0.00000  Uiso   1.00
H169   H     0.81684   0.68448   0.00646   0.00000  Uiso   1.00
H170   H     0.89800   0.60410   0.16758   0.00000  Uiso   1.00
H171   H     0.74860   0.85874   0.07008   0.00000  Uiso   1.00
H172   H     0.79148   0.57147   0.79897   0.00000  Uiso   1.00
H173   H     0.00757   0.54527   0.31904   0.00000  Uiso   1.00
H174   H     0.69253   0.08219   0.11341   0.00000  Uiso   1.00
H175   H     0.78296   0.47643   0.54172   0.00000  Uiso   1.00
O176   O     0.12834   0.59641   0.33151   0.00000  Uiso   1.00
O177   O     0.71503   0.30083   0.06171   0.00000  Uiso   1.00
O178   O     0.83366   0.50608   0.31166   0.00000  Uiso   1.00
N179   N     0.09532   0.70889   0.15962   0.00000  Uiso   1.00
N180   N     0.80079   0.21088   0.96740   0.00000  Uiso   1.00
N181   N     0.88532   0.64457   0.43289   0.00000  Uiso   1.00
N182   N     0.02573   0.60149   0.25623   0.00000  Uiso   1.00
N183   N     0.73120   0.10349   0.06401   0.00000  Uiso   1.00
N184   N     0.81573   0.53717   0.52950   0.00000  Uiso   1.00
