data_job_05026
_audit_creation_date              2018-12-19
_audit_creation_method            'Materials Studio'
_symmetry_space_group_name_H-M    'P1'
_symmetry_Int_Tables_number       1
_symmetry_cell_setting            triclinic
loop_
_symmetry_equiv_pos_as_xyz
  x,y,z
_cell_length_a                    14.4385
_cell_length_b                    20.5679
_cell_length_c                    20.9405
_cell_angle_alpha                 90.0000
_cell_angle_beta                  90.0000
_cell_angle_gamma                 90.0000
loop_
_atom_site_label
_atom_site_type_symbol
_atom_site_fract_x
_atom_site_fract_y
_atom_site_fract_z
_atom_site_U_iso_or_equiv
_atom_site_adp_type
_atom_site_occupancy
C1     C     0.95115   0.17654   0.04676   0.00000  Uiso   1.00
C2     C     0.94880   0.14408   0.11221   0.00000  Uiso   1.00
C3     C     0.87589   0.10787   0.13671   0.00000  Uiso   1.00
C4     C     0.88720   0.08223   0.19754   0.00000  Uiso   1.00
C5     C     0.87117   0.03030   0.29386   0.00000  Uiso   1.00
C6     C     0.97030   0.24837   0.05907   0.00000  Uiso   1.00
C7     C     0.91547   0.29984   0.03888   0.00000  Uiso   1.00
C8     C     0.94490   0.36198   0.05497   0.00000  Uiso   1.00
C9     C     0.96228   0.47196   0.06875   0.00000  Uiso   1.00
C10    C     0.03695   0.15010   0.01318   0.00000  Uiso   1.00
C11    C     0.03818   0.11895   0.95440   0.00000  Uiso   1.00
C12    C     0.12373   0.09837   0.93185   0.00000  Uiso   1.00
C13    C     0.24460   0.05576   0.87437   0.00000  Uiso   1.00
C14    C     0.10089   0.19539   0.11124   0.00000  Uiso   1.00
C15    C     0.03013   0.15432   0.14723   0.00000  Uiso   1.00
C16    C     0.04156   0.12872   0.20804   0.00000  Uiso   1.00
C17    C     0.96868   0.09248   0.23263   0.00000  Uiso   1.00
C18    C     0.05163   0.25861   0.09409   0.00000  Uiso   1.00
C19    C     0.08115   0.32069   0.11022   0.00000  Uiso   1.00
C20    C     0.02638   0.37224   0.09006   0.00000  Uiso   1.00
C21    C     0.11829   0.16033   0.04820   0.00000  Uiso   1.00
C22    C     0.20385   0.13980   0.02574   0.00000  Uiso   1.00
C23    C     0.20521   0.10863   0.96693   0.00000  Uiso   1.00
H24    H     0.88783   0.16858   0.01950   0.00000  Uiso   1.00
H25    H     0.81295   0.09997   0.10959   0.00000  Uiso   1.00
H26    H     0.85254   0.29190   0.01177   0.00000  Uiso   1.00
H27    H     0.97523   0.11104   0.92731   0.00000  Uiso   1.00
H28    H     0.76580   0.02844   0.22494   0.00000  Uiso   1.00
H29    H     0.84929   0.43314   0.01866   0.00000  Uiso   1.00
H30    H     0.10800   0.05176   0.84055   0.00000  Uiso   1.00
H31    H     0.16421   0.20336   0.13850   0.00000  Uiso   1.00
H32    H     0.10451   0.13665   0.23513   0.00000  Uiso   1.00
H33    H     0.14409   0.32859   0.13731   0.00000  Uiso   1.00
H34    H     0.26678   0.14773   0.05285   0.00000  Uiso   1.00
H35    H     0.00244   0.05821   0.32683   0.00000  Uiso   1.00
H36    H     0.08592   0.46292   0.12055   0.00000  Uiso   1.00
H37    H     0.34463   0.08154   0.94244   0.00000  Uiso   1.00
O38    O     0.83985   0.99883   0.33731   0.00000  Uiso   1.00
O39    O     0.94939   0.52979   0.06668   0.00000  Uiso   1.00
O40    O     0.28880   0.02943   0.83300   0.00000  Uiso   1.00
N41    N     0.82970   0.04459   0.23565   0.00000  Uiso   1.00
N42    N     0.90774   0.42296   0.04281   0.00000  Uiso   1.00
N43    N     0.14962   0.06642   0.87628   0.00000  Uiso   1.00
N44    N     0.95703   0.06061   0.29048   0.00000  Uiso   1.00
N45    N     0.03507   0.43898   0.09763   0.00000  Uiso   1.00
N46    N     0.27695   0.08244   0.93110   0.00000  Uiso   1.00
C47    C     0.54885   0.32346   0.04676   0.00000  Uiso   1.00
C48    C     0.55120   0.35592   0.11221   0.00000  Uiso   1.00
C49    C     0.62411   0.39213   0.13671   0.00000  Uiso   1.00
C50    C     0.61280   0.41777   0.19754   0.00000  Uiso   1.00
C51    C     0.62883   0.46970   0.29386   0.00000  Uiso   1.00
C52    C     0.52970   0.25163   0.05907   0.00000  Uiso   1.00
C53    C     0.58453   0.20016   0.03888   0.00000  Uiso   1.00
C54    C     0.55510   0.13802   0.05497   0.00000  Uiso   1.00
C55    C     0.53772   0.02804   0.06875   0.00000  Uiso   1.00
C56    C     0.46305   0.34990   0.01318   0.00000  Uiso   1.00
C57    C     0.46182   0.38105   0.95440   0.00000  Uiso   1.00
C58    C     0.37627   0.40163   0.93185   0.00000  Uiso   1.00
C59    C     0.25540   0.44424   0.87437   0.00000  Uiso   1.00
C60    C     0.39911   0.30461   0.11124   0.00000  Uiso   1.00
C61    C     0.46987   0.34568   0.14723   0.00000  Uiso   1.00
C62    C     0.45844   0.37128   0.20804   0.00000  Uiso   1.00
C63    C     0.53132   0.40752   0.23263   0.00000  Uiso   1.00
C64    C     0.44837   0.24139   0.09409   0.00000  Uiso   1.00
C65    C     0.41885   0.17931   0.11022   0.00000  Uiso   1.00
C66    C     0.47362   0.12776   0.09006   0.00000  Uiso   1.00
C67    C     0.38171   0.33967   0.04820   0.00000  Uiso   1.00
C68    C     0.29615   0.36020   0.02574   0.00000  Uiso   1.00
C69    C     0.29479   0.39137   0.96693   0.00000  Uiso   1.00
H70    H     0.61217   0.33142   0.01950   0.00000  Uiso   1.00
H71    H     0.68705   0.40003   0.10959   0.00000  Uiso   1.00
H72    H     0.64746   0.20810   0.01177   0.00000  Uiso   1.00
H73    H     0.52477   0.38896   0.92731   0.00000  Uiso   1.00
H74    H     0.73420   0.47156   0.22494   0.00000  Uiso   1.00
H75    H     0.65071   0.06686   0.01866   0.00000  Uiso   1.00
H76    H     0.39200   0.44824   0.84055   0.00000  Uiso   1.00
H77    H     0.33579   0.29664   0.13850   0.00000  Uiso   1.00
H78    H     0.39549   0.36335   0.23513   0.00000  Uiso   1.00
H79    H     0.35591   0.17141   0.13731   0.00000  Uiso   1.00
H80    H     0.23322   0.35227   0.05285   0.00000  Uiso   1.00
H81    H     0.49756   0.44179   0.32683   0.00000  Uiso   1.00
H82    H     0.41408   0.03708   0.12055   0.00000  Uiso   1.00
H83    H     0.15537   0.41846   0.94244   0.00000  Uiso   1.00
O84    O     0.66015   0.50117   0.33731   0.00000  Uiso   1.00
O85    O     0.55061   0.97021   0.06668   0.00000  Uiso   1.00
O86    O     0.21120   0.47057   0.83300   0.00000  Uiso   1.00
N87    N     0.67030   0.45541   0.23565   0.00000  Uiso   1.00
N88    N     0.59226   0.07704   0.04281   0.00000  Uiso   1.00
N89    N     0.35038   0.43358   0.87628   0.00000  Uiso   1.00
N90    N     0.54297   0.43939   0.29048   0.00000  Uiso   1.00
N91    N     0.46493   0.06102   0.09763   0.00000  Uiso   1.00
N92    N     0.22305   0.41756   0.93110   0.00000  Uiso   1.00
C93    C     0.04885   0.67654   0.45324   0.00000  Uiso   1.00
C94    C     0.05120   0.64408   0.38779   0.00000  Uiso   1.00
C95    C     0.12411   0.60787   0.36329   0.00000  Uiso   1.00
C96    C     0.11280   0.58223   0.30246   0.00000  Uiso   1.00
C97    C     0.12883   0.53030   0.20614   0.00000  Uiso   1.00
C98    C     0.02970   0.74837   0.44093   0.00000  Uiso   1.00
C99    C     0.08453   0.79984   0.46112   0.00000  Uiso   1.00
C100   C     0.05510   0.86198   0.44503   0.00000  Uiso   1.00
C101   C     0.03772   0.97196   0.43125   0.00000  Uiso   1.00
C102   C     0.96305   0.65010   0.48682   0.00000  Uiso   1.00
C103   C     0.96182   0.61895   0.54560   0.00000  Uiso   1.00
C104   C     0.87627   0.59837   0.56815   0.00000  Uiso   1.00
C105   C     0.75540   0.55576   0.62563   0.00000  Uiso   1.00
C106   C     0.89911   0.69539   0.38876   0.00000  Uiso   1.00
C107   C     0.96987   0.65432   0.35277   0.00000  Uiso   1.00
C108   C     0.95844   0.62872   0.29196   0.00000  Uiso   1.00
C109   C     0.03132   0.59248   0.26737   0.00000  Uiso   1.00
C110   C     0.94837   0.75861   0.40591   0.00000  Uiso   1.00
C111   C     0.91885   0.82069   0.38978   0.00000  Uiso   1.00
C112   C     0.97362   0.87224   0.40994   0.00000  Uiso   1.00
C113   C     0.88171   0.66033   0.45180   0.00000  Uiso   1.00
C114   C     0.79615   0.63980   0.47426   0.00000  Uiso   1.00
C115   C     0.79479   0.60863   0.53307   0.00000  Uiso   1.00
H116   H     0.11217   0.66858   0.48050   0.00000  Uiso   1.00
H117   H     0.18705   0.59997   0.39041   0.00000  Uiso   1.00
H118   H     0.14746   0.79190   0.48823   0.00000  Uiso   1.00
H119   H     0.02477   0.61104   0.57269   0.00000  Uiso   1.00
H120   H     0.23420   0.52844   0.27506   0.00000  Uiso   1.00
H121   H     0.15071   0.93314   0.48134   0.00000  Uiso   1.00
H122   H     0.89200   0.55176   0.65945   0.00000  Uiso   1.00
H123   H     0.83579   0.70336   0.36150   0.00000  Uiso   1.00
H124   H     0.89549   0.63665   0.26487   0.00000  Uiso   1.00
H125   H     0.85591   0.82859   0.36269   0.00000  Uiso   1.00
H126   H     0.73322   0.64773   0.44715   0.00000  Uiso   1.00
H127   H     0.99756   0.55821   0.17317   0.00000  Uiso   1.00
H128   H     0.91408   0.96292   0.37945   0.00000  Uiso   1.00
H129   H     0.65537   0.58154   0.55756   0.00000  Uiso   1.00
O130   O     0.16015   0.49883   0.16269   0.00000  Uiso   1.00
O131   O     0.05061   0.02979   0.43332   0.00000  Uiso   1.00
O132   O     0.71120   0.52943   0.66700   0.00000  Uiso   1.00
N133   N     0.17030   0.54459   0.26435   0.00000  Uiso   1.00
N134   N     0.09226   0.92296   0.45719   0.00000  Uiso   1.00
N135   N     0.85038   0.56642   0.62372   0.00000  Uiso   1.00
N136   N     0.04297   0.56061   0.20952   0.00000  Uiso   1.00
N137   N     0.96493   0.93898   0.40237   0.00000  Uiso   1.00
N138   N     0.72305   0.58244   0.56890   0.00000  Uiso   1.00
C139   C     0.45115   0.82346   0.45324   0.00000  Uiso   1.00
C140   C     0.44880   0.85592   0.38779   0.00000  Uiso   1.00
C141   C     0.37589   0.89213   0.36329   0.00000  Uiso   1.00
C142   C     0.38720   0.91777   0.30246   0.00000  Uiso   1.00
C143   C     0.37117   0.96970   0.20614   0.00000  Uiso   1.00
C144   C     0.47030   0.75163   0.44093   0.00000  Uiso   1.00
C145   C     0.41547   0.70016   0.46112   0.00000  Uiso   1.00
C146   C     0.44490   0.63802   0.44503   0.00000  Uiso   1.00
C147   C     0.46228   0.52804   0.43125   0.00000  Uiso   1.00
C148   C     0.53695   0.84990   0.48682   0.00000  Uiso   1.00
C149   C     0.53818   0.88105   0.54560   0.00000  Uiso   1.00
C150   C     0.62373   0.90163   0.56815   0.00000  Uiso   1.00
C151   C     0.74460   0.94424   0.62563   0.00000  Uiso   1.00
C152   C     0.60089   0.80461   0.38876   0.00000  Uiso   1.00
C153   C     0.53013   0.84568   0.35277   0.00000  Uiso   1.00
C154   C     0.54156   0.87128   0.29196   0.00000  Uiso   1.00
C155   C     0.46868   0.90752   0.26737   0.00000  Uiso   1.00
C156   C     0.55163   0.74139   0.40591   0.00000  Uiso   1.00
C157   C     0.58115   0.67931   0.38978   0.00000  Uiso   1.00
C158   C     0.52638   0.62776   0.40994   0.00000  Uiso   1.00
C159   C     0.61829   0.83967   0.45180   0.00000  Uiso   1.00
C160   C     0.70385   0.86020   0.47426   0.00000  Uiso   1.00
C161   C     0.70521   0.89137   0.53307   0.00000  Uiso   1.00
H162   H     0.38783   0.83142   0.48050   0.00000  Uiso   1.00
H163   H     0.31295   0.90003   0.39041   0.00000  Uiso   1.00
H164   H     0.35254   0.70810   0.48823   0.00000  Uiso   1.00
H165   H     0.47523   0.88896   0.57269   0.00000  Uiso   1.00
H166   H     0.26580   0.97156   0.27506   0.00000  Uiso   1.00
H167   H     0.34929   0.56686   0.48134   0.00000  Uiso   1.00
H168   H     0.60800   0.94824   0.65945   0.00000  Uiso   1.00
H169   H     0.66421   0.79664   0.36150   0.00000  Uiso   1.00
H170   H     0.60451   0.86335   0.26487   0.00000  Uiso   1.00
H171   H     0.64409   0.67141   0.36269   0.00000  Uiso   1.00
H172   H     0.76678   0.85227   0.44715   0.00000  Uiso   1.00
H173   H     0.50244   0.94179   0.17317   0.00000  Uiso   1.00
H174   H     0.58592   0.53708   0.37945   0.00000  Uiso   1.00
H175   H     0.84463   0.91846   0.55756   0.00000  Uiso   1.00
O176   O     0.33985   0.00117   0.16269   0.00000  Uiso   1.00
O177   O     0.44939   0.47021   0.43332   0.00000  Uiso   1.00
O178   O     0.78880   0.97057   0.66700   0.00000  Uiso   1.00
N179   N     0.32970   0.95541   0.26435   0.00000  Uiso   1.00
N180   N     0.40774   0.57704   0.45719   0.00000  Uiso   1.00
N181   N     0.64962   0.93358   0.62372   0.00000  Uiso   1.00
N182   N     0.45703   0.93939   0.20952   0.00000  Uiso   1.00
N183   N     0.53507   0.56102   0.40237   0.00000  Uiso   1.00
N184   N     0.77695   0.91756   0.56890   0.00000  Uiso   1.00
C185   C     0.04885   0.82346   0.95324   0.00000  Uiso   1.00
C186   C     0.05120   0.85592   0.88779   0.00000  Uiso   1.00
C187   C     0.12411   0.89213   0.86329   0.00000  Uiso   1.00
C188   C     0.11280   0.91777   0.80246   0.00000  Uiso   1.00
C189   C     0.12883   0.96970   0.70614   0.00000  Uiso   1.00
C190   C     0.02970   0.75163   0.94093   0.00000  Uiso   1.00
C191   C     0.08453   0.70016   0.96112   0.00000  Uiso   1.00
C192   C     0.05510   0.63802   0.94503   0.00000  Uiso   1.00
C193   C     0.03772   0.52804   0.93125   0.00000  Uiso   1.00
C194   C     0.96305   0.84990   0.98682   0.00000  Uiso   1.00
C195   C     0.96182   0.88105   0.04560   0.00000  Uiso   1.00
C196   C     0.87627   0.90163   0.06815   0.00000  Uiso   1.00
C197   C     0.75540   0.94424   0.12563   0.00000  Uiso   1.00
C198   C     0.89911   0.80461   0.88876   0.00000  Uiso   1.00
C199   C     0.96987   0.84568   0.85277   0.00000  Uiso   1.00
C200   C     0.95844   0.87128   0.79196   0.00000  Uiso   1.00
C201   C     0.03132   0.90752   0.76737   0.00000  Uiso   1.00
C202   C     0.94837   0.74139   0.90591   0.00000  Uiso   1.00
C203   C     0.91885   0.67931   0.88978   0.00000  Uiso   1.00
C204   C     0.97362   0.62776   0.90994   0.00000  Uiso   1.00
C205   C     0.88171   0.83967   0.95180   0.00000  Uiso   1.00
C206   C     0.79615   0.86020   0.97426   0.00000  Uiso   1.00
C207   C     0.79479   0.89137   0.03307   0.00000  Uiso   1.00
H208   H     0.11217   0.83142   0.98050   0.00000  Uiso   1.00
H209   H     0.18705   0.90003   0.89041   0.00000  Uiso   1.00
H210   H     0.14746   0.70810   0.98823   0.00000  Uiso   1.00
H211   H     0.02477   0.88896   0.07269   0.00000  Uiso   1.00
H212   H     0.23420   0.97156   0.77506   0.00000  Uiso   1.00
H213   H     0.15071   0.56686   0.98134   0.00000  Uiso   1.00
H214   H     0.89200   0.94824   0.15945   0.00000  Uiso   1.00
H215   H     0.83579   0.79664   0.86150   0.00000  Uiso   1.00
H216   H     0.89549   0.86335   0.76487   0.00000  Uiso   1.00
H217   H     0.85591   0.67141   0.86269   0.00000  Uiso   1.00
H218   H     0.73322   0.85227   0.94715   0.00000  Uiso   1.00
H219   H     0.99756   0.94179   0.67317   0.00000  Uiso   1.00
H220   H     0.91408   0.53708   0.87945   0.00000  Uiso   1.00
H221   H     0.65537   0.91846   0.05756   0.00000  Uiso   1.00
O222   O     0.16015   0.00117   0.66269   0.00000  Uiso   1.00
O223   O     0.05061   0.47021   0.93332   0.00000  Uiso   1.00
O224   O     0.71120   0.97057   0.16700   0.00000  Uiso   1.00
N225   N     0.17030   0.95541   0.76435   0.00000  Uiso   1.00
N226   N     0.09226   0.57704   0.95719   0.00000  Uiso   1.00
N227   N     0.85038   0.93358   0.12372   0.00000  Uiso   1.00
N228   N     0.04297   0.93939   0.70952   0.00000  Uiso   1.00
N229   N     0.96493   0.56102   0.90237   0.00000  Uiso   1.00
N230   N     0.72305   0.91756   0.06890   0.00000  Uiso   1.00
C231   C     0.45115   0.67654   0.95324   0.00000  Uiso   1.00
C232   C     0.44880   0.64408   0.88779   0.00000  Uiso   1.00
C233   C     0.37589   0.60787   0.86329   0.00000  Uiso   1.00
C234   C     0.38720   0.58223   0.80246   0.00000  Uiso   1.00
C235   C     0.37117   0.53030   0.70614   0.00000  Uiso   1.00
C236   C     0.47030   0.74837   0.94093   0.00000  Uiso   1.00
C237   C     0.41547   0.79984   0.96112   0.00000  Uiso   1.00
C238   C     0.44490   0.86198   0.94503   0.00000  Uiso   1.00
C239   C     0.46228   0.97196   0.93125   0.00000  Uiso   1.00
C240   C     0.53695   0.65010   0.98682   0.00000  Uiso   1.00
C241   C     0.53818   0.61895   0.04560   0.00000  Uiso   1.00
C242   C     0.62373   0.59837   0.06815   0.00000  Uiso   1.00
C243   C     0.74460   0.55576   0.12563   0.00000  Uiso   1.00
C244   C     0.60089   0.69539   0.88876   0.00000  Uiso   1.00
C245   C     0.53013   0.65432   0.85277   0.00000  Uiso   1.00
C246   C     0.54156   0.62872   0.79196   0.00000  Uiso   1.00
C247   C     0.46868   0.59248   0.76737   0.00000  Uiso   1.00
C248   C     0.55163   0.75861   0.90591   0.00000  Uiso   1.00
C249   C     0.58115   0.82069   0.88978   0.00000  Uiso   1.00
C250   C     0.52638   0.87224   0.90994   0.00000  Uiso   1.00
C251   C     0.61829   0.66033   0.95180   0.00000  Uiso   1.00
C252   C     0.70385   0.63980   0.97426   0.00000  Uiso   1.00
C253   C     0.70521   0.60863   0.03307   0.00000  Uiso   1.00
H254   H     0.38783   0.66858   0.98050   0.00000  Uiso   1.00
H255   H     0.31295   0.59997   0.89041   0.00000  Uiso   1.00
H256   H     0.35254   0.79190   0.98823   0.00000  Uiso   1.00
H257   H     0.47523   0.61104   0.07269   0.00000  Uiso   1.00
H258   H     0.26580   0.52844   0.77506   0.00000  Uiso   1.00
H259   H     0.34929   0.93314   0.98134   0.00000  Uiso   1.00
H260   H     0.60800   0.55176   0.15945   0.00000  Uiso   1.00
H261   H     0.66421   0.70336   0.86150   0.00000  Uiso   1.00
H262   H     0.60451   0.63665   0.76487   0.00000  Uiso   1.00
H263   H     0.64409   0.82859   0.86269   0.00000  Uiso   1.00
H264   H     0.76678   0.64773   0.94715   0.00000  Uiso   1.00
H265   H     0.50244   0.55821   0.67317   0.00000  Uiso   1.00
H266   H     0.58592   0.96292   0.87945   0.00000  Uiso   1.00
H267   H     0.84463   0.58154   0.05756   0.00000  Uiso   1.00
O268   O     0.33985   0.49883   0.66269   0.00000  Uiso   1.00
O269   O     0.44939   0.02979   0.93332   0.00000  Uiso   1.00
O270   O     0.78880   0.52943   0.16700   0.00000  Uiso   1.00
N271   N     0.32970   0.54459   0.76435   0.00000  Uiso   1.00
N272   N     0.40774   0.92296   0.95719   0.00000  Uiso   1.00
N273   N     0.64962   0.56642   0.12372   0.00000  Uiso   1.00
N274   N     0.45703   0.56061   0.70952   0.00000  Uiso   1.00
N275   N     0.53507   0.93898   0.90237   0.00000  Uiso   1.00
N276   N     0.77695   0.58244   0.06890   0.00000  Uiso   1.00
C277   C     0.95115   0.32346   0.54676   0.00000  Uiso   1.00
C278   C     0.94880   0.35592   0.61221   0.00000  Uiso   1.00
C279   C     0.87589   0.39213   0.63671   0.00000  Uiso   1.00
C280   C     0.88720   0.41777   0.69754   0.00000  Uiso   1.00
C281   C     0.87117   0.46970   0.79386   0.00000  Uiso   1.00
C282   C     0.97030   0.25163   0.55907   0.00000  Uiso   1.00
C283   C     0.91547   0.20016   0.53888   0.00000  Uiso   1.00
C284   C     0.94490   0.13802   0.55497   0.00000  Uiso   1.00
C285   C     0.96228   0.02804   0.56875   0.00000  Uiso   1.00
C286   C     0.03695   0.34990   0.51318   0.00000  Uiso   1.00
C287   C     0.03818   0.38105   0.45440   0.00000  Uiso   1.00
C288   C     0.12373   0.40163   0.43185   0.00000  Uiso   1.00
C289   C     0.24460   0.44424   0.37437   0.00000  Uiso   1.00
C290   C     0.10089   0.30461   0.61124   0.00000  Uiso   1.00
C291   C     0.03013   0.34568   0.64723   0.00000  Uiso   1.00
C292   C     0.04156   0.37128   0.70804   0.00000  Uiso   1.00
C293   C     0.96868   0.40752   0.73263   0.00000  Uiso   1.00
C294   C     0.05163   0.24139   0.59409   0.00000  Uiso   1.00
C295   C     0.08115   0.17931   0.61022   0.00000  Uiso   1.00
C296   C     0.02638   0.12776   0.59006   0.00000  Uiso   1.00
C297   C     0.11829   0.33967   0.54820   0.00000  Uiso   1.00
C298   C     0.20385   0.36020   0.52574   0.00000  Uiso   1.00
C299   C     0.20521   0.39137   0.46693   0.00000  Uiso   1.00
H300   H     0.88783   0.33142   0.51950   0.00000  Uiso   1.00
H301   H     0.81295   0.40003   0.60959   0.00000  Uiso   1.00
H302   H     0.85254   0.20810   0.51177   0.00000  Uiso   1.00
H303   H     0.97523   0.38896   0.42731   0.00000  Uiso   1.00
H304   H     0.76580   0.47156   0.72494   0.00000  Uiso   1.00
H305   H     0.84929   0.06686   0.51866   0.00000  Uiso   1.00
H306   H     0.10800   0.44824   0.34055   0.00000  Uiso   1.00
H307   H     0.16421   0.29664   0.63850   0.00000  Uiso   1.00
H308   H     0.10451   0.36335   0.73513   0.00000  Uiso   1.00
H309   H     0.14409   0.17141   0.63731   0.00000  Uiso   1.00
H310   H     0.26678   0.35227   0.55285   0.00000  Uiso   1.00
H311   H     0.00244   0.44179   0.82683   0.00000  Uiso   1.00
H312   H     0.08592   0.03708   0.62055   0.00000  Uiso   1.00
H313   H     0.34463   0.41846   0.44244   0.00000  Uiso   1.00
O314   O     0.83985   0.50117   0.83731   0.00000  Uiso   1.00
O315   O     0.94939   0.97021   0.56668   0.00000  Uiso   1.00
O316   O     0.28880   0.47057   0.33300   0.00000  Uiso   1.00
N317   N     0.82970   0.45541   0.73565   0.00000  Uiso   1.00
N318   N     0.90774   0.07704   0.54281   0.00000  Uiso   1.00
N319   N     0.14962   0.43358   0.37628   0.00000  Uiso   1.00
N320   N     0.95703   0.43939   0.79048   0.00000  Uiso   1.00
N321   N     0.03507   0.06102   0.59763   0.00000  Uiso   1.00
N322   N     0.27695   0.41756   0.43110   0.00000  Uiso   1.00
C323   C     0.54885   0.17654   0.54676   0.00000  Uiso   1.00
C324   C     0.55120   0.14408   0.61221   0.00000  Uiso   1.00
C325   C     0.62411   0.10787   0.63671   0.00000  Uiso   1.00
C326   C     0.61280   0.08223   0.69754   0.00000  Uiso   1.00
C327   C     0.62883   0.03030   0.79386   0.00000  Uiso   1.00
C328   C     0.52970   0.24837   0.55907   0.00000  Uiso   1.00
C329   C     0.58453   0.29984   0.53888   0.00000  Uiso   1.00
C330   C     0.55510   0.36198   0.55497   0.00000  Uiso   1.00
C331   C     0.53772   0.47196   0.56875   0.00000  Uiso   1.00
C332   C     0.46305   0.15010   0.51318   0.00000  Uiso   1.00
C333   C     0.46182   0.11895   0.45440   0.00000  Uiso   1.00
C334   C     0.37627   0.09837   0.43185   0.00000  Uiso   1.00
C335   C     0.25540   0.05576   0.37437   0.00000  Uiso   1.00
C336   C     0.39911   0.19539   0.61124   0.00000  Uiso   1.00
C337   C     0.46987   0.15432   0.64723   0.00000  Uiso   1.00
C338   C     0.45844   0.12872   0.70804   0.00000  Uiso   1.00
C339   C     0.53132   0.09248   0.73263   0.00000  Uiso   1.00
C340   C     0.44837   0.25861   0.59409   0.00000  Uiso   1.00
C341   C     0.41885   0.32069   0.61022   0.00000  Uiso   1.00
C342   C     0.47362   0.37224   0.59006   0.00000  Uiso   1.00
C343   C     0.38171   0.16033   0.54820   0.00000  Uiso   1.00
C344   C     0.29615   0.13980   0.52574   0.00000  Uiso   1.00
C345   C     0.29479   0.10863   0.46693   0.00000  Uiso   1.00
H346   H     0.61217   0.16858   0.51950   0.00000  Uiso   1.00
H347   H     0.68705   0.09997   0.60959   0.00000  Uiso   1.00
H348   H     0.64746   0.29190   0.51177   0.00000  Uiso   1.00
H349   H     0.52477   0.11104   0.42731   0.00000  Uiso   1.00
H350   H     0.73420   0.02844   0.72494   0.00000  Uiso   1.00
H351   H     0.65071   0.43314   0.51866   0.00000  Uiso   1.00
H352   H     0.39200   0.05176   0.34055   0.00000  Uiso   1.00
H353   H     0.33579   0.20336   0.63850   0.00000  Uiso   1.00
H354   H     0.39549   0.13665   0.73513   0.00000  Uiso   1.00
H355   H     0.35591   0.32859   0.63731   0.00000  Uiso   1.00
H356   H     0.23322   0.14773   0.55285   0.00000  Uiso   1.00
H357   H     0.49756   0.05821   0.82683   0.00000  Uiso   1.00
H358   H     0.41408   0.46292   0.62055   0.00000  Uiso   1.00
H359   H     0.15537   0.08154   0.44244   0.00000  Uiso   1.00
O360   O     0.66015   0.99883   0.83731   0.00000  Uiso   1.00
O361   O     0.55061   0.52979   0.56668   0.00000  Uiso   1.00
O362   O     0.21120   0.02943   0.33300   0.00000  Uiso   1.00
N363   N     0.67030   0.04459   0.73565   0.00000  Uiso   1.00
N364   N     0.59226   0.42296   0.54281   0.00000  Uiso   1.00
N365   N     0.35038   0.06642   0.37628   0.00000  Uiso   1.00
N366   N     0.54297   0.06061   0.79048   0.00000  Uiso   1.00
N367   N     0.46493   0.43898   0.59763   0.00000  Uiso   1.00
N368   N     0.22305   0.08244   0.43110   0.00000  Uiso   1.00
