data_job_03242
_audit_creation_date              2018-12-19
_audit_creation_method            'Materials Studio'
_symmetry_space_group_name_H-M    'P1'
_symmetry_Int_Tables_number       1
_symmetry_cell_setting            triclinic
loop_
_symmetry_equiv_pos_as_xyz
  x,y,z
_cell_length_a                    19.6706
_cell_length_b                    38.7015
_cell_length_c                    7.2916
_cell_angle_alpha                 90.0000
_cell_angle_beta                  90.0000
_cell_angle_gamma                 90.0000
loop_
_atom_site_label
_atom_site_type_symbol
_atom_site_fract_x
_atom_site_fract_y
_atom_site_fract_z
_atom_site_U_iso_or_equiv
_atom_site_adp_type
_atom_site_occupancy
C1     C     0.43922   0.09912   0.14080   0.00000  Uiso   1.00
C2     C     0.51476   0.09923   0.18784   0.00000  Uiso   1.00
C3     C     0.56768   0.10271   0.06334   0.00000  Uiso   1.00
C4     C     0.63326   0.10217   0.13369   0.00000  Uiso   1.00
C5     C     0.74870   0.10292   0.17810   0.00000  Uiso   1.00
C6     C     0.41093   0.06535   0.21692   0.00000  Uiso   1.00
C7     C     0.37655   0.04035   0.11687   0.00000  Uiso   1.00
C8     C     0.35472   0.01129   0.21171   0.00000  Uiso   1.00
C9     C     0.30892   0.95945   0.30130   0.00000  Uiso   1.00
C10    C     0.40730   0.12786   0.25499   0.00000  Uiso   1.00
C11    C     0.36984   0.15542   0.18695   0.00000  Uiso   1.00
C12    C     0.34493   0.17898   0.31385   0.00000  Uiso   1.00
C13    C     0.29350   0.22420   0.46254   0.00000  Uiso   1.00
C14    C     0.46158   0.09197   0.48715   0.00000  Uiso   1.00
C15    C     0.52690   0.09535   0.37596   0.00000  Uiso   1.00
C16    C     0.59242   0.09480   0.44653   0.00000  Uiso   1.00
C17    C     0.64542   0.09828   0.32215   0.00000  Uiso   1.00
C18    C     0.42307   0.06147   0.40504   0.00000  Uiso   1.00
C19    C     0.40128   0.03244   0.50005   0.00000  Uiso   1.00
C20    C     0.36688   0.00739   0.40017   0.00000  Uiso   1.00
C21    C     0.41944   0.12398   0.44311   0.00000  Uiso   1.00
C22    C     0.39458   0.14750   0.57014   0.00000  Uiso   1.00
C23    C     0.35710   0.17509   0.50231   0.00000  Uiso   1.00
H24    H     0.42976   0.10214   0.99435   0.00000  Uiso   1.00
H25    H     0.55826   0.10571   0.91776   0.00000  Uiso   1.00
H26    H     0.36715   0.04336   0.97130   0.00000  Uiso   1.00
H27    H     0.36045   0.15841   0.04137   0.00000  Uiso   1.00
H28    H     0.70608   0.10795   0.91581   0.00000  Uiso   1.00
H29    H     0.30309   0.97649   0.02870   0.00000  Uiso   1.00
H30    H     0.28896   0.21909   0.17645   0.00000  Uiso   1.00
H31    H     0.47103   0.08894   0.63361   0.00000  Uiso   1.00
H32    H     0.60180   0.09179   0.59211   0.00000  Uiso   1.00
H33    H     0.41069   0.02944   0.64563   0.00000  Uiso   1.00
H34    H     0.40399   0.14449   0.71571   0.00000  Uiso   1.00
H35    H     0.74141   0.09665   0.46313   0.00000  Uiso   1.00
H36    H     0.33843   0.96518   0.57601   0.00000  Uiso   1.00
H37    H     0.32430   0.20779   0.72378   0.00000  Uiso   1.00
O38    O     0.80902   0.10440   0.15063   0.00000  Uiso   1.00
O39    O     0.28031   0.93193   0.29873   0.00000  Uiso   1.00
O40    O     0.26178   0.25022   0.49258   0.00000  Uiso   1.00
N41    N     0.69645   0.10491   0.05032   0.00000  Uiso   1.00
N42    N     0.31969   0.98199   0.15586   0.00000  Uiso   1.00
N43    N     0.30647   0.20880   0.29400   0.00000  Uiso   1.00
N44    N     0.71546   0.09883   0.34483   0.00000  Uiso   1.00
N45    N     0.33871   0.97591   0.45037   0.00000  Uiso   1.00
N46    N     0.32548   0.20272   0.58851   0.00000  Uiso   1.00
C47    C     0.06078   0.90088   0.14080   0.00000  Uiso   1.00
C48    C     0.98524   0.90077   0.18784   0.00000  Uiso   1.00
C49    C     0.93232   0.89729   0.06334   0.00000  Uiso   1.00
C50    C     0.86674   0.89783   0.13369   0.00000  Uiso   1.00
C51    C     0.75130   0.89708   0.17810   0.00000  Uiso   1.00
C52    C     0.08907   0.93465   0.21692   0.00000  Uiso   1.00
C53    C     0.12345   0.95965   0.11687   0.00000  Uiso   1.00
C54    C     0.14528   0.98871   0.21171   0.00000  Uiso   1.00
C55    C     0.19108   0.04055   0.30130   0.00000  Uiso   1.00
C56    C     0.09270   0.87214   0.25499   0.00000  Uiso   1.00
C57    C     0.13016   0.84458   0.18695   0.00000  Uiso   1.00
C58    C     0.15507   0.82102   0.31385   0.00000  Uiso   1.00
C59    C     0.20650   0.77580   0.46254   0.00000  Uiso   1.00
C60    C     0.03842   0.90803   0.48715   0.00000  Uiso   1.00
C61    C     0.97310   0.90465   0.37596   0.00000  Uiso   1.00
C62    C     0.90758   0.90520   0.44653   0.00000  Uiso   1.00
C63    C     0.85458   0.90172   0.32215   0.00000  Uiso   1.00
C64    C     0.07693   0.93853   0.40504   0.00000  Uiso   1.00
C65    C     0.09872   0.96756   0.50005   0.00000  Uiso   1.00
C66    C     0.13312   0.99261   0.40017   0.00000  Uiso   1.00
C67    C     0.08056   0.87602   0.44311   0.00000  Uiso   1.00
C68    C     0.10542   0.85250   0.57014   0.00000  Uiso   1.00
C69    C     0.14290   0.82491   0.50231   0.00000  Uiso   1.00
H70    H     0.07024   0.89786   0.99435   0.00000  Uiso   1.00
H71    H     0.94174   0.89429   0.91776   0.00000  Uiso   1.00
H72    H     0.13285   0.95664   0.97130   0.00000  Uiso   1.00
H73    H     0.13955   0.84159   0.04137   0.00000  Uiso   1.00
H74    H     0.79392   0.89205   0.91581   0.00000  Uiso   1.00
H75    H     0.19691   0.02351   0.02870   0.00000  Uiso   1.00
H76    H     0.21104   0.78091   0.17645   0.00000  Uiso   1.00
H77    H     0.02897   0.91106   0.63361   0.00000  Uiso   1.00
H78    H     0.89820   0.90821   0.59211   0.00000  Uiso   1.00
H79    H     0.08931   0.97056   0.64563   0.00000  Uiso   1.00
H80    H     0.09601   0.85551   0.71571   0.00000  Uiso   1.00
H81    H     0.75859   0.90335   0.46313   0.00000  Uiso   1.00
H82    H     0.16157   0.03482   0.57601   0.00000  Uiso   1.00
H83    H     0.17570   0.79221   0.72378   0.00000  Uiso   1.00
O84    O     0.69098   0.89560   0.15063   0.00000  Uiso   1.00
O85    O     0.21969   0.06807   0.29873   0.00000  Uiso   1.00
O86    O     0.23822   0.74978   0.49258   0.00000  Uiso   1.00
N87    N     0.80355   0.89509   0.05032   0.00000  Uiso   1.00
N88    N     0.18031   0.01801   0.15586   0.00000  Uiso   1.00
N89    N     0.19353   0.79120   0.29400   0.00000  Uiso   1.00
N90    N     0.78454   0.90117   0.34483   0.00000  Uiso   1.00
N91    N     0.16129   0.02409   0.45037   0.00000  Uiso   1.00
N92    N     0.17452   0.79728   0.58851   0.00000  Uiso   1.00
C93    C     0.06078   0.59912   0.35920   0.00000  Uiso   1.00
C94    C     0.98524   0.59923   0.31216   0.00000  Uiso   1.00
C95    C     0.93232   0.60271   0.43666   0.00000  Uiso   1.00
C96    C     0.86674   0.60217   0.36631   0.00000  Uiso   1.00
C97    C     0.75130   0.60292   0.32190   0.00000  Uiso   1.00
C98    C     0.08907   0.56535   0.28308   0.00000  Uiso   1.00
C99    C     0.12345   0.54035   0.38313   0.00000  Uiso   1.00
C100   C     0.14528   0.51129   0.28829   0.00000  Uiso   1.00
C101   C     0.19108   0.45945   0.19870   0.00000  Uiso   1.00
C102   C     0.09270   0.62786   0.24501   0.00000  Uiso   1.00
C103   C     0.13016   0.65542   0.31305   0.00000  Uiso   1.00
C104   C     0.15507   0.67898   0.18615   0.00000  Uiso   1.00
C105   C     0.20650   0.72420   0.03746   0.00000  Uiso   1.00
C106   C     0.03842   0.59197   0.01285   0.00000  Uiso   1.00
C107   C     0.97310   0.59535   0.12404   0.00000  Uiso   1.00
C108   C     0.90758   0.59480   0.05347   0.00000  Uiso   1.00
C109   C     0.85458   0.59828   0.17785   0.00000  Uiso   1.00
C110   C     0.07693   0.56147   0.09496   0.00000  Uiso   1.00
C111   C     0.09872   0.53244   0.99995   0.00000  Uiso   1.00
C112   C     0.13312   0.50739   0.09983   0.00000  Uiso   1.00
C113   C     0.08056   0.62398   0.05689   0.00000  Uiso   1.00
C114   C     0.10542   0.64750   0.92986   0.00000  Uiso   1.00
C115   C     0.14290   0.67509   0.99769   0.00000  Uiso   1.00
H116   H     0.07024   0.60214   0.50565   0.00000  Uiso   1.00
H117   H     0.94174   0.60571   0.58224   0.00000  Uiso   1.00
H118   H     0.13285   0.54336   0.52870   0.00000  Uiso   1.00
H119   H     0.13955   0.65841   0.45863   0.00000  Uiso   1.00
H120   H     0.79392   0.60795   0.58419   0.00000  Uiso   1.00
H121   H     0.19691   0.47649   0.47130   0.00000  Uiso   1.00
H122   H     0.21104   0.71909   0.32355   0.00000  Uiso   1.00
H123   H     0.02897   0.58894   0.86639   0.00000  Uiso   1.00
H124   H     0.89820   0.59179   0.90789   0.00000  Uiso   1.00
H125   H     0.08931   0.52944   0.85437   0.00000  Uiso   1.00
H126   H     0.09601   0.64449   0.78429   0.00000  Uiso   1.00
H127   H     0.75859   0.59665   0.03687   0.00000  Uiso   1.00
H128   H     0.16157   0.46518   0.92399   0.00000  Uiso   1.00
H129   H     0.17570   0.70779   0.77622   0.00000  Uiso   1.00
O130   O     0.69098   0.60440   0.34937   0.00000  Uiso   1.00
O131   O     0.21969   0.43193   0.20127   0.00000  Uiso   1.00
O132   O     0.23822   0.75022   0.00742   0.00000  Uiso   1.00
N133   N     0.80355   0.60491   0.44968   0.00000  Uiso   1.00
N134   N     0.18031   0.48199   0.34414   0.00000  Uiso   1.00
N135   N     0.19353   0.70880   0.20600   0.00000  Uiso   1.00
N136   N     0.78454   0.59883   0.15517   0.00000  Uiso   1.00
N137   N     0.16129   0.47591   0.04963   0.00000  Uiso   1.00
N138   N     0.17452   0.70272   0.91149   0.00000  Uiso   1.00
C139   C     0.43922   0.40088   0.35920   0.00000  Uiso   1.00
C140   C     0.51476   0.40077   0.31216   0.00000  Uiso   1.00
C141   C     0.56768   0.39729   0.43666   0.00000  Uiso   1.00
C142   C     0.63326   0.39783   0.36631   0.00000  Uiso   1.00
C143   C     0.74870   0.39708   0.32190   0.00000  Uiso   1.00
C144   C     0.41093   0.43465   0.28308   0.00000  Uiso   1.00
C145   C     0.37655   0.45965   0.38313   0.00000  Uiso   1.00
C146   C     0.35472   0.48871   0.28829   0.00000  Uiso   1.00
C147   C     0.30892   0.54055   0.19870   0.00000  Uiso   1.00
C148   C     0.40730   0.37214   0.24501   0.00000  Uiso   1.00
C149   C     0.36984   0.34458   0.31305   0.00000  Uiso   1.00
C150   C     0.34493   0.32102   0.18615   0.00000  Uiso   1.00
C151   C     0.29350   0.27580   0.03746   0.00000  Uiso   1.00
C152   C     0.46158   0.40803   0.01285   0.00000  Uiso   1.00
C153   C     0.52690   0.40465   0.12404   0.00000  Uiso   1.00
C154   C     0.59242   0.40520   0.05347   0.00000  Uiso   1.00
C155   C     0.64542   0.40172   0.17785   0.00000  Uiso   1.00
C156   C     0.42307   0.43853   0.09496   0.00000  Uiso   1.00
C157   C     0.40128   0.46756   0.99995   0.00000  Uiso   1.00
C158   C     0.36688   0.49261   0.09983   0.00000  Uiso   1.00
C159   C     0.41944   0.37602   0.05689   0.00000  Uiso   1.00
C160   C     0.39458   0.35250   0.92986   0.00000  Uiso   1.00
C161   C     0.35710   0.32491   0.99769   0.00000  Uiso   1.00
H162   H     0.42976   0.39786   0.50565   0.00000  Uiso   1.00
H163   H     0.55826   0.39429   0.58224   0.00000  Uiso   1.00
H164   H     0.36715   0.45664   0.52870   0.00000  Uiso   1.00
H165   H     0.36045   0.34159   0.45863   0.00000  Uiso   1.00
H166   H     0.70608   0.39205   0.58419   0.00000  Uiso   1.00
H167   H     0.30309   0.52351   0.47130   0.00000  Uiso   1.00
H168   H     0.28896   0.28091   0.32355   0.00000  Uiso   1.00
H169   H     0.47103   0.41106   0.86639   0.00000  Uiso   1.00
H170   H     0.60180   0.40821   0.90789   0.00000  Uiso   1.00
H171   H     0.41069   0.47056   0.85437   0.00000  Uiso   1.00
H172   H     0.40399   0.35551   0.78429   0.00000  Uiso   1.00
H173   H     0.74141   0.40335   0.03687   0.00000  Uiso   1.00
H174   H     0.33843   0.53482   0.92399   0.00000  Uiso   1.00
H175   H     0.32430   0.29221   0.77622   0.00000  Uiso   1.00
O176   O     0.80902   0.39560   0.34937   0.00000  Uiso   1.00
O177   O     0.28031   0.56807   0.20127   0.00000  Uiso   1.00
O178   O     0.26178   0.24978   0.00742   0.00000  Uiso   1.00
N179   N     0.69645   0.39509   0.44968   0.00000  Uiso   1.00
N180   N     0.31969   0.51801   0.34414   0.00000  Uiso   1.00
N181   N     0.30647   0.29120   0.20600   0.00000  Uiso   1.00
N182   N     0.71546   0.40117   0.15517   0.00000  Uiso   1.00
N183   N     0.33871   0.52409   0.04963   0.00000  Uiso   1.00
N184   N     0.32548   0.29728   0.91149   0.00000  Uiso   1.00
C185   C     0.56078   0.90088   0.85920   0.00000  Uiso   1.00
C186   C     0.48524   0.90077   0.81216   0.00000  Uiso   1.00
C187   C     0.43232   0.89729   0.93666   0.00000  Uiso   1.00
C188   C     0.36674   0.89783   0.86631   0.00000  Uiso   1.00
C189   C     0.25130   0.89708   0.82190   0.00000  Uiso   1.00
C190   C     0.58907   0.93465   0.78308   0.00000  Uiso   1.00
C191   C     0.62345   0.95965   0.88313   0.00000  Uiso   1.00
C192   C     0.64528   0.98871   0.78829   0.00000  Uiso   1.00
C193   C     0.69108   0.04055   0.69870   0.00000  Uiso   1.00
C194   C     0.59270   0.87214   0.74501   0.00000  Uiso   1.00
C195   C     0.63016   0.84458   0.81305   0.00000  Uiso   1.00
C196   C     0.65507   0.82102   0.68615   0.00000  Uiso   1.00
C197   C     0.70650   0.77580   0.53746   0.00000  Uiso   1.00
C198   C     0.53842   0.90803   0.51285   0.00000  Uiso   1.00
C199   C     0.47310   0.90465   0.62404   0.00000  Uiso   1.00
C200   C     0.40758   0.90520   0.55347   0.00000  Uiso   1.00
C201   C     0.35458   0.90172   0.67785   0.00000  Uiso   1.00
C202   C     0.57693   0.93853   0.59496   0.00000  Uiso   1.00
C203   C     0.59872   0.96756   0.49995   0.00000  Uiso   1.00
C204   C     0.63312   0.99261   0.59983   0.00000  Uiso   1.00
C205   C     0.58056   0.87602   0.55689   0.00000  Uiso   1.00
C206   C     0.60542   0.85250   0.42986   0.00000  Uiso   1.00
C207   C     0.64290   0.82491   0.49769   0.00000  Uiso   1.00
H208   H     0.57024   0.89786   0.00565   0.00000  Uiso   1.00
H209   H     0.44174   0.89429   0.08224   0.00000  Uiso   1.00
H210   H     0.63285   0.95664   0.02870   0.00000  Uiso   1.00
H211   H     0.63955   0.84159   0.95863   0.00000  Uiso   1.00
H212   H     0.29392   0.89205   0.08419   0.00000  Uiso   1.00
H213   H     0.69691   0.02351   0.97130   0.00000  Uiso   1.00
H214   H     0.71104   0.78091   0.82355   0.00000  Uiso   1.00
H215   H     0.52897   0.91106   0.36639   0.00000  Uiso   1.00
H216   H     0.39820   0.90821   0.40789   0.00000  Uiso   1.00
H217   H     0.58931   0.97056   0.35437   0.00000  Uiso   1.00
H218   H     0.59601   0.85551   0.28429   0.00000  Uiso   1.00
H219   H     0.25859   0.90335   0.53687   0.00000  Uiso   1.00
H220   H     0.66157   0.03482   0.42399   0.00000  Uiso   1.00
H221   H     0.67570   0.79221   0.27622   0.00000  Uiso   1.00
O222   O     0.19098   0.89560   0.84937   0.00000  Uiso   1.00
O223   O     0.71969   0.06807   0.70127   0.00000  Uiso   1.00
O224   O     0.73822   0.74978   0.50742   0.00000  Uiso   1.00
N225   N     0.30355   0.89509   0.94968   0.00000  Uiso   1.00
N226   N     0.68031   0.01801   0.84414   0.00000  Uiso   1.00
N227   N     0.69353   0.79120   0.70600   0.00000  Uiso   1.00
N228   N     0.28454   0.90117   0.65517   0.00000  Uiso   1.00
N229   N     0.66129   0.02409   0.54963   0.00000  Uiso   1.00
N230   N     0.67452   0.79728   0.41149   0.00000  Uiso   1.00
C231   C     0.93922   0.09912   0.85920   0.00000  Uiso   1.00
C232   C     0.01476   0.09923   0.81216   0.00000  Uiso   1.00
C233   C     0.06768   0.10271   0.93666   0.00000  Uiso   1.00
C234   C     0.13326   0.10217   0.86631   0.00000  Uiso   1.00
C235   C     0.24870   0.10292   0.82190   0.00000  Uiso   1.00
C236   C     0.91093   0.06535   0.78308   0.00000  Uiso   1.00
C237   C     0.87655   0.04035   0.88313   0.00000  Uiso   1.00
C238   C     0.85472   0.01129   0.78829   0.00000  Uiso   1.00
C239   C     0.80892   0.95945   0.69870   0.00000  Uiso   1.00
C240   C     0.90730   0.12786   0.74501   0.00000  Uiso   1.00
C241   C     0.86984   0.15542   0.81305   0.00000  Uiso   1.00
C242   C     0.84493   0.17898   0.68615   0.00000  Uiso   1.00
C243   C     0.79350   0.22420   0.53746   0.00000  Uiso   1.00
C244   C     0.96158   0.09197   0.51285   0.00000  Uiso   1.00
C245   C     0.02690   0.09535   0.62404   0.00000  Uiso   1.00
C246   C     0.09242   0.09480   0.55347   0.00000  Uiso   1.00
C247   C     0.14542   0.09828   0.67785   0.00000  Uiso   1.00
C248   C     0.92307   0.06147   0.59496   0.00000  Uiso   1.00
C249   C     0.90128   0.03244   0.49995   0.00000  Uiso   1.00
C250   C     0.86688   0.00739   0.59983   0.00000  Uiso   1.00
C251   C     0.91944   0.12398   0.55689   0.00000  Uiso   1.00
C252   C     0.89458   0.14750   0.42986   0.00000  Uiso   1.00
C253   C     0.85710   0.17509   0.49769   0.00000  Uiso   1.00
H254   H     0.92976   0.10214   0.00565   0.00000  Uiso   1.00
H255   H     0.05826   0.10571   0.08224   0.00000  Uiso   1.00
H256   H     0.86715   0.04336   0.02870   0.00000  Uiso   1.00
H257   H     0.86045   0.15841   0.95863   0.00000  Uiso   1.00
H258   H     0.20608   0.10795   0.08419   0.00000  Uiso   1.00
H259   H     0.80309   0.97649   0.97130   0.00000  Uiso   1.00
H260   H     0.78896   0.21909   0.82355   0.00000  Uiso   1.00
H261   H     0.97103   0.08894   0.36639   0.00000  Uiso   1.00
H262   H     0.10180   0.09179   0.40789   0.00000  Uiso   1.00
H263   H     0.91069   0.02944   0.35437   0.00000  Uiso   1.00
H264   H     0.90399   0.14449   0.28429   0.00000  Uiso   1.00
H265   H     0.24141   0.09665   0.53687   0.00000  Uiso   1.00
H266   H     0.83843   0.96518   0.42399   0.00000  Uiso   1.00
H267   H     0.82430   0.20779   0.27622   0.00000  Uiso   1.00
O268   O     0.30902   0.10440   0.84937   0.00000  Uiso   1.00
O269   O     0.78031   0.93193   0.70127   0.00000  Uiso   1.00
O270   O     0.76178   0.25022   0.50742   0.00000  Uiso   1.00
N271   N     0.19645   0.10491   0.94968   0.00000  Uiso   1.00
N272   N     0.81969   0.98199   0.84414   0.00000  Uiso   1.00
N273   N     0.80647   0.20880   0.70600   0.00000  Uiso   1.00
N274   N     0.21546   0.09883   0.65517   0.00000  Uiso   1.00
N275   N     0.83871   0.97591   0.54963   0.00000  Uiso   1.00
N276   N     0.82548   0.20272   0.41149   0.00000  Uiso   1.00
C277   C     0.93922   0.40088   0.64080   0.00000  Uiso   1.00
C278   C     0.01476   0.40077   0.68784   0.00000  Uiso   1.00
C279   C     0.06768   0.39729   0.56334   0.00000  Uiso   1.00
C280   C     0.13326   0.39783   0.63369   0.00000  Uiso   1.00
C281   C     0.24870   0.39708   0.67810   0.00000  Uiso   1.00
C282   C     0.91093   0.43465   0.71692   0.00000  Uiso   1.00
C283   C     0.87655   0.45965   0.61687   0.00000  Uiso   1.00
C284   C     0.85472   0.48871   0.71171   0.00000  Uiso   1.00
C285   C     0.80892   0.54055   0.80130   0.00000  Uiso   1.00
C286   C     0.90730   0.37214   0.75499   0.00000  Uiso   1.00
C287   C     0.86984   0.34458   0.68695   0.00000  Uiso   1.00
C288   C     0.84493   0.32102   0.81385   0.00000  Uiso   1.00
C289   C     0.79350   0.27580   0.96254   0.00000  Uiso   1.00
C290   C     0.96158   0.40803   0.98715   0.00000  Uiso   1.00
C291   C     0.02690   0.40465   0.87596   0.00000  Uiso   1.00
C292   C     0.09242   0.40520   0.94653   0.00000  Uiso   1.00
C293   C     0.14542   0.40172   0.82215   0.00000  Uiso   1.00
C294   C     0.92307   0.43853   0.90504   0.00000  Uiso   1.00
C295   C     0.90128   0.46756   0.00005   0.00000  Uiso   1.00
C296   C     0.86688   0.49261   0.90017   0.00000  Uiso   1.00
C297   C     0.91944   0.37602   0.94311   0.00000  Uiso   1.00
C298   C     0.89458   0.35250   0.07014   0.00000  Uiso   1.00
C299   C     0.85710   0.32491   0.00231   0.00000  Uiso   1.00
H300   H     0.92976   0.39786   0.49435   0.00000  Uiso   1.00
H301   H     0.05826   0.39429   0.41776   0.00000  Uiso   1.00
H302   H     0.86715   0.45664   0.47130   0.00000  Uiso   1.00
H303   H     0.86045   0.34159   0.54137   0.00000  Uiso   1.00
H304   H     0.20608   0.39205   0.41581   0.00000  Uiso   1.00
H305   H     0.80309   0.52351   0.52870   0.00000  Uiso   1.00
H306   H     0.78896   0.28091   0.67645   0.00000  Uiso   1.00
H307   H     0.97103   0.41106   0.13361   0.00000  Uiso   1.00
H308   H     0.10180   0.40821   0.09211   0.00000  Uiso   1.00
H309   H     0.91069   0.47056   0.14563   0.00000  Uiso   1.00
H310   H     0.90399   0.35551   0.21571   0.00000  Uiso   1.00
H311   H     0.24141   0.40335   0.96313   0.00000  Uiso   1.00
H312   H     0.83843   0.53482   0.07601   0.00000  Uiso   1.00
H313   H     0.82430   0.29221   0.22378   0.00000  Uiso   1.00
O314   O     0.30902   0.39560   0.65063   0.00000  Uiso   1.00
O315   O     0.78031   0.56807   0.79873   0.00000  Uiso   1.00
O316   O     0.76178   0.24978   0.99258   0.00000  Uiso   1.00
N317   N     0.19645   0.39509   0.55032   0.00000  Uiso   1.00
N318   N     0.81969   0.51801   0.65586   0.00000  Uiso   1.00
N319   N     0.80647   0.29120   0.79400   0.00000  Uiso   1.00
N320   N     0.21546   0.40117   0.84483   0.00000  Uiso   1.00
N321   N     0.83871   0.52409   0.95037   0.00000  Uiso   1.00
N322   N     0.82548   0.29728   0.08851   0.00000  Uiso   1.00
C323   C     0.56078   0.59912   0.64080   0.00000  Uiso   1.00
C324   C     0.48524   0.59923   0.68784   0.00000  Uiso   1.00
C325   C     0.43232   0.60271   0.56334   0.00000  Uiso   1.00
C326   C     0.36674   0.60217   0.63369   0.00000  Uiso   1.00
C327   C     0.25130   0.60292   0.67810   0.00000  Uiso   1.00
C328   C     0.58907   0.56535   0.71692   0.00000  Uiso   1.00
C329   C     0.62345   0.54035   0.61687   0.00000  Uiso   1.00
C330   C     0.64528   0.51129   0.71171   0.00000  Uiso   1.00
C331   C     0.69108   0.45945   0.80130   0.00000  Uiso   1.00
C332   C     0.59270   0.62786   0.75499   0.00000  Uiso   1.00
C333   C     0.63016   0.65542   0.68695   0.00000  Uiso   1.00
C334   C     0.65507   0.67898   0.81385   0.00000  Uiso   1.00
C335   C     0.70650   0.72420   0.96254   0.00000  Uiso   1.00
C336   C     0.53842   0.59197   0.98715   0.00000  Uiso   1.00
C337   C     0.47310   0.59535   0.87596   0.00000  Uiso   1.00
C338   C     0.40758   0.59480   0.94653   0.00000  Uiso   1.00
C339   C     0.35458   0.59828   0.82215   0.00000  Uiso   1.00
C340   C     0.57693   0.56147   0.90504   0.00000  Uiso   1.00
C341   C     0.59872   0.53244   0.00005   0.00000  Uiso   1.00
C342   C     0.63312   0.50739   0.90017   0.00000  Uiso   1.00
C343   C     0.58056   0.62398   0.94311   0.00000  Uiso   1.00
C344   C     0.60542   0.64750   0.07014   0.00000  Uiso   1.00
C345   C     0.64290   0.67509   0.00231   0.00000  Uiso   1.00
H346   H     0.57024   0.60214   0.49435   0.00000  Uiso   1.00
H347   H     0.44174   0.60571   0.41776   0.00000  Uiso   1.00
H348   H     0.63285   0.54336   0.47130   0.00000  Uiso   1.00
H349   H     0.63955   0.65841   0.54137   0.00000  Uiso   1.00
H350   H     0.29392   0.60795   0.41581   0.00000  Uiso   1.00
H351   H     0.69691   0.47649   0.52870   0.00000  Uiso   1.00
H352   H     0.71104   0.71909   0.67645   0.00000  Uiso   1.00
H353   H     0.52897   0.58894   0.13361   0.00000  Uiso   1.00
H354   H     0.39820   0.59179   0.09211   0.00000  Uiso   1.00
H355   H     0.58931   0.52944   0.14563   0.00000  Uiso   1.00
H356   H     0.59601   0.64449   0.21571   0.00000  Uiso   1.00
H357   H     0.25859   0.59665   0.96313   0.00000  Uiso   1.00
H358   H     0.66157   0.46518   0.07601   0.00000  Uiso   1.00
H359   H     0.67570   0.70779   0.22378   0.00000  Uiso   1.00
O360   O     0.19098   0.60440   0.65063   0.00000  Uiso   1.00
O361   O     0.71969   0.43193   0.79873   0.00000  Uiso   1.00
O362   O     0.73822   0.75022   0.99258   0.00000  Uiso   1.00
N363   N     0.30355   0.60491   0.55032   0.00000  Uiso   1.00
N364   N     0.68031   0.48199   0.65586   0.00000  Uiso   1.00
N365   N     0.69353   0.70880   0.79400   0.00000  Uiso   1.00
N366   N     0.28454   0.59883   0.84483   0.00000  Uiso   1.00
N367   N     0.66129   0.47591   0.95037   0.00000  Uiso   1.00
N368   N     0.67452   0.70272   0.08851   0.00000  Uiso   1.00
