data_job_04109
_audit_creation_date              2018-12-19
_audit_creation_method            'Materials Studio'
_symmetry_space_group_name_H-M    'P1'
_symmetry_Int_Tables_number       1
_symmetry_cell_setting            triclinic
loop_
_symmetry_equiv_pos_as_xyz
  x,y,z
_cell_length_a                    12.4242
_cell_length_b                    12.4242
_cell_length_c                    14.2665
_cell_angle_alpha                 90.0000
_cell_angle_beta                  90.0000
_cell_angle_gamma                 120.0000
loop_
_atom_site_label
_atom_site_type_symbol
_atom_site_fract_x
_atom_site_fract_y
_atom_site_fract_z
_atom_site_U_iso_or_equiv
_atom_site_adp_type
_atom_site_occupancy
C1     C     0.87639   0.18719   0.40911   0.00000  Uiso   1.00
C2     C     0.90723   0.30935   0.45648   0.00000  Uiso   1.00
C3     C     0.01191   0.42396   0.43949   0.00000  Uiso   1.00
C4     C     0.02312   0.52457   0.49003   0.00000  Uiso   1.00
C5     C     0.08477   0.71632   0.55370   0.00000  Uiso   1.00
C6     C     0.85968   0.09731   0.48801   0.00000  Uiso   1.00
C7     C     0.92436   0.03362   0.49752   0.00000  Uiso   1.00
C8     C     0.89553   0.95572   0.57460   0.00000  Uiso   1.00
C9     C     0.88330   0.81819   0.68718   0.00000  Uiso   1.00
C10    C     0.74835   0.13769   0.36507   0.00000  Uiso   1.00
C11    C     0.71941   0.10793   0.27121   0.00000  Uiso   1.00
C12    C     0.59684   0.06399   0.24479   0.00000  Uiso   1.00
C13    C     0.41176   0.98917   0.16649   0.00000  Uiso   1.00
C14    C     0.71016   0.16205   0.52909   0.00000  Uiso   1.00
C15    C     0.81694   0.29569   0.52165   0.00000  Uiso   1.00
C16    C     0.82799   0.39615   0.57223   0.00000  Uiso   1.00
C17    C     0.93267   0.51090   0.55531   0.00000  Uiso   1.00
C18    C     0.76939   0.08365   0.55318   0.00000  Uiso   1.00
C19    C     0.74045   0.00581   0.63026   0.00000  Uiso   1.00
C20    C     0.80508   0.94204   0.63988   0.00000  Uiso   1.00
C21    C     0.65806   0.12404   0.43024   0.00000  Uiso   1.00
C22    C     0.53551   0.08013   0.40396   0.00000  Uiso   1.00
C23    C     0.50639   0.05031   0.31008   0.00000  Uiso   1.00
H24    H     0.94668   0.19782   0.35838   0.00000  Uiso   1.00
H25    H     0.08177   0.43449   0.38906   0.00000  Uiso   1.00
H26    H     0.99422   0.04420   0.44707   0.00000  Uiso   1.00
H27    H     0.78931   0.11851   0.22080   0.00000  Uiso   1.00
H28    H     0.19173   0.69086   0.45183   0.00000  Uiso   1.00
H29    H     0.00712   0.86788   0.57414   0.00000  Uiso   1.00
H30    H     0.57502   0.02456   0.09701   0.00000  Uiso   1.00
H31    H     0.63986   0.15142   0.57983   0.00000  Uiso   1.00
H32    H     0.75811   0.38556   0.62266   0.00000  Uiso   1.00
H33    H     0.67057   0.99527   0.68067   0.00000  Uiso   1.00
H34    H     0.46566   0.06957   0.45440   0.00000  Uiso   1.00
H35    H     0.92905   0.65114   0.64143   0.00000  Uiso   1.00
H36    H     0.74443   0.82816   0.76374   0.00000  Uiso   1.00
H37    H     0.31233   0.98484   0.28661   0.00000  Uiso   1.00
O38    O     0.14373   0.82585   0.57083   0.00000  Uiso   1.00
O39    O     0.90151   0.74612   0.73129   0.00000  Uiso   1.00
O40    O     0.33461   0.95169   0.10530   0.00000  Uiso   1.00
N41    N     0.11367   0.64938   0.49056   0.00000  Uiso   1.00
N42    N     0.94108   0.87996   0.60492   0.00000  Uiso   1.00
N43    N     0.53710   0.02641   0.15885   0.00000  Uiso   1.00
N44    N     0.97232   0.62801   0.59258   0.00000  Uiso   1.00
N45    N     0.79973   0.85859   0.70695   0.00000  Uiso   1.00
N46    N     0.39574   0.00504   0.26087   0.00000  Uiso   1.00
C47    C     0.81281   0.68920   0.07578   0.00000  Uiso   1.00
C48    C     0.69065   0.59788   0.12315   0.00000  Uiso   1.00
C49    C     0.57604   0.58794   0.10615   0.00000  Uiso   1.00
C50    C     0.47543   0.49855   0.15670   0.00000  Uiso   1.00
C51    C     0.28368   0.36846   0.22037   0.00000  Uiso   1.00
C52    C     0.90269   0.76237   0.15468   0.00000  Uiso   1.00
C53    C     0.96638   0.89074   0.16418   0.00000  Uiso   1.00
C54    C     0.04428   0.93982   0.24127   0.00000  Uiso   1.00
C55    C     0.18181   0.06511   0.35385   0.00000  Uiso   1.00
C56    C     0.86231   0.61066   0.03174   0.00000  Uiso   1.00
C57    C     0.89207   0.61149   0.93788   0.00000  Uiso   1.00
C58    C     0.93601   0.53285   0.91146   0.00000  Uiso   1.00
C59    C     0.01083   0.42259   0.83316   0.00000  Uiso   1.00
C60    C     0.83795   0.54811   0.19576   0.00000  Uiso   1.00
C61    C     0.70431   0.52125   0.18832   0.00000  Uiso   1.00
C62    C     0.60385   0.43184   0.23890   0.00000  Uiso   1.00
C63    C     0.48910   0.42177   0.22198   0.00000  Uiso   1.00
C64    C     0.91635   0.68574   0.21984   0.00000  Uiso   1.00
C65    C     0.99419   0.73464   0.29693   0.00000  Uiso   1.00
C66    C     0.05796   0.86305   0.30655   0.00000  Uiso   1.00
C67    C     0.87596   0.53402   0.09690   0.00000  Uiso   1.00
C68    C     0.91987   0.45538   0.07062   0.00000  Uiso   1.00
C69    C     0.94969   0.45608   0.97674   0.00000  Uiso   1.00
H70    H     0.80218   0.74887   0.02505   0.00000  Uiso   1.00
H71    H     0.56551   0.64728   0.05572   0.00000  Uiso   1.00
H72    H     0.95580   0.95002   0.11374   0.00000  Uiso   1.00
H73    H     0.88149   0.67080   0.88747   0.00000  Uiso   1.00
H74    H     0.30914   0.50088   0.11850   0.00000  Uiso   1.00
H75    H     0.13212   0.13924   0.24081   0.00000  Uiso   1.00
H76    H     0.97544   0.55046   0.76367   0.00000  Uiso   1.00
H77    H     0.84858   0.48844   0.24649   0.00000  Uiso   1.00
H78    H     0.61444   0.37255   0.28932   0.00000  Uiso   1.00
H79    H     0.00473   0.67531   0.34734   0.00000  Uiso   1.00
H80    H     0.93043   0.39609   0.12107   0.00000  Uiso   1.00
H81    H     0.34886   0.27791   0.30810   0.00000  Uiso   1.00
H82    H     0.17184   0.91627   0.43041   0.00000  Uiso   1.00
H83    H     0.01516   0.32749   0.95328   0.00000  Uiso   1.00
O84    O     0.17415   0.31788   0.23750   0.00000  Uiso   1.00
O85    O     0.25388   0.15539   0.39795   0.00000  Uiso   1.00
O86    O     0.04831   0.38292   0.77197   0.00000  Uiso   1.00
N87    N     0.35062   0.46429   0.15723   0.00000  Uiso   1.00
N88    N     0.12004   0.06112   0.27159   0.00000  Uiso   1.00
N89    N     0.97359   0.51068   0.82551   0.00000  Uiso   1.00
N90    N     0.37199   0.34431   0.25925   0.00000  Uiso   1.00
N91    N     0.14141   0.94114   0.37361   0.00000  Uiso   1.00
N92    N     0.99496   0.39070   0.92754   0.00000  Uiso   1.00
C93    C     0.31080   0.12361   0.74244   0.00000  Uiso   1.00
C94    C     0.40212   0.09277   0.78981   0.00000  Uiso   1.00
C95    C     0.41206   0.98809   0.77282   0.00000  Uiso   1.00
C96    C     0.50145   0.97688   0.82336   0.00000  Uiso   1.00
C97    C     0.63154   0.91523   0.88704   0.00000  Uiso   1.00
C98    C     0.23763   0.14032   0.82134   0.00000  Uiso   1.00
C99    C     0.10926   0.07564   0.83085   0.00000  Uiso   1.00
C100   C     0.06018   0.10447   0.90793   0.00000  Uiso   1.00
C101   C     0.93489   0.11670   0.02052   0.00000  Uiso   1.00
C102   C     0.38934   0.25165   0.69840   0.00000  Uiso   1.00
C103   C     0.38851   0.28059   0.60454   0.00000  Uiso   1.00
C104   C     0.46715   0.40316   0.57812   0.00000  Uiso   1.00
C105   C     0.57741   0.58824   0.49983   0.00000  Uiso   1.00
C106   C     0.45189   0.28984   0.86242   0.00000  Uiso   1.00
C107   C     0.47875   0.18306   0.85498   0.00000  Uiso   1.00
C108   C     0.56816   0.17201   0.90556   0.00000  Uiso   1.00
C109   C     0.57823   0.06733   0.88865   0.00000  Uiso   1.00
C110   C     0.31426   0.23061   0.88651   0.00000  Uiso   1.00
C111   C     0.26536   0.25955   0.96359   0.00000  Uiso   1.00
C112   C     0.13695   0.19492   0.97322   0.00000  Uiso   1.00
C113   C     0.46598   0.34194   0.76357   0.00000  Uiso   1.00
C114   C     0.54462   0.46449   0.73729   0.00000  Uiso   1.00
C115   C     0.54392   0.49361   0.64341   0.00000  Uiso   1.00
H116   H     0.25113   0.05332   0.69171   0.00000  Uiso   1.00
H117   H     0.35272   0.91823   0.72239   0.00000  Uiso   1.00
H118   H     0.04998   0.00578   0.78040   0.00000  Uiso   1.00
H119   H     0.32920   0.21069   0.55414   0.00000  Uiso   1.00
H120   H     0.49912   0.80827   0.78516   0.00000  Uiso   1.00
H121   H     0.86076   0.99288   0.90747   0.00000  Uiso   1.00
H122   H     0.44954   0.42498   0.43034   0.00000  Uiso   1.00
H123   H     0.51156   0.36014   0.91316   0.00000  Uiso   1.00
H124   H     0.62745   0.24189   0.95599   0.00000  Uiso   1.00
H125   H     0.32469   0.32943   0.01401   0.00000  Uiso   1.00
H126   H     0.60391   0.53434   0.78774   0.00000  Uiso   1.00
H127   H     0.72209   0.07095   0.97477   0.00000  Uiso   1.00
H128   H     0.08373   0.25557   0.09707   0.00000  Uiso   1.00
H129   H     0.67251   0.68767   0.61994   0.00000  Uiso   1.00
O130   O     0.68212   0.85627   0.90417   0.00000  Uiso   1.00
O131   O     0.84461   0.09849   0.06462   0.00000  Uiso   1.00
O132   O     0.61708   0.66539   0.43863   0.00000  Uiso   1.00
N133   N     0.53571   0.88633   0.82390   0.00000  Uiso   1.00
N134   N     0.93888   0.05892   0.93826   0.00000  Uiso   1.00
N135   N     0.48932   0.46290   0.49218   0.00000  Uiso   1.00
N136   N     0.65569   0.02768   0.92592   0.00000  Uiso   1.00
N137   N     0.05886   0.20027   0.04028   0.00000  Uiso   1.00
N138   N     0.60930   0.60426   0.59420   0.00000  Uiso   1.00
