data_job_06168
_audit_creation_date              2018-12-19
_audit_creation_method            'Materials Studio'
_symmetry_space_group_name_H-M    'P1'
_symmetry_Int_Tables_number       1
_symmetry_cell_setting            triclinic
loop_
_symmetry_equiv_pos_as_xyz
  x,y,z
_cell_length_a                    15.5563
_cell_length_b                    15.2924
_cell_length_c                    14.5890
_cell_angle_alpha                 92.2185
_cell_angle_beta                  92.1955
_cell_angle_gamma                 90.8755
loop_
_atom_site_label
_atom_site_type_symbol
_atom_site_fract_x
_atom_site_fract_y
_atom_site_fract_z
_atom_site_U_iso_or_equiv
_atom_site_adp_type
_atom_site_occupancy
C1     C     0.24119   0.37081   0.84110   0.00000  Uiso   1.00
C2     C     0.28121   0.46131   0.86243   0.00000  Uiso   1.00
C3     C     0.23953   0.53272   0.90064   0.00000  Uiso   1.00
C4     C     0.28734   0.60980   0.91477   0.00000  Uiso   1.00
C5     C     0.33633   0.74952   0.95138   0.00000  Uiso   1.00
C6     C     0.25359   0.35119   0.73922   0.00000  Uiso   1.00
C7     C     0.18868   0.33000   0.67386   0.00000  Uiso   1.00
C8     C     0.21325   0.31437   0.58428   0.00000  Uiso   1.00
C9     C     0.21936   0.28306   0.42963   0.00000  Uiso   1.00
C10    C     0.29774   0.30670   0.89228   0.00000  Uiso   1.00
C11    C     0.26996   0.24809   0.95559   0.00000  Uiso   1.00
C12    C     0.33170   0.19498   0.99486   0.00000  Uiso   1.00
C13    C     0.40636   0.09460   0.07786   0.00000  Uiso   1.00
C14    C     0.40021   0.38070   0.79826   0.00000  Uiso   1.00
C15    C     0.36758   0.46668   0.83915   0.00000  Uiso   1.00
C16    C     0.41547   0.54367   0.85323   0.00000  Uiso   1.00
C17    C     0.37387   0.61518   0.89146   0.00000  Uiso   1.00
C18    C     0.33996   0.35656   0.71595   0.00000  Uiso   1.00
C19    C     0.36462   0.34095   0.62645   0.00000  Uiso   1.00
C20    C     0.29978   0.31975   0.56097   0.00000  Uiso   1.00
C21    C     0.38412   0.31207   0.86901   0.00000  Uiso   1.00
C22    C     0.44590   0.25904   0.90819   0.00000  Uiso   1.00
C23    C     0.41822   0.20036   0.97155   0.00000  Uiso   1.00
H24    H     0.17394   0.36662   0.85921   0.00000  Uiso   1.00
H25    H     0.17268   0.52854   0.91863   0.00000  Uiso   1.00
H26    H     0.12185   0.32584   0.69189   0.00000  Uiso   1.00
H27    H     0.20312   0.24395   0.97358   0.00000  Uiso   1.00
H28    H     0.20937   0.71043   0.97420   0.00000  Uiso   1.00
H29    H     0.10219   0.28301   0.49612   0.00000  Uiso   1.00
H30    H     0.27355   0.11031   0.09012   0.00000  Uiso   1.00
H31    H     0.46746   0.38488   0.78014   0.00000  Uiso   1.00
H32    H     0.48231   0.54781   0.83522   0.00000  Uiso   1.00
H33    H     0.43147   0.34511   0.60847   0.00000  Uiso   1.00
H34    H     0.51274   0.26322   0.89017   0.00000  Uiso   1.00
H35    H     0.46068   0.72608   0.90650   0.00000  Uiso   1.00
H36    H     0.35349   0.29864   0.42841   0.00000  Uiso   1.00
H37    H     0.52485   0.12595   0.02242   0.00000  Uiso   1.00
O38    O     0.33949   0.82511   0.97798   0.00000  Uiso   1.00
O39    O     0.19887   0.26432   0.35076   0.00000  Uiso   1.00
O40    O     0.42369   0.03776   0.13008   0.00000  Uiso   1.00
N41    N     0.26649   0.69175   0.95073   0.00000  Uiso   1.00
N42    N     0.16627   0.29214   0.50374   0.00000  Uiso   1.00
N43    N     0.32647   0.13067   0.05907   0.00000  Uiso   1.00
N44    N     0.40171   0.70017   0.91430   0.00000  Uiso   1.00
N45    N     0.30150   0.30056   0.46731   0.00000  Uiso   1.00
N46    N     0.46170   0.13909   0.02264   0.00000  Uiso   1.00
C47    C     0.84567   0.24222   0.36645   0.00000  Uiso   1.00
C48    C     0.86419   0.28362   0.46208   0.00000  Uiso   1.00
C49    C     0.90013   0.24166   0.53664   0.00000  Uiso   1.00
C50    C     0.91190   0.29090   0.61825   0.00000  Uiso   1.00
C51    C     0.94418   0.34179   0.76572   0.00000  Uiso   1.00
C52    C     0.75006   0.25516   0.34522   0.00000  Uiso   1.00
C53    C     0.69005   0.18926   0.32151   0.00000  Uiso   1.00
C54    C     0.60574   0.21455   0.30473   0.00000  Uiso   1.00
C55    C     0.46084   0.22125   0.27070   0.00000  Uiso   1.00
C56    C     0.89326   0.29893   0.30052   0.00000  Uiso   1.00
C57    C     0.95363   0.26985   0.23921   0.00000  Uiso   1.00
C58    C     0.98987   0.33200   0.18478   0.00000  Uiso   1.00
C59    C     0.06731   0.40667   0.08137   0.00000  Uiso   1.00
C60    C     0.80266   0.40428   0.37879   0.00000  Uiso   1.00
C61    C     0.84083   0.37165   0.46878   0.00000  Uiso   1.00
C62    C     0.85255   0.42097   0.55029   0.00000  Uiso   1.00
C63    C     0.88850   0.37909   0.62496   0.00000  Uiso   1.00
C64    C     0.72670   0.34318   0.35192   0.00000  Uiso   1.00
C65    C     0.64246   0.36857   0.33516   0.00000  Uiso   1.00
C66    C     0.58234   0.30274   0.31144   0.00000  Uiso   1.00
C67    C     0.86990   0.38696   0.30722   0.00000  Uiso   1.00
C68    C     0.90605   0.44916   0.25287   0.00000  Uiso   1.00
C69    C     0.96646   0.42018   0.19149   0.00000  Uiso   1.00
H70    H     0.86385   0.17368   0.36124   0.00000  Uiso   1.00
H71    H     0.91819   0.17353   0.53143   0.00000  Uiso   1.00
H72    H     0.70815   0.12115   0.31632   0.00000  Uiso   1.00
H73    H     0.97169   0.20173   0.23405   0.00000  Uiso   1.00
H74    H     0.96811   0.21218   0.72309   0.00000  Uiso   1.00
H75    H     0.52522   0.10173   0.26949   0.00000  Uiso   1.00
H76    H     0.08095   0.27164   0.09599   0.00000  Uiso   1.00
H77    H     0.78447   0.47282   0.38401   0.00000  Uiso   1.00
H78    H     0.83446   0.48909   0.55546   0.00000  Uiso   1.00
H79    H     0.62441   0.43670   0.34034   0.00000  Uiso   1.00
H80    H     0.88796   0.51727   0.25807   0.00000  Uiso   1.00
H81    H     0.90015   0.46829   0.74259   0.00000  Uiso   1.00
H82    H     0.45726   0.35784   0.28898   0.00000  Uiso   1.00
H83    H     0.01299   0.52775   0.11549   0.00000  Uiso   1.00
O84    O     0.96843   0.34553   0.84522   0.00000  Uiso   1.00
O85    O     0.38737   0.20062   0.25010   0.00000  Uiso   1.00
O86    O     0.11648   0.42354   0.02248   0.00000  Uiso   1.00
N87    N     0.94528   0.27023   0.70414   0.00000  Uiso   1.00
N88    N     0.53119   0.16696   0.28007   0.00000  Uiso   1.00
N89    N     0.05074   0.32581   0.11785   0.00000  Uiso   1.00
N90    N     0.90871   0.40804   0.71464   0.00000  Uiso   1.00
N91    N     0.49463   0.30477   0.29056   0.00000  Uiso   1.00
N92    N     0.01417   0.46362   0.12834   0.00000  Uiso   1.00
C93    C     0.37024   0.84223   0.24114   0.00000  Uiso   1.00
C94    C     0.45926   0.86097   0.28561   0.00000  Uiso   1.00
C95    C     0.52894   0.89680   0.24279   0.00000  Uiso   1.00
C96    C     0.60486   0.90880   0.29526   0.00000  Uiso   1.00
C97    C     0.74219   0.94137   0.35031   0.00000  Uiso   1.00
C98    C     0.35185   0.74519   0.25312   0.00000  Uiso   1.00
C99    C     0.33121   0.68367   0.18298   0.00000  Uiso   1.00
C100   C     0.31670   0.59821   0.20811   0.00000  Uiso   1.00
C101   C     0.28722   0.45104   0.21273   0.00000  Uiso   1.00
C102   C     0.30708   0.89146   0.30073   0.00000  Uiso   1.00
C103   C     0.24879   0.95292   0.27061   0.00000  Uiso   1.00
C104   C     0.19657   0.99059   0.33582   0.00000  Uiso   1.00
C105   C     0.09758   0.07053   0.41435   0.00000  Uiso   1.00
C106   C     0.38114   0.79984   0.41048   0.00000  Uiso   1.00
C107   C     0.46518   0.83794   0.37759   0.00000  Uiso   1.00
C108   C     0.54100   0.84990   0.43015   0.00000  Uiso   1.00
C109   C     0.61079   0.88574   0.38741   0.00000  Uiso   1.00
C110   C     0.35777   0.72216   0.34510   0.00000  Uiso   1.00
C111   C     0.34327   0.63677   0.37034   0.00000  Uiso   1.00
C112   C     0.32263   0.57515   0.30026   0.00000  Uiso   1.00
C113   C     0.31300   0.86844   0.39271   0.00000  Uiso   1.00
C114   C     0.26086   0.90602   0.45797   0.00000  Uiso   1.00
C115   C     0.20250   0.96752   0.42797   0.00000  Uiso   1.00
H116   H     0.36562   0.86015   0.16953   0.00000  Uiso   1.00
H117   H     0.52433   0.91460   0.17160   0.00000  Uiso   1.00
H118   H     0.32663   0.70151   0.11181   0.00000  Uiso   1.00
H119   H     0.24422   0.97071   0.19943   0.00000  Uiso   1.00
H120   H     0.70292   0.96479   0.21446   0.00000  Uiso   1.00
H121   H     0.28601   0.51549   0.08839   0.00000  Uiso   1.00
H122   H     0.11224   0.08315   0.27314   0.00000  Uiso   1.00
H123   H     0.38575   0.78191   0.48209   0.00000  Uiso   1.00
H124   H     0.54557   0.83208   0.50132   0.00000  Uiso   1.00
H125   H     0.34786   0.61898   0.44153   0.00000  Uiso   1.00
H126   H     0.26546   0.88819   0.52914   0.00000  Uiso   1.00
H127   H     0.72015   0.89780   0.48206   0.00000  Uiso   1.00
H128   H     0.30324   0.44850   0.35599   0.00000  Uiso   1.00
H129   H     0.12947   0.01617   0.54075   0.00000  Uiso   1.00
O130   O     0.81631   0.96568   0.35526   0.00000  Uiso   1.00
O131   O     0.26933   0.37622   0.18986   0.00000  Uiso   1.00
O132   O     0.04135   0.12098   0.43226   0.00000  Uiso   1.00
N133   N     0.68503   0.94216   0.27480   0.00000  Uiso   1.00
N134   N     0.29526   0.52208   0.15693   0.00000  Uiso   1.00
N135   N     0.13279   0.05278   0.32966   0.00000  Uiso   1.00
N136   N     0.69431   0.90611   0.41880   0.00000  Uiso   1.00
N137   N     0.30454   0.48604   0.30093   0.00000  Uiso   1.00
N138   N     0.14206   0.01674   0.47366   0.00000  Uiso   1.00
C139   C     0.75881   0.62919   0.15890   0.00000  Uiso   1.00
C140   C     0.71879   0.53869   0.13757   0.00000  Uiso   1.00
C141   C     0.76047   0.46728   0.09937   0.00000  Uiso   1.00
C142   C     0.71266   0.39020   0.08523   0.00000  Uiso   1.00
C143   C     0.66367   0.25048   0.04862   0.00000  Uiso   1.00
C144   C     0.74641   0.64881   0.26078   0.00000  Uiso   1.00
C145   C     0.81132   0.67000   0.32615   0.00000  Uiso   1.00
C146   C     0.78675   0.68563   0.41572   0.00000  Uiso   1.00
C147   C     0.78064   0.71694   0.57037   0.00000  Uiso   1.00
C148   C     0.70226   0.69330   0.10772   0.00000  Uiso   1.00
C149   C     0.73004   0.75191   0.04441   0.00000  Uiso   1.00
C150   C     0.66830   0.80502   0.00514   0.00000  Uiso   1.00
C151   C     0.59364   0.90540   0.92214   0.00000  Uiso   1.00
C152   C     0.59979   0.61930   0.20174   0.00000  Uiso   1.00
C153   C     0.63242   0.53332   0.16085   0.00000  Uiso   1.00
C154   C     0.58453   0.45633   0.14677   0.00000  Uiso   1.00
C155   C     0.62613   0.38482   0.10854   0.00000  Uiso   1.00
C156   C     0.66004   0.64344   0.28405   0.00000  Uiso   1.00
C157   C     0.63537   0.65905   0.37355   0.00000  Uiso   1.00
C158   C     0.70022   0.68025   0.43903   0.00000  Uiso   1.00
C159   C     0.61588   0.68793   0.13099   0.00000  Uiso   1.00
C160   C     0.55410   0.74096   0.09181   0.00000  Uiso   1.00
C161   C     0.58178   0.79964   0.02845   0.00000  Uiso   1.00
H162   H     0.82606   0.63338   0.14079   0.00000  Uiso   1.00
H163   H     0.82732   0.47146   0.08137   0.00000  Uiso   1.00
H164   H     0.87815   0.67416   0.30811   0.00000  Uiso   1.00
H165   H     0.79688   0.75605   0.02642   0.00000  Uiso   1.00
H166   H     0.79063   0.28957   0.02580   0.00000  Uiso   1.00
H167   H     0.89781   0.71699   0.50388   0.00000  Uiso   1.00
H168   H     0.72645   0.88969   0.90988   0.00000  Uiso   1.00
H169   H     0.53254   0.61512   0.21986   0.00000  Uiso   1.00
H170   H     0.51769   0.45219   0.16478   0.00000  Uiso   1.00
H171   H     0.56853   0.65489   0.39153   0.00000  Uiso   1.00
H172   H     0.48726   0.73678   0.10983   0.00000  Uiso   1.00
H173   H     0.53932   0.27392   0.09350   0.00000  Uiso   1.00
H174   H     0.64651   0.70136   0.57159   0.00000  Uiso   1.00
H175   H     0.47515   0.87405   0.97758   0.00000  Uiso   1.00
O176   O     0.66051   0.17489   0.02202   0.00000  Uiso   1.00
O177   O     0.80113   0.73568   0.64924   0.00000  Uiso   1.00
O178   O     0.57631   0.96224   0.86992   0.00000  Uiso   1.00
N179   N     0.73351   0.30825   0.04927   0.00000  Uiso   1.00
N180   N     0.83373   0.70786   0.49626   0.00000  Uiso   1.00
N181   N     0.67353   0.86933   0.94093   0.00000  Uiso   1.00
N182   N     0.59829   0.29983   0.08570   0.00000  Uiso   1.00
N183   N     0.69850   0.69944   0.53269   0.00000  Uiso   1.00
N184   N     0.53830   0.86091   0.97736   0.00000  Uiso   1.00
C185   C     0.15433   0.75778   0.63355   0.00000  Uiso   1.00
C186   C     0.13581   0.71638   0.53792   0.00000  Uiso   1.00
C187   C     0.09987   0.75834   0.46336   0.00000  Uiso   1.00
C188   C     0.08810   0.70910   0.38175   0.00000  Uiso   1.00
C189   C     0.05582   0.65821   0.23428   0.00000  Uiso   1.00
C190   C     0.24994   0.74484   0.65478   0.00000  Uiso   1.00
C191   C     0.30995   0.81074   0.67849   0.00000  Uiso   1.00
C192   C     0.39426   0.78545   0.69527   0.00000  Uiso   1.00
C193   C     0.53916   0.77875   0.72930   0.00000  Uiso   1.00
C194   C     0.10674   0.70107   0.69948   0.00000  Uiso   1.00
C195   C     0.04637   0.73015   0.76079   0.00000  Uiso   1.00
C196   C     0.01013   0.66800   0.81522   0.00000  Uiso   1.00
C197   C     0.93269   0.59333   0.91864   0.00000  Uiso   1.00
C198   C     0.19734   0.59572   0.62121   0.00000  Uiso   1.00
C199   C     0.15917   0.62835   0.53122   0.00000  Uiso   1.00
C200   C     0.14745   0.57903   0.44971   0.00000  Uiso   1.00
C201   C     0.11150   0.62091   0.37504   0.00000  Uiso   1.00
C202   C     0.27330   0.65682   0.64808   0.00000  Uiso   1.00
C203   C     0.35754   0.63143   0.66484   0.00000  Uiso   1.00
C204   C     0.41766   0.69726   0.68856   0.00000  Uiso   1.00
C205   C     0.13010   0.61304   0.69278   0.00000  Uiso   1.00
C206   C     0.09395   0.55084   0.74713   0.00000  Uiso   1.00
C207   C     0.03354   0.57982   0.80851   0.00000  Uiso   1.00
H208   H     0.13615   0.82632   0.63876   0.00000  Uiso   1.00
H209   H     0.08181   0.82647   0.46857   0.00000  Uiso   1.00
H210   H     0.29185   0.87885   0.68368   0.00000  Uiso   1.00
H211   H     0.02831   0.79827   0.76595   0.00000  Uiso   1.00
H212   H     0.03189   0.78782   0.27691   0.00000  Uiso   1.00
H213   H     0.47478   0.89827   0.73051   0.00000  Uiso   1.00
H214   H     0.91904   0.72836   0.90401   0.00000  Uiso   1.00
H215   H     0.21553   0.52718   0.61600   0.00000  Uiso   1.00
H216   H     0.16554   0.51091   0.44455   0.00000  Uiso   1.00
H217   H     0.37559   0.56330   0.65966   0.00000  Uiso   1.00
H218   H     0.11204   0.48272   0.74193   0.00000  Uiso   1.00
H219   H     0.09985   0.53171   0.25741   0.00000  Uiso   1.00
H220   H     0.54274   0.64216   0.71102   0.00000  Uiso   1.00
H221   H     0.98701   0.47225   0.88451   0.00000  Uiso   1.00
O222   O     0.03157   0.65447   0.15478   0.00000  Uiso   1.00
O223   O     0.61263   0.79938   0.74991   0.00000  Uiso   1.00
O224   O     0.88352   0.57646   0.97752   0.00000  Uiso   1.00
N225   N     0.05472   0.72977   0.29586   0.00000  Uiso   1.00
N226   N     0.46881   0.83304   0.71993   0.00000  Uiso   1.00
N227   N     0.94926   0.67419   0.88215   0.00000  Uiso   1.00
N228   N     0.09129   0.59196   0.28536   0.00000  Uiso   1.00
N229   N     0.50537   0.69523   0.70944   0.00000  Uiso   1.00
N230   N     0.98583   0.53638   0.87166   0.00000  Uiso   1.00
C231   C     0.62976   0.15777   0.75886   0.00000  Uiso   1.00
C232   C     0.54074   0.13903   0.71439   0.00000  Uiso   1.00
C233   C     0.47106   0.10320   0.75721   0.00000  Uiso   1.00
C234   C     0.39514   0.09120   0.70474   0.00000  Uiso   1.00
C235   C     0.25781   0.05863   0.64969   0.00000  Uiso   1.00
C236   C     0.64815   0.25481   0.74688   0.00000  Uiso   1.00
C237   C     0.66879   0.31633   0.81702   0.00000  Uiso   1.00
C238   C     0.68330   0.40179   0.79189   0.00000  Uiso   1.00
C239   C     0.71278   0.54896   0.78727   0.00000  Uiso   1.00
C240   C     0.69292   0.10854   0.69927   0.00000  Uiso   1.00
C241   C     0.75121   0.04708   0.72939   0.00000  Uiso   1.00
C242   C     0.80343   0.00941   0.66418   0.00000  Uiso   1.00
C243   C     0.90242   0.92947   0.58565   0.00000  Uiso   1.00
C244   C     0.61886   0.20016   0.58952   0.00000  Uiso   1.00
C245   C     0.53482   0.16206   0.62241   0.00000  Uiso   1.00
C246   C     0.45900   0.15010   0.56986   0.00000  Uiso   1.00
C247   C     0.38921   0.11426   0.61259   0.00000  Uiso   1.00
C248   C     0.64223   0.27784   0.65490   0.00000  Uiso   1.00
C249   C     0.65673   0.36323   0.62966   0.00000  Uiso   1.00
C250   C     0.67737   0.42485   0.69974   0.00000  Uiso   1.00
C251   C     0.68700   0.13156   0.60729   0.00000  Uiso   1.00
C252   C     0.73914   0.09398   0.54203   0.00000  Uiso   1.00
C253   C     0.79750   0.03248   0.57204   0.00000  Uiso   1.00
H254   H     0.63438   0.13985   0.83047   0.00000  Uiso   1.00
H255   H     0.47566   0.08540   0.82840   0.00000  Uiso   1.00
H256   H     0.67337   0.29849   0.88819   0.00000  Uiso   1.00
H257   H     0.75578   0.02929   0.80057   0.00000  Uiso   1.00
H258   H     0.29708   0.03521   0.78555   0.00000  Uiso   1.00
H259   H     0.71399   0.48451   0.91161   0.00000  Uiso   1.00
H260   H     0.88776   0.91685   0.72686   0.00000  Uiso   1.00
H261   H     0.61425   0.21809   0.51791   0.00000  Uiso   1.00
H262   H     0.45443   0.16792   0.49868   0.00000  Uiso   1.00
H263   H     0.65214   0.38102   0.55847   0.00000  Uiso   1.00
H264   H     0.73454   0.11181   0.47086   0.00000  Uiso   1.00
H265   H     0.27985   0.10220   0.51794   0.00000  Uiso   1.00
H266   H     0.69676   0.55150   0.64401   0.00000  Uiso   1.00
H267   H     0.87053   0.98383   0.45925   0.00000  Uiso   1.00
O268   O     0.18369   0.03432   0.64474   0.00000  Uiso   1.00
O269   O     0.73067   0.62378   0.81014   0.00000  Uiso   1.00
O270   O     0.95864   0.87901   0.56774   0.00000  Uiso   1.00
N271   N     0.31497   0.05784   0.72520   0.00000  Uiso   1.00
N272   N     0.70474   0.47792   0.84307   0.00000  Uiso   1.00
N273   N     0.86721   0.94721   0.67034   0.00000  Uiso   1.00
N274   N     0.30569   0.09389   0.58120   0.00000  Uiso   1.00
N275   N     0.69546   0.51396   0.69907   0.00000  Uiso   1.00
N276   N     0.85794   0.98326   0.52634   0.00000  Uiso   1.00
