data_job_02565
_audit_creation_date              2018-12-19
_audit_creation_method            'Materials Studio'
_symmetry_space_group_name_H-M    'P1'
_symmetry_Int_Tables_number       1
_symmetry_cell_setting            triclinic
loop_
_symmetry_equiv_pos_as_xyz
  x,y,z
_cell_length_a                    22.2184
_cell_length_b                    17.4498
_cell_length_c                    14.6878
_cell_angle_alpha                 90.0000
_cell_angle_beta                  90.0000
_cell_angle_gamma                 90.0000
loop_
_atom_site_label
_atom_site_type_symbol
_atom_site_fract_x
_atom_site_fract_y
_atom_site_fract_z
_atom_site_U_iso_or_equiv
_atom_site_adp_type
_atom_site_occupancy
C1     C     0.75199   0.00289   0.43001   0.00000  Uiso   1.00
C2     C     0.71238   0.07393   0.43801   0.00000  Uiso   1.00
C3     C     0.67233   0.10009   0.37250   0.00000  Uiso   1.00
C4     C     0.64025   0.16620   0.39277   0.00000  Uiso   1.00
C5     C     0.57758   0.27068   0.39258   0.00000  Uiso   1.00
C6     C     0.81646   0.03033   0.44438   0.00000  Uiso   1.00
C7     C     0.86392   0.01981   0.38423   0.00000  Uiso   1.00
C8     C     0.91946   0.04921   0.40988   0.00000  Uiso   1.00
C9     C     0.01839   0.08594   0.41960   0.00000  Uiso   1.00
C10    C     0.73691   0.95300   0.51214   0.00000  Uiso   1.00
C11    C     0.71750   0.87745   0.50896   0.00000  Uiso   1.00
C12    C     0.70608   0.84173   0.59165   0.00000  Uiso   1.00
C13    C     0.68149   0.75840   0.70658   0.00000  Uiso   1.00
C14    C     0.76624   0.07379   0.58251   0.00000  Uiso   1.00
C15    C     0.72012   0.11245   0.52084   0.00000  Uiso   1.00
C16    C     0.68809   0.17854   0.54122   0.00000  Uiso   1.00
C17    C     0.64800   0.20478   0.47575   0.00000  Uiso   1.00
C18    C     0.82420   0.06884   0.52721   0.00000  Uiso   1.00
C19    C     0.87968   0.09825   0.55295   0.00000  Uiso   1.00
C20    C     0.92721   0.08779   0.49285   0.00000  Uiso   1.00
C21    C     0.74465   0.99151   0.59497   0.00000  Uiso   1.00
C22    C     0.73326   0.95590   0.67768   0.00000  Uiso   1.00
C23    C     0.71383   0.88032   0.67463   0.00000  Uiso   1.00
H24    H     0.74597   0.97290   0.36553   0.00000  Uiso   1.00
H25    H     0.66636   0.07027   0.30841   0.00000  Uiso   1.00
H26    H     0.85792   0.99000   0.32015   0.00000  Uiso   1.00
H27    H     0.71151   0.84766   0.44486   0.00000  Uiso   1.00
H28    H     0.58152   0.19522   0.28160   0.00000  Uiso   1.00
H29    H     0.98544   0.02593   0.30636   0.00000  Uiso   1.00
H30    H     0.67672   0.72580   0.56933   0.00000  Uiso   1.00
H31    H     0.77227   0.10378   0.64699   0.00000  Uiso   1.00
H32    H     0.69409   0.20833   0.60532   0.00000  Uiso   1.00
H33    H     0.88565   0.12805   0.61705   0.00000  Uiso   1.00
H34    H     0.73925   0.98572   0.74176   0.00000  Uiso   1.00
H35    H     0.60403   0.30728   0.52258   0.00000  Uiso   1.00
H36    H     0.00795   0.13798   0.54734   0.00000  Uiso   1.00
H37    H     0.69924   0.83785   0.81031   0.00000  Uiso   1.00
O38    O     0.54089   0.31768   0.36958   0.00000  Uiso   1.00
O39    O     0.07082   0.09556   0.40207   0.00000  Uiso   1.00
O40    O     0.66579   0.70180   0.74709   0.00000  Uiso   1.00
N41    N     0.59753   0.20724   0.34404   0.00000  Uiso   1.00
N42    N     0.97518   0.04897   0.36718   0.00000  Uiso   1.00
N43    N     0.68657   0.76836   0.61304   0.00000  Uiso   1.00
N44    N     0.60965   0.26753   0.47371   0.00000  Uiso   1.00
N45    N     0.98729   0.10927   0.49685   0.00000  Uiso   1.00
N46    N     0.69868   0.82866   0.74271   0.00000  Uiso   1.00
C47    C     0.74801   0.99711   0.93001   0.00000  Uiso   1.00
C48    C     0.78762   0.92607   0.93801   0.00000  Uiso   1.00
C49    C     0.82767   0.89991   0.87250   0.00000  Uiso   1.00
C50    C     0.85975   0.83380   0.89277   0.00000  Uiso   1.00
C51    C     0.92242   0.72932   0.89258   0.00000  Uiso   1.00
C52    C     0.68354   0.96967   0.94438   0.00000  Uiso   1.00
C53    C     0.63608   0.98019   0.88423   0.00000  Uiso   1.00
C54    C     0.58054   0.95079   0.90988   0.00000  Uiso   1.00
C55    C     0.48161   0.91406   0.91960   0.00000  Uiso   1.00
C56    C     0.76309   0.04700   0.01214   0.00000  Uiso   1.00
C57    C     0.78250   0.12255   0.00896   0.00000  Uiso   1.00
C58    C     0.79392   0.15827   0.09165   0.00000  Uiso   1.00
C59    C     0.81851   0.24160   0.20658   0.00000  Uiso   1.00
C60    C     0.73376   0.92621   0.08251   0.00000  Uiso   1.00
C61    C     0.77988   0.88755   0.02084   0.00000  Uiso   1.00
C62    C     0.81191   0.82146   0.04122   0.00000  Uiso   1.00
C63    C     0.85200   0.79522   0.97575   0.00000  Uiso   1.00
C64    C     0.67580   0.93116   0.02721   0.00000  Uiso   1.00
C65    C     0.62032   0.90175   0.05295   0.00000  Uiso   1.00
C66    C     0.57279   0.91221   0.99285   0.00000  Uiso   1.00
C67    C     0.75535   0.00849   0.09497   0.00000  Uiso   1.00
C68    C     0.76674   0.04410   0.17768   0.00000  Uiso   1.00
C69    C     0.78617   0.11968   0.17463   0.00000  Uiso   1.00
H70    H     0.75403   0.02710   0.86553   0.00000  Uiso   1.00
H71    H     0.83364   0.92973   0.80841   0.00000  Uiso   1.00
H72    H     0.64208   0.01000   0.82015   0.00000  Uiso   1.00
H73    H     0.78849   0.15234   0.94486   0.00000  Uiso   1.00
H74    H     0.91848   0.80478   0.78160   0.00000  Uiso   1.00
H75    H     0.51456   0.97407   0.80636   0.00000  Uiso   1.00
H76    H     0.82328   0.27420   0.06933   0.00000  Uiso   1.00
H77    H     0.72773   0.89622   0.14699   0.00000  Uiso   1.00
H78    H     0.80591   0.79167   0.10532   0.00000  Uiso   1.00
H79    H     0.61435   0.87195   0.11705   0.00000  Uiso   1.00
H80    H     0.76075   0.01428   0.24176   0.00000  Uiso   1.00
H81    H     0.89597   0.69272   0.02258   0.00000  Uiso   1.00
H82    H     0.49205   0.86202   0.04734   0.00000  Uiso   1.00
H83    H     0.80076   0.16215   0.31031   0.00000  Uiso   1.00
O84    O     0.95911   0.68232   0.86958   0.00000  Uiso   1.00
O85    O     0.42918   0.90444   0.90207   0.00000  Uiso   1.00
O86    O     0.83421   0.29820   0.24709   0.00000  Uiso   1.00
N87    N     0.90247   0.79276   0.84404   0.00000  Uiso   1.00
N88    N     0.52482   0.95103   0.86718   0.00000  Uiso   1.00
N89    N     0.81343   0.23164   0.11304   0.00000  Uiso   1.00
N90    N     0.89035   0.73247   0.97371   0.00000  Uiso   1.00
N91    N     0.51271   0.89073   0.99685   0.00000  Uiso   1.00
N92    N     0.80132   0.17134   0.24271   0.00000  Uiso   1.00
C93    C     0.24801   0.50289   0.06999   0.00000  Uiso   1.00
C94    C     0.28762   0.57393   0.06199   0.00000  Uiso   1.00
C95    C     0.32767   0.60009   0.12750   0.00000  Uiso   1.00
C96    C     0.35975   0.66620   0.10723   0.00000  Uiso   1.00
C97    C     0.42242   0.77068   0.10742   0.00000  Uiso   1.00
C98    C     0.18354   0.53033   0.05562   0.00000  Uiso   1.00
C99    C     0.13608   0.51981   0.11577   0.00000  Uiso   1.00
C100   C     0.08054   0.54921   0.09012   0.00000  Uiso   1.00
C101   C     0.98161   0.58594   0.08040   0.00000  Uiso   1.00
C102   C     0.26309   0.45300   0.98786   0.00000  Uiso   1.00
C103   C     0.28250   0.37745   0.99104   0.00000  Uiso   1.00
C104   C     0.29392   0.34173   0.90835   0.00000  Uiso   1.00
C105   C     0.31851   0.25840   0.79342   0.00000  Uiso   1.00
C106   C     0.23376   0.57379   0.91749   0.00000  Uiso   1.00
C107   C     0.27988   0.61245   0.97916   0.00000  Uiso   1.00
C108   C     0.31191   0.67854   0.95878   0.00000  Uiso   1.00
C109   C     0.35200   0.70478   0.02425   0.00000  Uiso   1.00
C110   C     0.17580   0.56884   0.97279   0.00000  Uiso   1.00
C111   C     0.12032   0.59825   0.94705   0.00000  Uiso   1.00
C112   C     0.07279   0.58779   0.00715   0.00000  Uiso   1.00
C113   C     0.25535   0.49151   0.90503   0.00000  Uiso   1.00
C114   C     0.26674   0.45590   0.82232   0.00000  Uiso   1.00
C115   C     0.28617   0.38032   0.82537   0.00000  Uiso   1.00
H116   H     0.25403   0.47290   0.13447   0.00000  Uiso   1.00
H117   H     0.33364   0.57027   0.19159   0.00000  Uiso   1.00
H118   H     0.14208   0.49000   0.17985   0.00000  Uiso   1.00
H119   H     0.28849   0.34766   0.05514   0.00000  Uiso   1.00
H120   H     0.41848   0.69522   0.21840   0.00000  Uiso   1.00
H121   H     0.01456   0.52593   0.19364   0.00000  Uiso   1.00
H122   H     0.32328   0.22580   0.93067   0.00000  Uiso   1.00
H123   H     0.22773   0.60378   0.85301   0.00000  Uiso   1.00
H124   H     0.30591   0.70833   0.89468   0.00000  Uiso   1.00
H125   H     0.11435   0.62805   0.88295   0.00000  Uiso   1.00
H126   H     0.26075   0.48572   0.75824   0.00000  Uiso   1.00
H127   H     0.39597   0.80728   0.97742   0.00000  Uiso   1.00
H128   H     0.99205   0.63798   0.95266   0.00000  Uiso   1.00
H129   H     0.30076   0.33785   0.68969   0.00000  Uiso   1.00
O130   O     0.45911   0.81768   0.13042   0.00000  Uiso   1.00
O131   O     0.92918   0.59556   0.09793   0.00000  Uiso   1.00
O132   O     0.33421   0.20180   0.75291   0.00000  Uiso   1.00
N133   N     0.40247   0.70724   0.15596   0.00000  Uiso   1.00
N134   N     0.02482   0.54897   0.13282   0.00000  Uiso   1.00
N135   N     0.31343   0.26836   0.88696   0.00000  Uiso   1.00
N136   N     0.39035   0.76753   0.02629   0.00000  Uiso   1.00
N137   N     0.01271   0.60927   0.00315   0.00000  Uiso   1.00
N138   N     0.30132   0.32866   0.75729   0.00000  Uiso   1.00
C139   C     0.25199   0.49711   0.56999   0.00000  Uiso   1.00
C140   C     0.21238   0.42607   0.56199   0.00000  Uiso   1.00
C141   C     0.17233   0.39991   0.62750   0.00000  Uiso   1.00
C142   C     0.14025   0.33380   0.60723   0.00000  Uiso   1.00
C143   C     0.07758   0.22932   0.60742   0.00000  Uiso   1.00
C144   C     0.31646   0.46967   0.55562   0.00000  Uiso   1.00
C145   C     0.36392   0.48019   0.61577   0.00000  Uiso   1.00
C146   C     0.41946   0.45079   0.59012   0.00000  Uiso   1.00
C147   C     0.51839   0.41406   0.58040   0.00000  Uiso   1.00
C148   C     0.23691   0.54700   0.48786   0.00000  Uiso   1.00
C149   C     0.21750   0.62255   0.49104   0.00000  Uiso   1.00
C150   C     0.20608   0.65827   0.40835   0.00000  Uiso   1.00
C151   C     0.18149   0.74160   0.29342   0.00000  Uiso   1.00
C152   C     0.26624   0.42621   0.41749   0.00000  Uiso   1.00
C153   C     0.22012   0.38755   0.47916   0.00000  Uiso   1.00
C154   C     0.18809   0.32146   0.45878   0.00000  Uiso   1.00
C155   C     0.14800   0.29522   0.52425   0.00000  Uiso   1.00
C156   C     0.32420   0.43116   0.47279   0.00000  Uiso   1.00
C157   C     0.37968   0.40175   0.44705   0.00000  Uiso   1.00
C158   C     0.42721   0.41221   0.50715   0.00000  Uiso   1.00
C159   C     0.24465   0.50849   0.40503   0.00000  Uiso   1.00
C160   C     0.23326   0.54410   0.32232   0.00000  Uiso   1.00
C161   C     0.21383   0.61968   0.32537   0.00000  Uiso   1.00
H162   H     0.24597   0.52710   0.63447   0.00000  Uiso   1.00
H163   H     0.16636   0.42973   0.69159   0.00000  Uiso   1.00
H164   H     0.35792   0.51000   0.67985   0.00000  Uiso   1.00
H165   H     0.21151   0.65234   0.55514   0.00000  Uiso   1.00
H166   H     0.08152   0.30478   0.71840   0.00000  Uiso   1.00
H167   H     0.48544   0.47407   0.69364   0.00000  Uiso   1.00
H168   H     0.17672   0.77420   0.43067   0.00000  Uiso   1.00
H169   H     0.27227   0.39622   0.35301   0.00000  Uiso   1.00
H170   H     0.19409   0.29167   0.39468   0.00000  Uiso   1.00
H171   H     0.38565   0.37195   0.38295   0.00000  Uiso   1.00
H172   H     0.23925   0.51428   0.25824   0.00000  Uiso   1.00
H173   H     0.10403   0.19272   0.47742   0.00000  Uiso   1.00
H174   H     0.50795   0.36202   0.45266   0.00000  Uiso   1.00
H175   H     0.19924   0.66215   0.18969   0.00000  Uiso   1.00
O176   O     0.04089   0.18232   0.63042   0.00000  Uiso   1.00
O177   O     0.57082   0.40444   0.59793   0.00000  Uiso   1.00
O178   O     0.16579   0.79820   0.25291   0.00000  Uiso   1.00
N179   N     0.09753   0.29276   0.65596   0.00000  Uiso   1.00
N180   N     0.47518   0.45103   0.63282   0.00000  Uiso   1.00
N181   N     0.18657   0.73164   0.38696   0.00000  Uiso   1.00
N182   N     0.10965   0.23247   0.52629   0.00000  Uiso   1.00
N183   N     0.48729   0.39073   0.50315   0.00000  Uiso   1.00
N184   N     0.19868   0.67134   0.25729   0.00000  Uiso   1.00
C185   C     0.24801   0.99711   0.56999   0.00000  Uiso   1.00
C186   C     0.28762   0.92607   0.56199   0.00000  Uiso   1.00
C187   C     0.32767   0.89991   0.62750   0.00000  Uiso   1.00
C188   C     0.35975   0.83380   0.60723   0.00000  Uiso   1.00
C189   C     0.42242   0.72932   0.60742   0.00000  Uiso   1.00
C190   C     0.18354   0.96967   0.55562   0.00000  Uiso   1.00
C191   C     0.13608   0.98019   0.61577   0.00000  Uiso   1.00
C192   C     0.08054   0.95079   0.59012   0.00000  Uiso   1.00
C193   C     0.98161   0.91406   0.58040   0.00000  Uiso   1.00
C194   C     0.26309   0.04700   0.48786   0.00000  Uiso   1.00
C195   C     0.28250   0.12255   0.49104   0.00000  Uiso   1.00
C196   C     0.29392   0.15827   0.40835   0.00000  Uiso   1.00
C197   C     0.31851   0.24160   0.29342   0.00000  Uiso   1.00
C198   C     0.23376   0.92621   0.41749   0.00000  Uiso   1.00
C199   C     0.27988   0.88755   0.47916   0.00000  Uiso   1.00
C200   C     0.31191   0.82146   0.45878   0.00000  Uiso   1.00
C201   C     0.35200   0.79522   0.52425   0.00000  Uiso   1.00
C202   C     0.17580   0.93116   0.47279   0.00000  Uiso   1.00
C203   C     0.12032   0.90175   0.44705   0.00000  Uiso   1.00
C204   C     0.07279   0.91221   0.50715   0.00000  Uiso   1.00
C205   C     0.25535   0.00849   0.40503   0.00000  Uiso   1.00
C206   C     0.26674   0.04410   0.32232   0.00000  Uiso   1.00
C207   C     0.28617   0.11968   0.32537   0.00000  Uiso   1.00
H208   H     0.25403   0.02710   0.63447   0.00000  Uiso   1.00
H209   H     0.33364   0.92973   0.69159   0.00000  Uiso   1.00
H210   H     0.14208   0.01000   0.67985   0.00000  Uiso   1.00
H211   H     0.28849   0.15234   0.55514   0.00000  Uiso   1.00
H212   H     0.41848   0.80478   0.71840   0.00000  Uiso   1.00
H213   H     0.01456   0.97407   0.69364   0.00000  Uiso   1.00
H214   H     0.32328   0.27420   0.43067   0.00000  Uiso   1.00
H215   H     0.22773   0.89622   0.35301   0.00000  Uiso   1.00
H216   H     0.30591   0.79167   0.39468   0.00000  Uiso   1.00
H217   H     0.11435   0.87195   0.38295   0.00000  Uiso   1.00
H218   H     0.26075   0.01428   0.25824   0.00000  Uiso   1.00
H219   H     0.39597   0.69272   0.47742   0.00000  Uiso   1.00
H220   H     0.99205   0.86202   0.45266   0.00000  Uiso   1.00
H221   H     0.30076   0.16215   0.18969   0.00000  Uiso   1.00
O222   O     0.45911   0.68232   0.63042   0.00000  Uiso   1.00
O223   O     0.92918   0.90444   0.59793   0.00000  Uiso   1.00
O224   O     0.33421   0.29820   0.25291   0.00000  Uiso   1.00
N225   N     0.40247   0.79276   0.65596   0.00000  Uiso   1.00
N226   N     0.02482   0.95103   0.63282   0.00000  Uiso   1.00
N227   N     0.31343   0.23164   0.38696   0.00000  Uiso   1.00
N228   N     0.39035   0.73247   0.52629   0.00000  Uiso   1.00
N229   N     0.01271   0.89073   0.50315   0.00000  Uiso   1.00
N230   N     0.30132   0.17134   0.25729   0.00000  Uiso   1.00
C231   C     0.25199   0.00289   0.06999   0.00000  Uiso   1.00
C232   C     0.21238   0.07393   0.06199   0.00000  Uiso   1.00
C233   C     0.17233   0.10009   0.12750   0.00000  Uiso   1.00
C234   C     0.14025   0.16620   0.10723   0.00000  Uiso   1.00
C235   C     0.07758   0.27068   0.10742   0.00000  Uiso   1.00
C236   C     0.31646   0.03033   0.05562   0.00000  Uiso   1.00
C237   C     0.36392   0.01981   0.11577   0.00000  Uiso   1.00
C238   C     0.41946   0.04921   0.09012   0.00000  Uiso   1.00
C239   C     0.51839   0.08594   0.08040   0.00000  Uiso   1.00
C240   C     0.23691   0.95300   0.98786   0.00000  Uiso   1.00
C241   C     0.21750   0.87745   0.99104   0.00000  Uiso   1.00
C242   C     0.20608   0.84173   0.90835   0.00000  Uiso   1.00
C243   C     0.18149   0.75840   0.79342   0.00000  Uiso   1.00
C244   C     0.26624   0.07379   0.91749   0.00000  Uiso   1.00
C245   C     0.22012   0.11245   0.97916   0.00000  Uiso   1.00
C246   C     0.18809   0.17854   0.95878   0.00000  Uiso   1.00
C247   C     0.14800   0.20478   0.02425   0.00000  Uiso   1.00
C248   C     0.32420   0.06884   0.97279   0.00000  Uiso   1.00
C249   C     0.37968   0.09825   0.94705   0.00000  Uiso   1.00
C250   C     0.42721   0.08779   0.00715   0.00000  Uiso   1.00
C251   C     0.24465   0.99151   0.90503   0.00000  Uiso   1.00
C252   C     0.23326   0.95590   0.82232   0.00000  Uiso   1.00
C253   C     0.21383   0.88032   0.82537   0.00000  Uiso   1.00
H254   H     0.24597   0.97290   0.13447   0.00000  Uiso   1.00
H255   H     0.16636   0.07027   0.19159   0.00000  Uiso   1.00
H256   H     0.35792   0.99000   0.17985   0.00000  Uiso   1.00
H257   H     0.21151   0.84766   0.05514   0.00000  Uiso   1.00
H258   H     0.08152   0.19522   0.21840   0.00000  Uiso   1.00
H259   H     0.48544   0.02593   0.19364   0.00000  Uiso   1.00
H260   H     0.17672   0.72580   0.93067   0.00000  Uiso   1.00
H261   H     0.27227   0.10378   0.85301   0.00000  Uiso   1.00
H262   H     0.19409   0.20833   0.89468   0.00000  Uiso   1.00
H263   H     0.38565   0.12805   0.88295   0.00000  Uiso   1.00
H264   H     0.23925   0.98572   0.75824   0.00000  Uiso   1.00
H265   H     0.10403   0.30728   0.97742   0.00000  Uiso   1.00
H266   H     0.50795   0.13798   0.95266   0.00000  Uiso   1.00
H267   H     0.19924   0.83785   0.68969   0.00000  Uiso   1.00
O268   O     0.04089   0.31768   0.13042   0.00000  Uiso   1.00
O269   O     0.57082   0.09556   0.09793   0.00000  Uiso   1.00
O270   O     0.16579   0.70180   0.75291   0.00000  Uiso   1.00
N271   N     0.09753   0.20724   0.15596   0.00000  Uiso   1.00
N272   N     0.47518   0.04897   0.13282   0.00000  Uiso   1.00
N273   N     0.18657   0.76836   0.88696   0.00000  Uiso   1.00
N274   N     0.10965   0.26753   0.02629   0.00000  Uiso   1.00
N275   N     0.48729   0.10927   0.00315   0.00000  Uiso   1.00
N276   N     0.19868   0.82866   0.75729   0.00000  Uiso   1.00
C277   C     0.75199   0.49711   0.93001   0.00000  Uiso   1.00
C278   C     0.71238   0.42607   0.93801   0.00000  Uiso   1.00
C279   C     0.67233   0.39991   0.87250   0.00000  Uiso   1.00
C280   C     0.64025   0.33380   0.89277   0.00000  Uiso   1.00
C281   C     0.57758   0.22932   0.89258   0.00000  Uiso   1.00
C282   C     0.81646   0.46967   0.94438   0.00000  Uiso   1.00
C283   C     0.86392   0.48019   0.88423   0.00000  Uiso   1.00
C284   C     0.91946   0.45079   0.90988   0.00000  Uiso   1.00
C285   C     0.01839   0.41406   0.91960   0.00000  Uiso   1.00
C286   C     0.73691   0.54700   0.01214   0.00000  Uiso   1.00
C287   C     0.71750   0.62255   0.00896   0.00000  Uiso   1.00
C288   C     0.70608   0.65827   0.09165   0.00000  Uiso   1.00
C289   C     0.68149   0.74160   0.20658   0.00000  Uiso   1.00
C290   C     0.76624   0.42621   0.08251   0.00000  Uiso   1.00
C291   C     0.72012   0.38755   0.02084   0.00000  Uiso   1.00
C292   C     0.68809   0.32146   0.04122   0.00000  Uiso   1.00
C293   C     0.64800   0.29522   0.97575   0.00000  Uiso   1.00
C294   C     0.82420   0.43116   0.02721   0.00000  Uiso   1.00
C295   C     0.87968   0.40175   0.05295   0.00000  Uiso   1.00
C296   C     0.92721   0.41221   0.99285   0.00000  Uiso   1.00
C297   C     0.74465   0.50849   0.09497   0.00000  Uiso   1.00
C298   C     0.73326   0.54410   0.17768   0.00000  Uiso   1.00
C299   C     0.71383   0.61968   0.17463   0.00000  Uiso   1.00
H300   H     0.74597   0.52710   0.86553   0.00000  Uiso   1.00
H301   H     0.66636   0.42973   0.80841   0.00000  Uiso   1.00
H302   H     0.85792   0.51000   0.82015   0.00000  Uiso   1.00
H303   H     0.71151   0.65234   0.94486   0.00000  Uiso   1.00
H304   H     0.58152   0.30478   0.78160   0.00000  Uiso   1.00
H305   H     0.98544   0.47407   0.80636   0.00000  Uiso   1.00
H306   H     0.67672   0.77420   0.06933   0.00000  Uiso   1.00
H307   H     0.77227   0.39622   0.14699   0.00000  Uiso   1.00
H308   H     0.69409   0.29167   0.10532   0.00000  Uiso   1.00
H309   H     0.88565   0.37195   0.11705   0.00000  Uiso   1.00
H310   H     0.73925   0.51428   0.24176   0.00000  Uiso   1.00
H311   H     0.60403   0.19272   0.02258   0.00000  Uiso   1.00
H312   H     0.00795   0.36202   0.04734   0.00000  Uiso   1.00
H313   H     0.69924   0.66215   0.31031   0.00000  Uiso   1.00
O314   O     0.54089   0.18232   0.86958   0.00000  Uiso   1.00
O315   O     0.07082   0.40444   0.90207   0.00000  Uiso   1.00
O316   O     0.66579   0.79820   0.24709   0.00000  Uiso   1.00
N317   N     0.59753   0.29276   0.84404   0.00000  Uiso   1.00
N318   N     0.97518   0.45103   0.86718   0.00000  Uiso   1.00
N319   N     0.68657   0.73164   0.11304   0.00000  Uiso   1.00
N320   N     0.60965   0.23247   0.97371   0.00000  Uiso   1.00
N321   N     0.98729   0.39073   0.99685   0.00000  Uiso   1.00
N322   N     0.69868   0.67134   0.24271   0.00000  Uiso   1.00
C323   C     0.74801   0.50289   0.43001   0.00000  Uiso   1.00
C324   C     0.78762   0.57393   0.43801   0.00000  Uiso   1.00
C325   C     0.82767   0.60009   0.37250   0.00000  Uiso   1.00
C326   C     0.85975   0.66620   0.39277   0.00000  Uiso   1.00
C327   C     0.92242   0.77068   0.39258   0.00000  Uiso   1.00
C328   C     0.68354   0.53033   0.44438   0.00000  Uiso   1.00
C329   C     0.63608   0.51981   0.38423   0.00000  Uiso   1.00
C330   C     0.58054   0.54921   0.40988   0.00000  Uiso   1.00
C331   C     0.48161   0.58594   0.41960   0.00000  Uiso   1.00
C332   C     0.76309   0.45300   0.51214   0.00000  Uiso   1.00
C333   C     0.78250   0.37745   0.50896   0.00000  Uiso   1.00
C334   C     0.79392   0.34173   0.59165   0.00000  Uiso   1.00
C335   C     0.81851   0.25840   0.70658   0.00000  Uiso   1.00
C336   C     0.73376   0.57379   0.58251   0.00000  Uiso   1.00
C337   C     0.77988   0.61245   0.52084   0.00000  Uiso   1.00
C338   C     0.81191   0.67854   0.54122   0.00000  Uiso   1.00
C339   C     0.85200   0.70478   0.47575   0.00000  Uiso   1.00
C340   C     0.67580   0.56884   0.52721   0.00000  Uiso   1.00
C341   C     0.62032   0.59825   0.55295   0.00000  Uiso   1.00
C342   C     0.57279   0.58779   0.49285   0.00000  Uiso   1.00
C343   C     0.75535   0.49151   0.59497   0.00000  Uiso   1.00
C344   C     0.76674   0.45590   0.67768   0.00000  Uiso   1.00
C345   C     0.78617   0.38032   0.67463   0.00000  Uiso   1.00
H346   H     0.75403   0.47290   0.36553   0.00000  Uiso   1.00
H347   H     0.83364   0.57027   0.30841   0.00000  Uiso   1.00
H348   H     0.64208   0.49000   0.32015   0.00000  Uiso   1.00
H349   H     0.78849   0.34766   0.44486   0.00000  Uiso   1.00
H350   H     0.91848   0.69522   0.28160   0.00000  Uiso   1.00
H351   H     0.51456   0.52593   0.30636   0.00000  Uiso   1.00
H352   H     0.82328   0.22580   0.56933   0.00000  Uiso   1.00
H353   H     0.72773   0.60378   0.64699   0.00000  Uiso   1.00
H354   H     0.80591   0.70833   0.60532   0.00000  Uiso   1.00
H355   H     0.61435   0.62805   0.61705   0.00000  Uiso   1.00
H356   H     0.76075   0.48572   0.74176   0.00000  Uiso   1.00
H357   H     0.89597   0.80728   0.52258   0.00000  Uiso   1.00
H358   H     0.49205   0.63798   0.54734   0.00000  Uiso   1.00
H359   H     0.80076   0.33785   0.81031   0.00000  Uiso   1.00
O360   O     0.95911   0.81768   0.36958   0.00000  Uiso   1.00
O361   O     0.42918   0.59556   0.40207   0.00000  Uiso   1.00
O362   O     0.83421   0.20180   0.74709   0.00000  Uiso   1.00
N363   N     0.90247   0.70724   0.34404   0.00000  Uiso   1.00
N364   N     0.52482   0.54897   0.36718   0.00000  Uiso   1.00
N365   N     0.81343   0.26836   0.61304   0.00000  Uiso   1.00
N366   N     0.89035   0.76753   0.47371   0.00000  Uiso   1.00
N367   N     0.51271   0.60927   0.49685   0.00000  Uiso   1.00
N368   N     0.80132   0.32866   0.74271   0.00000  Uiso   1.00
