data_job_00096
_audit_creation_date              2018-12-19
_audit_creation_method            'Materials Studio'
_symmetry_space_group_name_H-M    'P1'
_symmetry_Int_Tables_number       1
_symmetry_cell_setting            triclinic
loop_
_symmetry_equiv_pos_as_xyz
  x,y,z
_cell_length_a                    16.5115
_cell_length_b                    16.5115
_cell_length_c                    15.8941
_cell_angle_alpha                 90.0000
_cell_angle_beta                  90.0000
_cell_angle_gamma                 90.0000
loop_
_atom_site_label
_atom_site_type_symbol
_atom_site_fract_x
_atom_site_fract_y
_atom_site_fract_z
_atom_site_U_iso_or_equiv
_atom_site_adp_type
_atom_site_occupancy
C1     C     0.24070   0.42605   0.57992   0.00000  Uiso   1.00
C2     C     0.27681   0.49454   0.52762   0.00000  Uiso   1.00
C3     C     0.33786   0.48649   0.46819   0.00000  Uiso   1.00
C4     C     0.36252   0.55645   0.42706   0.00000  Uiso   1.00
C5     C     0.42397   0.65135   0.34318   0.00000  Uiso   1.00
C6     C     0.25108   0.45108   0.67164   0.00000  Uiso   1.00
C7     C     0.29049   0.40649   0.73331   0.00000  Uiso   1.00
C8     C     0.29347   0.43988   0.81342   0.00000  Uiso   1.00
C9     C     0.31492   0.46729   0.95316   0.00000  Uiso   1.00
C10    C     0.14983   0.42748   0.56288   0.00000  Uiso   1.00
C11    C     0.10409   0.36304   0.53312   0.00000  Uiso   1.00
C12    C     0.02183   0.37655   0.52168   0.00000  Uiso   1.00
C13    C     0.88607   0.36733   0.49254   0.00000  Uiso   1.00
C14    C     0.17593   0.56462   0.61255   0.00000  Uiso   1.00
C15    C     0.24163   0.56980   0.54534   0.00000  Uiso   1.00
C16    C     0.26620   0.63980   0.50429   0.00000  Uiso   1.00
C17    C     0.32727   0.63185   0.44482   0.00000  Uiso   1.00
C18    C     0.21590   0.52635   0.68937   0.00000  Uiso   1.00
C19    C     0.21882   0.55980   0.76941   0.00000  Uiso   1.00
C20    C     0.25823   0.51528   0.83118   0.00000  Uiso   1.00
C21    C     0.11465   0.50275   0.58060   0.00000  Uiso   1.00
C22    C     0.03243   0.51636   0.56922   0.00000  Uiso   1.00
C23    C     0.98658   0.45195   0.53944   0.00000  Uiso   1.00
H24    H     0.26809   0.36745   0.56613   0.00000  Uiso   1.00
H25    H     0.36508   0.42823   0.45450   0.00000  Uiso   1.00
H26    H     0.31770   0.34825   0.71957   0.00000  Uiso   1.00
H27    H     0.13134   0.30481   0.51941   0.00000  Uiso   1.00
H28    H     0.45711   0.52881   0.33857   0.00000  Uiso   1.00
H29    H     0.35719   0.36015   0.89751   0.00000  Uiso   1.00
H30    H     0.96421   0.26855   0.47542   0.00000  Uiso   1.00
H31    H     0.14853   0.62321   0.62636   0.00000  Uiso   1.00
H32    H     0.23896   0.69803   0.51802   0.00000  Uiso   1.00
H33    H     0.19158   0.61805   0.78311   0.00000  Uiso   1.00
H34    H     0.00523   0.57461   0.58294   0.00000  Uiso   1.00
H35    H     0.35475   0.74779   0.39014   0.00000  Uiso   1.00
H36    H     0.25483   0.57913   0.94908   0.00000  Uiso   1.00
H37    H     0.86185   0.48753   0.52699   0.00000  Uiso   1.00
O38    O     0.46759   0.68291   0.29203   0.00000  Uiso   1.00
O39    O     0.33648   0.46162   0.02533   0.00000  Uiso   1.00
O40    O     0.82091   0.34145   0.47156   0.00000  Uiso   1.00
N41    N     0.42060   0.57008   0.36556   0.00000  Uiso   1.00
N42    N     0.32719   0.41239   0.88813   0.00000  Uiso   1.00
N43    N     0.95979   0.32675   0.49354   0.00000  Uiso   1.00
N44    N     0.36552   0.68791   0.39331   0.00000  Uiso   1.00
N45    N     0.27211   0.53023   0.91588   0.00000  Uiso   1.00
N46    N     0.90471   0.44458   0.52128   0.00000  Uiso   1.00
C47    C     0.75930   0.57395   0.07992   0.00000  Uiso   1.00
C48    C     0.72319   0.50546   0.02762   0.00000  Uiso   1.00
C49    C     0.66214   0.51351   0.96819   0.00000  Uiso   1.00
C50    C     0.63748   0.44355   0.92706   0.00000  Uiso   1.00
C51    C     0.57603   0.34865   0.84318   0.00000  Uiso   1.00
C52    C     0.74892   0.54892   0.17164   0.00000  Uiso   1.00
C53    C     0.70951   0.59351   0.23331   0.00000  Uiso   1.00
C54    C     0.70653   0.56012   0.31342   0.00000  Uiso   1.00
C55    C     0.68508   0.53271   0.45316   0.00000  Uiso   1.00
C56    C     0.85017   0.57252   0.06288   0.00000  Uiso   1.00
C57    C     0.89591   0.63696   0.03312   0.00000  Uiso   1.00
C58    C     0.97817   0.62345   0.02168   0.00000  Uiso   1.00
C59    C     0.11393   0.63267   0.99254   0.00000  Uiso   1.00
C60    C     0.82407   0.43538   0.11255   0.00000  Uiso   1.00
C61    C     0.75837   0.43020   0.04534   0.00000  Uiso   1.00
C62    C     0.73380   0.36020   0.00429   0.00000  Uiso   1.00
C63    C     0.67273   0.36815   0.94482   0.00000  Uiso   1.00
C64    C     0.78410   0.47365   0.18937   0.00000  Uiso   1.00
C65    C     0.78118   0.44020   0.26941   0.00000  Uiso   1.00
C66    C     0.74177   0.48472   0.33118   0.00000  Uiso   1.00
C67    C     0.88535   0.49725   0.08060   0.00000  Uiso   1.00
C68    C     0.96757   0.48364   0.06922   0.00000  Uiso   1.00
C69    C     0.01342   0.54805   0.03944   0.00000  Uiso   1.00
H70    H     0.73191   0.63255   0.06613   0.00000  Uiso   1.00
H71    H     0.63492   0.57177   0.95450   0.00000  Uiso   1.00
H72    H     0.68230   0.65175   0.21957   0.00000  Uiso   1.00
H73    H     0.86866   0.69519   0.01941   0.00000  Uiso   1.00
H74    H     0.54289   0.47119   0.83857   0.00000  Uiso   1.00
H75    H     0.64281   0.63985   0.39751   0.00000  Uiso   1.00
H76    H     0.03579   0.73145   0.97542   0.00000  Uiso   1.00
H77    H     0.85147   0.37679   0.12636   0.00000  Uiso   1.00
H78    H     0.76104   0.30197   0.01802   0.00000  Uiso   1.00
H79    H     0.80842   0.38195   0.28311   0.00000  Uiso   1.00
H80    H     0.99477   0.42539   0.08294   0.00000  Uiso   1.00
H81    H     0.64525   0.25221   0.89014   0.00000  Uiso   1.00
H82    H     0.74517   0.42087   0.44908   0.00000  Uiso   1.00
H83    H     0.13815   0.51247   0.02699   0.00000  Uiso   1.00
O84    O     0.53241   0.31709   0.79203   0.00000  Uiso   1.00
O85    O     0.66352   0.53838   0.52533   0.00000  Uiso   1.00
O86    O     0.17909   0.65855   0.97156   0.00000  Uiso   1.00
N87    N     0.57940   0.42992   0.86556   0.00000  Uiso   1.00
N88    N     0.67281   0.58761   0.38813   0.00000  Uiso   1.00
N89    N     0.04021   0.67325   0.99354   0.00000  Uiso   1.00
N90    N     0.63448   0.31209   0.89331   0.00000  Uiso   1.00
N91    N     0.72789   0.46977   0.41588   0.00000  Uiso   1.00
N92    N     0.09529   0.55542   0.02128   0.00000  Uiso   1.00
C93    C     0.07395   0.74070   0.32992   0.00000  Uiso   1.00
C94    C     0.00546   0.77681   0.27762   0.00000  Uiso   1.00
C95    C     0.01351   0.83786   0.21819   0.00000  Uiso   1.00
C96    C     0.94355   0.86252   0.17706   0.00000  Uiso   1.00
C97    C     0.84865   0.92397   0.09318   0.00000  Uiso   1.00
C98    C     0.04892   0.75108   0.42164   0.00000  Uiso   1.00
C99    C     0.09351   0.79049   0.48331   0.00000  Uiso   1.00
C100   C     0.06012   0.79347   0.56342   0.00000  Uiso   1.00
C101   C     0.03271   0.81492   0.70316   0.00000  Uiso   1.00
C102   C     0.07252   0.64983   0.31288   0.00000  Uiso   1.00
C103   C     0.13696   0.60409   0.28312   0.00000  Uiso   1.00
C104   C     0.12345   0.52183   0.27168   0.00000  Uiso   1.00
C105   C     0.13267   0.38607   0.24254   0.00000  Uiso   1.00
C106   C     0.93538   0.67593   0.36255   0.00000  Uiso   1.00
C107   C     0.93020   0.74163   0.29534   0.00000  Uiso   1.00
C108   C     0.86020   0.76620   0.25429   0.00000  Uiso   1.00
C109   C     0.86815   0.82727   0.19482   0.00000  Uiso   1.00
C110   C     0.97365   0.71590   0.43937   0.00000  Uiso   1.00
C111   C     0.94020   0.71882   0.51941   0.00000  Uiso   1.00
C112   C     0.98472   0.75823   0.58118   0.00000  Uiso   1.00
C113   C     0.99725   0.61465   0.33060   0.00000  Uiso   1.00
C114   C     0.98364   0.53243   0.31922   0.00000  Uiso   1.00
C115   C     0.04805   0.48658   0.28944   0.00000  Uiso   1.00
H116   H     0.13255   0.76809   0.31613   0.00000  Uiso   1.00
H117   H     0.07177   0.86508   0.20450   0.00000  Uiso   1.00
H118   H     0.15175   0.81770   0.46957   0.00000  Uiso   1.00
H119   H     0.19519   0.63134   0.26941   0.00000  Uiso   1.00
H120   H     0.97119   0.95711   0.08857   0.00000  Uiso   1.00
H121   H     0.13985   0.85719   0.64751   0.00000  Uiso   1.00
H122   H     0.23145   0.46421   0.22542   0.00000  Uiso   1.00
H123   H     0.87679   0.64853   0.37636   0.00000  Uiso   1.00
H124   H     0.80197   0.73896   0.26802   0.00000  Uiso   1.00
H125   H     0.88195   0.69158   0.53311   0.00000  Uiso   1.00
H126   H     0.92539   0.50523   0.33294   0.00000  Uiso   1.00
H127   H     0.75221   0.85475   0.14014   0.00000  Uiso   1.00
H128   H     0.92087   0.75483   0.69908   0.00000  Uiso   1.00
H129   H     0.01247   0.36185   0.27699   0.00000  Uiso   1.00
O130   O     0.81709   0.96759   0.04203   0.00000  Uiso   1.00
O131   O     0.03838   0.83648   0.77533   0.00000  Uiso   1.00
O132   O     0.15855   0.32091   0.22156   0.00000  Uiso   1.00
N133   N     0.92992   0.92060   0.11556   0.00000  Uiso   1.00
N134   N     0.08761   0.82719   0.63813   0.00000  Uiso   1.00
N135   N     0.17325   0.45979   0.24354   0.00000  Uiso   1.00
N136   N     0.81209   0.86552   0.14331   0.00000  Uiso   1.00
N137   N     0.96977   0.77211   0.66588   0.00000  Uiso   1.00
N138   N     0.05542   0.40471   0.27128   0.00000  Uiso   1.00
C139   C     0.92605   0.25930   0.82992   0.00000  Uiso   1.00
C140   C     0.99454   0.22319   0.77762   0.00000  Uiso   1.00
C141   C     0.98649   0.16214   0.71819   0.00000  Uiso   1.00
C142   C     0.05645   0.13748   0.67706   0.00000  Uiso   1.00
C143   C     0.15135   0.07603   0.59318   0.00000  Uiso   1.00
C144   C     0.95108   0.24892   0.92164   0.00000  Uiso   1.00
C145   C     0.90649   0.20951   0.98331   0.00000  Uiso   1.00
C146   C     0.93988   0.20653   0.06342   0.00000  Uiso   1.00
C147   C     0.96729   0.18508   0.20316   0.00000  Uiso   1.00
C148   C     0.92748   0.35017   0.81288   0.00000  Uiso   1.00
C149   C     0.86304   0.39591   0.78312   0.00000  Uiso   1.00
C150   C     0.87655   0.47817   0.77168   0.00000  Uiso   1.00
C151   C     0.86733   0.61393   0.74254   0.00000  Uiso   1.00
C152   C     0.06462   0.32407   0.86255   0.00000  Uiso   1.00
C153   C     0.06980   0.25837   0.79534   0.00000  Uiso   1.00
C154   C     0.13980   0.23380   0.75429   0.00000  Uiso   1.00
C155   C     0.13185   0.17273   0.69482   0.00000  Uiso   1.00
C156   C     0.02635   0.28410   0.93937   0.00000  Uiso   1.00
C157   C     0.05980   0.28118   0.01941   0.00000  Uiso   1.00
C158   C     0.01528   0.24177   0.08118   0.00000  Uiso   1.00
C159   C     0.00275   0.38535   0.83060   0.00000  Uiso   1.00
C160   C     0.01636   0.46757   0.81922   0.00000  Uiso   1.00
C161   C     0.95195   0.51342   0.78944   0.00000  Uiso   1.00
H162   H     0.86745   0.23191   0.81613   0.00000  Uiso   1.00
H163   H     0.92823   0.13492   0.70450   0.00000  Uiso   1.00
H164   H     0.84825   0.18230   0.96957   0.00000  Uiso   1.00
H165   H     0.80481   0.36866   0.76941   0.00000  Uiso   1.00
H166   H     0.02881   0.04289   0.58857   0.00000  Uiso   1.00
H167   H     0.86015   0.14281   0.14751   0.00000  Uiso   1.00
H168   H     0.76855   0.53579   0.72542   0.00000  Uiso   1.00
H169   H     0.12321   0.35147   0.87636   0.00000  Uiso   1.00
H170   H     0.19803   0.26104   0.76802   0.00000  Uiso   1.00
H171   H     0.11805   0.30842   0.03311   0.00000  Uiso   1.00
H172   H     0.07461   0.49477   0.83294   0.00000  Uiso   1.00
H173   H     0.24779   0.14525   0.64014   0.00000  Uiso   1.00
H174   H     0.07913   0.24517   0.19908   0.00000  Uiso   1.00
H175   H     0.98753   0.63815   0.77699   0.00000  Uiso   1.00
O176   O     0.18291   0.03241   0.54203   0.00000  Uiso   1.00
O177   O     0.96162   0.16352   0.27533   0.00000  Uiso   1.00
O178   O     0.84145   0.67909   0.72156   0.00000  Uiso   1.00
N179   N     0.07008   0.07940   0.61556   0.00000  Uiso   1.00
N180   N     0.91239   0.17281   0.13813   0.00000  Uiso   1.00
N181   N     0.82675   0.54021   0.74354   0.00000  Uiso   1.00
N182   N     0.18791   0.13448   0.64331   0.00000  Uiso   1.00
N183   N     0.03023   0.22789   0.16588   0.00000  Uiso   1.00
N184   N     0.94458   0.59529   0.77128   0.00000  Uiso   1.00
C185   C     0.25930   0.92605   0.17008   0.00000  Uiso   1.00
C186   C     0.22319   0.99454   0.22238   0.00000  Uiso   1.00
C187   C     0.16214   0.98649   0.28181   0.00000  Uiso   1.00
C188   C     0.13748   0.05645   0.32294   0.00000  Uiso   1.00
C189   C     0.07603   0.15135   0.40682   0.00000  Uiso   1.00
C190   C     0.24892   0.95108   0.07836   0.00000  Uiso   1.00
C191   C     0.20951   0.90649   0.01669   0.00000  Uiso   1.00
C192   C     0.20653   0.93988   0.93658   0.00000  Uiso   1.00
C193   C     0.18508   0.96729   0.79684   0.00000  Uiso   1.00
C194   C     0.35017   0.92748   0.18712   0.00000  Uiso   1.00
C195   C     0.39591   0.86304   0.21688   0.00000  Uiso   1.00
C196   C     0.47817   0.87655   0.22832   0.00000  Uiso   1.00
C197   C     0.61393   0.86733   0.25746   0.00000  Uiso   1.00
C198   C     0.32407   0.06462   0.13745   0.00000  Uiso   1.00
C199   C     0.25837   0.06980   0.20466   0.00000  Uiso   1.00
C200   C     0.23380   0.13980   0.24571   0.00000  Uiso   1.00
C201   C     0.17273   0.13185   0.30518   0.00000  Uiso   1.00
C202   C     0.28410   0.02635   0.06063   0.00000  Uiso   1.00
C203   C     0.28118   0.05980   0.98059   0.00000  Uiso   1.00
C204   C     0.24177   0.01528   0.91882   0.00000  Uiso   1.00
C205   C     0.38535   0.00275   0.16940   0.00000  Uiso   1.00
C206   C     0.46757   0.01636   0.18078   0.00000  Uiso   1.00
C207   C     0.51342   0.95195   0.21056   0.00000  Uiso   1.00
H208   H     0.23191   0.86745   0.18387   0.00000  Uiso   1.00
H209   H     0.13492   0.92823   0.29550   0.00000  Uiso   1.00
H210   H     0.18230   0.84825   0.03043   0.00000  Uiso   1.00
H211   H     0.36866   0.80481   0.23059   0.00000  Uiso   1.00
H212   H     0.04289   0.02881   0.41143   0.00000  Uiso   1.00
H213   H     0.14281   0.86015   0.85249   0.00000  Uiso   1.00
H214   H     0.53579   0.76855   0.27458   0.00000  Uiso   1.00
H215   H     0.35147   0.12321   0.12364   0.00000  Uiso   1.00
H216   H     0.26104   0.19803   0.23198   0.00000  Uiso   1.00
H217   H     0.30842   0.11805   0.96689   0.00000  Uiso   1.00
H218   H     0.49477   0.07461   0.16706   0.00000  Uiso   1.00
H219   H     0.14525   0.24779   0.35986   0.00000  Uiso   1.00
H220   H     0.24517   0.07913   0.80092   0.00000  Uiso   1.00
H221   H     0.63815   0.98753   0.22301   0.00000  Uiso   1.00
O222   O     0.03241   0.18291   0.45797   0.00000  Uiso   1.00
O223   O     0.16352   0.96162   0.72467   0.00000  Uiso   1.00
O224   O     0.67909   0.84145   0.27844   0.00000  Uiso   1.00
N225   N     0.07940   0.07008   0.38444   0.00000  Uiso   1.00
N226   N     0.17281   0.91239   0.86187   0.00000  Uiso   1.00
N227   N     0.54021   0.82675   0.25646   0.00000  Uiso   1.00
N228   N     0.13448   0.18791   0.35669   0.00000  Uiso   1.00
N229   N     0.22789   0.03023   0.83412   0.00000  Uiso   1.00
N230   N     0.59529   0.94458   0.22872   0.00000  Uiso   1.00
C231   C     0.74070   0.07395   0.67008   0.00000  Uiso   1.00
C232   C     0.77681   0.00546   0.72238   0.00000  Uiso   1.00
C233   C     0.83786   0.01351   0.78181   0.00000  Uiso   1.00
C234   C     0.86252   0.94355   0.82294   0.00000  Uiso   1.00
C235   C     0.92397   0.84865   0.90682   0.00000  Uiso   1.00
C236   C     0.75108   0.04892   0.57836   0.00000  Uiso   1.00
C237   C     0.79049   0.09351   0.51669   0.00000  Uiso   1.00
C238   C     0.79347   0.06012   0.43658   0.00000  Uiso   1.00
C239   C     0.81492   0.03271   0.29684   0.00000  Uiso   1.00
C240   C     0.64983   0.07252   0.68712   0.00000  Uiso   1.00
C241   C     0.60409   0.13696   0.71688   0.00000  Uiso   1.00
C242   C     0.52183   0.12345   0.72832   0.00000  Uiso   1.00
C243   C     0.38607   0.13267   0.75746   0.00000  Uiso   1.00
C244   C     0.67593   0.93538   0.63745   0.00000  Uiso   1.00
C245   C     0.74163   0.93020   0.70466   0.00000  Uiso   1.00
C246   C     0.76620   0.86020   0.74571   0.00000  Uiso   1.00
C247   C     0.82727   0.86815   0.80518   0.00000  Uiso   1.00
C248   C     0.71590   0.97365   0.56063   0.00000  Uiso   1.00
C249   C     0.71882   0.94020   0.48059   0.00000  Uiso   1.00
C250   C     0.75823   0.98472   0.41882   0.00000  Uiso   1.00
C251   C     0.61465   0.99725   0.66940   0.00000  Uiso   1.00
C252   C     0.53243   0.98364   0.68078   0.00000  Uiso   1.00
C253   C     0.48658   0.04805   0.71056   0.00000  Uiso   1.00
H254   H     0.76809   0.13255   0.68387   0.00000  Uiso   1.00
H255   H     0.86508   0.07177   0.79550   0.00000  Uiso   1.00
H256   H     0.81770   0.15175   0.53043   0.00000  Uiso   1.00
H257   H     0.63134   0.19519   0.73059   0.00000  Uiso   1.00
H258   H     0.95711   0.97119   0.91143   0.00000  Uiso   1.00
H259   H     0.85719   0.13985   0.35249   0.00000  Uiso   1.00
H260   H     0.46421   0.23145   0.77458   0.00000  Uiso   1.00
H261   H     0.64853   0.87679   0.62364   0.00000  Uiso   1.00
H262   H     0.73896   0.80197   0.73198   0.00000  Uiso   1.00
H263   H     0.69158   0.88195   0.46689   0.00000  Uiso   1.00
H264   H     0.50523   0.92539   0.66706   0.00000  Uiso   1.00
H265   H     0.85475   0.75221   0.85986   0.00000  Uiso   1.00
H266   H     0.75483   0.92087   0.30092   0.00000  Uiso   1.00
H267   H     0.36185   0.01247   0.72301   0.00000  Uiso   1.00
O268   O     0.96759   0.81709   0.95797   0.00000  Uiso   1.00
O269   O     0.83648   0.03838   0.22467   0.00000  Uiso   1.00
O270   O     0.32091   0.15855   0.77844   0.00000  Uiso   1.00
N271   N     0.92060   0.92992   0.88444   0.00000  Uiso   1.00
N272   N     0.82719   0.08761   0.36187   0.00000  Uiso   1.00
N273   N     0.45979   0.17325   0.75646   0.00000  Uiso   1.00
N274   N     0.86552   0.81209   0.85669   0.00000  Uiso   1.00
N275   N     0.77211   0.96977   0.33412   0.00000  Uiso   1.00
N276   N     0.40471   0.05542   0.72872   0.00000  Uiso   1.00
C277   C     0.42605   0.24070   0.42008   0.00000  Uiso   1.00
C278   C     0.49454   0.27681   0.47238   0.00000  Uiso   1.00
C279   C     0.48649   0.33786   0.53181   0.00000  Uiso   1.00
C280   C     0.55645   0.36252   0.57294   0.00000  Uiso   1.00
C281   C     0.65135   0.42397   0.65682   0.00000  Uiso   1.00
C282   C     0.45108   0.25108   0.32836   0.00000  Uiso   1.00
C283   C     0.40649   0.29049   0.26669   0.00000  Uiso   1.00
C284   C     0.43988   0.29347   0.18658   0.00000  Uiso   1.00
C285   C     0.46729   0.31492   0.04684   0.00000  Uiso   1.00
C286   C     0.42748   0.14983   0.43712   0.00000  Uiso   1.00
C287   C     0.36304   0.10409   0.46688   0.00000  Uiso   1.00
C288   C     0.37655   0.02183   0.47832   0.00000  Uiso   1.00
C289   C     0.36733   0.88607   0.50746   0.00000  Uiso   1.00
C290   C     0.56462   0.17593   0.38745   0.00000  Uiso   1.00
C291   C     0.56980   0.24163   0.45466   0.00000  Uiso   1.00
C292   C     0.63980   0.26620   0.49571   0.00000  Uiso   1.00
C293   C     0.63185   0.32727   0.55518   0.00000  Uiso   1.00
C294   C     0.52635   0.21590   0.31063   0.00000  Uiso   1.00
C295   C     0.55980   0.21882   0.23059   0.00000  Uiso   1.00
C296   C     0.51528   0.25823   0.16882   0.00000  Uiso   1.00
C297   C     0.50275   0.11465   0.41940   0.00000  Uiso   1.00
C298   C     0.51636   0.03243   0.43078   0.00000  Uiso   1.00
C299   C     0.45195   0.98658   0.46056   0.00000  Uiso   1.00
H300   H     0.36745   0.26809   0.43387   0.00000  Uiso   1.00
H301   H     0.42823   0.36508   0.54550   0.00000  Uiso   1.00
H302   H     0.34825   0.31770   0.28043   0.00000  Uiso   1.00
H303   H     0.30481   0.13134   0.48059   0.00000  Uiso   1.00
H304   H     0.52881   0.45711   0.66143   0.00000  Uiso   1.00
H305   H     0.36015   0.35719   0.10249   0.00000  Uiso   1.00
H306   H     0.26855   0.96421   0.52458   0.00000  Uiso   1.00
H307   H     0.62321   0.14853   0.37364   0.00000  Uiso   1.00
H308   H     0.69803   0.23896   0.48198   0.00000  Uiso   1.00
H309   H     0.61805   0.19158   0.21689   0.00000  Uiso   1.00
H310   H     0.57461   0.00523   0.41706   0.00000  Uiso   1.00
H311   H     0.74779   0.35475   0.60986   0.00000  Uiso   1.00
H312   H     0.57913   0.25483   0.05092   0.00000  Uiso   1.00
H313   H     0.48753   0.86185   0.47301   0.00000  Uiso   1.00
O314   O     0.68291   0.46759   0.70797   0.00000  Uiso   1.00
O315   O     0.46162   0.33648   0.97467   0.00000  Uiso   1.00
O316   O     0.34145   0.82091   0.52844   0.00000  Uiso   1.00
N317   N     0.57008   0.42060   0.63444   0.00000  Uiso   1.00
N318   N     0.41239   0.32719   0.11187   0.00000  Uiso   1.00
N319   N     0.32675   0.95979   0.50646   0.00000  Uiso   1.00
N320   N     0.68791   0.36552   0.60669   0.00000  Uiso   1.00
N321   N     0.53023   0.27211   0.08412   0.00000  Uiso   1.00
N322   N     0.44458   0.90471   0.47872   0.00000  Uiso   1.00
C323   C     0.57395   0.75930   0.92008   0.00000  Uiso   1.00
C324   C     0.50546   0.72319   0.97238   0.00000  Uiso   1.00
C325   C     0.51351   0.66214   0.03181   0.00000  Uiso   1.00
C326   C     0.44355   0.63748   0.07294   0.00000  Uiso   1.00
C327   C     0.34865   0.57603   0.15682   0.00000  Uiso   1.00
C328   C     0.54892   0.74892   0.82836   0.00000  Uiso   1.00
C329   C     0.59351   0.70951   0.76669   0.00000  Uiso   1.00
C330   C     0.56012   0.70653   0.68658   0.00000  Uiso   1.00
C331   C     0.53271   0.68508   0.54684   0.00000  Uiso   1.00
C332   C     0.57252   0.85017   0.93712   0.00000  Uiso   1.00
C333   C     0.63696   0.89591   0.96688   0.00000  Uiso   1.00
C334   C     0.62345   0.97817   0.97832   0.00000  Uiso   1.00
C335   C     0.63267   0.11393   0.00746   0.00000  Uiso   1.00
C336   C     0.43538   0.82407   0.88745   0.00000  Uiso   1.00
C337   C     0.43020   0.75837   0.95466   0.00000  Uiso   1.00
C338   C     0.36020   0.73380   0.99571   0.00000  Uiso   1.00
C339   C     0.36815   0.67273   0.05518   0.00000  Uiso   1.00
C340   C     0.47365   0.78410   0.81063   0.00000  Uiso   1.00
C341   C     0.44020   0.78118   0.73059   0.00000  Uiso   1.00
C342   C     0.48472   0.74177   0.66882   0.00000  Uiso   1.00
C343   C     0.49725   0.88535   0.91940   0.00000  Uiso   1.00
C344   C     0.48364   0.96757   0.93078   0.00000  Uiso   1.00
C345   C     0.54805   0.01342   0.96056   0.00000  Uiso   1.00
H346   H     0.63255   0.73191   0.93387   0.00000  Uiso   1.00
H347   H     0.57177   0.63492   0.04550   0.00000  Uiso   1.00
H348   H     0.65175   0.68230   0.78043   0.00000  Uiso   1.00
H349   H     0.69519   0.86866   0.98059   0.00000  Uiso   1.00
H350   H     0.47119   0.54289   0.16143   0.00000  Uiso   1.00
H351   H     0.63985   0.64281   0.60249   0.00000  Uiso   1.00
H352   H     0.73145   0.03579   0.02458   0.00000  Uiso   1.00
H353   H     0.37679   0.85147   0.87364   0.00000  Uiso   1.00
H354   H     0.30197   0.76104   0.98198   0.00000  Uiso   1.00
H355   H     0.38195   0.80842   0.71689   0.00000  Uiso   1.00
H356   H     0.42539   0.99477   0.91706   0.00000  Uiso   1.00
H357   H     0.25221   0.64525   0.10986   0.00000  Uiso   1.00
H358   H     0.42087   0.74517   0.55092   0.00000  Uiso   1.00
H359   H     0.51247   0.13815   0.97301   0.00000  Uiso   1.00
O360   O     0.31709   0.53241   0.20797   0.00000  Uiso   1.00
O361   O     0.53838   0.66352   0.47467   0.00000  Uiso   1.00
O362   O     0.65855   0.17909   0.02844   0.00000  Uiso   1.00
N363   N     0.42992   0.57940   0.13444   0.00000  Uiso   1.00
N364   N     0.58761   0.67281   0.61187   0.00000  Uiso   1.00
N365   N     0.67325   0.04021   0.00646   0.00000  Uiso   1.00
N366   N     0.31209   0.63448   0.10669   0.00000  Uiso   1.00
N367   N     0.46977   0.72789   0.58412   0.00000  Uiso   1.00
N368   N     0.55542   0.09529   0.97872   0.00000  Uiso   1.00
