data_job_02759
_audit_creation_date              2018-12-19
_audit_creation_method            'Materials Studio'
_symmetry_space_group_name_H-M    'P1'
_symmetry_Int_Tables_number       1
_symmetry_cell_setting            triclinic
loop_
_symmetry_equiv_pos_as_xyz
  x,y,z
_cell_length_a                    28.6988
_cell_length_b                    14.9164
_cell_length_c                    11.7384
_cell_angle_alpha                 90.0000
_cell_angle_beta                  90.0000
_cell_angle_gamma                 90.0000
loop_
_atom_site_label
_atom_site_type_symbol
_atom_site_fract_x
_atom_site_fract_y
_atom_site_fract_z
_atom_site_U_iso_or_equiv
_atom_site_adp_type
_atom_site_occupancy
C1     C     0.14444   0.38513   0.81063   0.00000  Uiso   1.00
C2     C     0.18918   0.43317   0.77617   0.00000  Uiso   1.00
C3     C     0.23375   0.39730   0.78102   0.00000  Uiso   1.00
C4     C     0.27011   0.45204   0.74570   0.00000  Uiso   1.00
C5     C     0.34079   0.51335   0.69815   0.00000  Uiso   1.00
C6     C     0.12139   0.44434   0.90029   0.00000  Uiso   1.00
C7     C     0.10896   0.41785   0.00947   0.00000  Uiso   1.00
C8     C     0.08824   0.48200   0.07862   0.00000  Uiso   1.00
C9     C     0.05364   0.56062   0.22373   0.00000  Uiso   1.00
C10    C     0.11269   0.38823   0.70654   0.00000  Uiso   1.00
C11    C     0.09294   0.31457   0.65283   0.00000  Uiso   1.00
C12    C     0.06490   0.33148   0.55887   0.00000  Uiso   1.00
C13    C     0.01680   0.32299   0.40316   0.00000  Uiso   1.00
C14    C     0.12975   0.54615   0.73928   0.00000  Uiso   1.00
C15    C     0.18120   0.52063   0.73742   0.00000  Uiso   1.00
C16    C     0.21750   0.57544   0.70208   0.00000  Uiso   1.00
C17    C     0.26212   0.53966   0.70687   0.00000  Uiso   1.00
C18    C     0.11341   0.53179   0.86154   0.00000  Uiso   1.00
C19    C     0.09270   0.59599   0.93054   0.00000  Uiso   1.00
C20    C     0.08025   0.56961   0.03980   0.00000  Uiso   1.00
C21    C     0.10472   0.47569   0.66778   0.00000  Uiso   1.00
C22    C     0.07669   0.49272   0.57389   0.00000  Uiso   1.00
C23    C     0.05690   0.41910   0.52005   0.00000  Uiso   1.00
H24    H     0.15065   0.31705   0.84080   0.00000  Uiso   1.00
H25    H     0.23991   0.32962   0.81102   0.00000  Uiso   1.00
H26    H     0.11513   0.35016   0.03944   0.00000  Uiso   1.00
H27    H     0.09912   0.24690   0.68285   0.00000  Uiso   1.00
H28    H     0.33536   0.38213   0.76096   0.00000  Uiso   1.00
H29    H     0.07224   0.42545   0.24256   0.00000  Uiso   1.00
H30    H     0.03848   0.20770   0.49063   0.00000  Uiso   1.00
H31    H     0.12354   0.61424   0.70911   0.00000  Uiso   1.00
H32    H     0.21132   0.64312   0.67210   0.00000  Uiso   1.00
H33    H     0.08653   0.66366   0.90052   0.00000  Uiso   1.00
H34    H     0.07053   0.56040   0.54393   0.00000  Uiso   1.00
H35    H     0.31215   0.63659   0.64820   0.00000  Uiso   1.00
H36    H     0.04902   0.67990   0.12981   0.00000  Uiso   1.00
H37    H     0.01527   0.46215   0.37787   0.00000  Uiso   1.00
O38    O     0.38199   0.52301   0.68265   0.00000  Uiso   1.00
O39    O     0.03677   0.57982   0.31449   0.00000  Uiso   1.00
O40    O     0.99248   0.29415   0.32796   0.00000  Uiso   1.00
N41    N     0.31785   0.43805   0.73948   0.00000  Uiso   1.00
N42    N     0.07185   0.47855   0.18976   0.00000  Uiso   1.00
N43    N     0.04028   0.27498   0.48678   0.00000  Uiso   1.00
N44    N     0.30536   0.57497   0.67880   0.00000  Uiso   1.00
N45    N     0.05936   0.61547   0.12909   0.00000  Uiso   1.00
N46    N     0.02779   0.41189   0.42611   0.00000  Uiso   1.00
C47    C     0.85807   0.01025   0.18463   0.00000  Uiso   1.00
C48    C     0.81355   0.05897   0.21922   0.00000  Uiso   1.00
C49    C     0.76881   0.02394   0.21395   0.00000  Uiso   1.00
C50    C     0.73270   0.07921   0.24948   0.00000  Uiso   1.00
C51    C     0.66229   0.14162   0.29713   0.00000  Uiso   1.00
C52    C     0.88149   0.06939   0.09546   0.00000  Uiso   1.00
C53    C     0.89386   0.04312   0.98615   0.00000  Uiso   1.00
C54    C     0.91495   0.10716   0.91752   0.00000  Uiso   1.00
C55    C     0.95004   0.18573   0.77307   0.00000  Uiso   1.00
C56    C     0.88976   0.01234   0.28888   0.00000  Uiso   1.00
C57    C     0.90911   0.93810   0.34218   0.00000  Uiso   1.00
C58    C     0.93717   0.95411   0.43637   0.00000  Uiso   1.00
C59    C     0.98510   0.94409   0.59222   0.00000  Uiso   1.00
C60    C     0.87351   0.17069   0.25711   0.00000  Uiso   1.00
C61    C     0.82194   0.14612   0.25857   0.00000  Uiso   1.00
C62    C     0.78589   0.20145   0.29413   0.00000  Uiso   1.00
C63    C     0.74110   0.16651   0.28892   0.00000  Uiso   1.00
C64    C     0.88987   0.15653   0.13482   0.00000  Uiso   1.00
C65    C     0.91095   0.22063   0.06634   0.00000  Uiso   1.00
C66    C     0.92335   0.19446   0.95695   0.00000  Uiso   1.00
C67    C     0.89815   0.09948   0.32824   0.00000  Uiso   1.00
C68    C     0.92618   0.11561   0.42236   0.00000  Uiso   1.00
C69    C     0.94557   0.04141   0.47580   0.00000  Uiso   1.00
H70    H     0.85155   0.94240   0.15398   0.00000  Uiso   1.00
H71    H     0.76233   0.95650   0.18347   0.00000  Uiso   1.00
H72    H     0.88737   0.97567   0.95572   0.00000  Uiso   1.00
H73    H     0.90261   0.87067   0.31169   0.00000  Uiso   1.00
H74    H     0.66712   0.01057   0.23348   0.00000  Uiso   1.00
H75    H     0.93079   0.05099   0.75327   0.00000  Uiso   1.00
H76    H     0.96292   0.82957   0.50390   0.00000  Uiso   1.00
H77    H     0.88004   0.23854   0.28775   0.00000  Uiso   1.00
H78    H     0.79239   0.26889   0.32458   0.00000  Uiso   1.00
H79    H     0.91743   0.28806   0.09683   0.00000  Uiso   1.00
H80    H     0.93267   0.18306   0.45280   0.00000  Uiso   1.00
H81    H     0.69151   0.26412   0.34801   0.00000  Uiso   1.00
H82    H     0.95519   0.30453   0.86780   0.00000  Uiso   1.00
H83    H     0.98732   0.08312   0.61843   0.00000  Uiso   1.00
O84    O     0.62114   0.15197   0.31252   0.00000  Uiso   1.00
O85    O     0.96708   0.20499   0.68252   0.00000  Uiso   1.00
O86    O     0.00922   0.91450   0.66733   0.00000  Uiso   1.00
N87    N     0.68489   0.06607   0.25540   0.00000  Uiso   1.00
N88    N     0.93140   0.10386   0.80643   0.00000  Uiso   1.00
N89    N     0.96145   0.89686   0.50819   0.00000  Uiso   1.00
N90    N     0.69801   0.20250   0.31703   0.00000  Uiso   1.00
N91    N     0.94453   0.24029   0.86806   0.00000  Uiso   1.00
N92    N     0.97458   0.03329   0.56981   0.00000  Uiso   1.00
C93    C     0.85556   0.61487   0.31063   0.00000  Uiso   1.00
C94    C     0.81082   0.56683   0.27617   0.00000  Uiso   1.00
C95    C     0.76625   0.60270   0.28102   0.00000  Uiso   1.00
C96    C     0.72989   0.54796   0.24570   0.00000  Uiso   1.00
C97    C     0.65921   0.48665   0.19815   0.00000  Uiso   1.00
C98    C     0.87861   0.55566   0.40029   0.00000  Uiso   1.00
C99    C     0.89104   0.58215   0.50947   0.00000  Uiso   1.00
C100   C     0.91176   0.51800   0.57862   0.00000  Uiso   1.00
C101   C     0.94636   0.43938   0.72373   0.00000  Uiso   1.00
C102   C     0.88731   0.61177   0.20654   0.00000  Uiso   1.00
C103   C     0.90706   0.68543   0.15283   0.00000  Uiso   1.00
C104   C     0.93510   0.66852   0.05887   0.00000  Uiso   1.00
C105   C     0.98320   0.67701   0.90316   0.00000  Uiso   1.00
C106   C     0.87025   0.45385   0.23928   0.00000  Uiso   1.00
C107   C     0.81880   0.47937   0.23742   0.00000  Uiso   1.00
C108   C     0.78250   0.42456   0.20208   0.00000  Uiso   1.00
C109   C     0.73788   0.46034   0.20687   0.00000  Uiso   1.00
C110   C     0.88659   0.46821   0.36154   0.00000  Uiso   1.00
C111   C     0.90730   0.40401   0.43054   0.00000  Uiso   1.00
C112   C     0.91975   0.43039   0.53980   0.00000  Uiso   1.00
C113   C     0.89528   0.52431   0.16778   0.00000  Uiso   1.00
C114   C     0.92331   0.50728   0.07389   0.00000  Uiso   1.00
C115   C     0.94310   0.58090   0.02005   0.00000  Uiso   1.00
H116   H     0.84935   0.68295   0.34080   0.00000  Uiso   1.00
H117   H     0.76009   0.67038   0.31102   0.00000  Uiso   1.00
H118   H     0.88487   0.64984   0.53944   0.00000  Uiso   1.00
H119   H     0.90088   0.75310   0.18285   0.00000  Uiso   1.00
H120   H     0.66464   0.61787   0.26096   0.00000  Uiso   1.00
H121   H     0.92776   0.57455   0.74256   0.00000  Uiso   1.00
H122   H     0.96152   0.79230   0.99063   0.00000  Uiso   1.00
H123   H     0.87646   0.38576   0.20911   0.00000  Uiso   1.00
H124   H     0.78868   0.35688   0.17210   0.00000  Uiso   1.00
H125   H     0.91347   0.33634   0.40052   0.00000  Uiso   1.00
H126   H     0.92947   0.43960   0.04393   0.00000  Uiso   1.00
H127   H     0.68785   0.36341   0.14820   0.00000  Uiso   1.00
H128   H     0.95098   0.32010   0.62981   0.00000  Uiso   1.00
H129   H     0.98473   0.53785   0.87787   0.00000  Uiso   1.00
O130   O     0.61801   0.47699   0.18265   0.00000  Uiso   1.00
O131   O     0.96323   0.42018   0.81449   0.00000  Uiso   1.00
O132   O     0.00752   0.70585   0.82796   0.00000  Uiso   1.00
N133   N     0.68215   0.56195   0.23948   0.00000  Uiso   1.00
N134   N     0.92815   0.52145   0.68976   0.00000  Uiso   1.00
N135   N     0.95972   0.72502   0.98678   0.00000  Uiso   1.00
N136   N     0.69464   0.42503   0.17880   0.00000  Uiso   1.00
N137   N     0.94064   0.38453   0.62909   0.00000  Uiso   1.00
N138   N     0.97221   0.58811   0.92611   0.00000  Uiso   1.00
C139   C     0.14193   0.98975   0.68463   0.00000  Uiso   1.00
C140   C     0.18645   0.94103   0.71922   0.00000  Uiso   1.00
C141   C     0.23119   0.97606   0.71395   0.00000  Uiso   1.00
C142   C     0.26730   0.92079   0.74948   0.00000  Uiso   1.00
C143   C     0.33771   0.85838   0.79713   0.00000  Uiso   1.00
C144   C     0.11851   0.93061   0.59546   0.00000  Uiso   1.00
C145   C     0.10614   0.95688   0.48615   0.00000  Uiso   1.00
C146   C     0.08505   0.89284   0.41752   0.00000  Uiso   1.00
C147   C     0.04996   0.81427   0.27307   0.00000  Uiso   1.00
C148   C     0.11024   0.98766   0.78888   0.00000  Uiso   1.00
C149   C     0.09089   0.06190   0.84218   0.00000  Uiso   1.00
C150   C     0.06283   0.04589   0.93637   0.00000  Uiso   1.00
C151   C     0.01490   0.05591   0.09222   0.00000  Uiso   1.00
C152   C     0.12649   0.82931   0.75711   0.00000  Uiso   1.00
C153   C     0.17806   0.85388   0.75857   0.00000  Uiso   1.00
C154   C     0.21411   0.79855   0.79413   0.00000  Uiso   1.00
C155   C     0.25890   0.83349   0.78892   0.00000  Uiso   1.00
C156   C     0.11013   0.84347   0.63482   0.00000  Uiso   1.00
C157   C     0.08905   0.77937   0.56634   0.00000  Uiso   1.00
C158   C     0.07665   0.80554   0.45695   0.00000  Uiso   1.00
C159   C     0.10185   0.90052   0.82824   0.00000  Uiso   1.00
C160   C     0.07382   0.88439   0.92236   0.00000  Uiso   1.00
C161   C     0.05443   0.95859   0.97580   0.00000  Uiso   1.00
H162   H     0.14845   0.05760   0.65398   0.00000  Uiso   1.00
H163   H     0.23767   0.04350   0.68347   0.00000  Uiso   1.00
H164   H     0.11263   0.02433   0.45572   0.00000  Uiso   1.00
H165   H     0.09739   0.12933   0.81169   0.00000  Uiso   1.00
H166   H     0.33288   0.98943   0.73348   0.00000  Uiso   1.00
H167   H     0.06921   0.94901   0.25327   0.00000  Uiso   1.00
H168   H     0.03708   0.17043   0.00390   0.00000  Uiso   1.00
H169   H     0.11996   0.76146   0.78775   0.00000  Uiso   1.00
H170   H     0.20761   0.73111   0.82458   0.00000  Uiso   1.00
H171   H     0.08257   0.71194   0.59683   0.00000  Uiso   1.00
H172   H     0.06733   0.81694   0.95280   0.00000  Uiso   1.00
H173   H     0.30849   0.73588   0.84801   0.00000  Uiso   1.00
H174   H     0.04481   0.69547   0.36780   0.00000  Uiso   1.00
H175   H     0.01268   0.91688   0.11843   0.00000  Uiso   1.00
O176   O     0.37886   0.84803   0.81252   0.00000  Uiso   1.00
O177   O     0.03292   0.79501   0.18252   0.00000  Uiso   1.00
O178   O     0.99078   0.08550   0.16733   0.00000  Uiso   1.00
N179   N     0.31511   0.93393   0.75540   0.00000  Uiso   1.00
N180   N     0.06860   0.89614   0.30643   0.00000  Uiso   1.00
N181   N     0.03855   0.10314   0.00819   0.00000  Uiso   1.00
N182   N     0.30199   0.79750   0.81703   0.00000  Uiso   1.00
N183   N     0.05547   0.75971   0.36806   0.00000  Uiso   1.00
N184   N     0.02542   0.96671   0.06981   0.00000  Uiso   1.00
C185   C     0.64444   0.11487   0.81063   0.00000  Uiso   1.00
C186   C     0.68918   0.06683   0.77617   0.00000  Uiso   1.00
C187   C     0.73375   0.10270   0.78102   0.00000  Uiso   1.00
C188   C     0.77011   0.04796   0.74570   0.00000  Uiso   1.00
C189   C     0.84079   0.98665   0.69815   0.00000  Uiso   1.00
C190   C     0.62139   0.05566   0.90029   0.00000  Uiso   1.00
C191   C     0.60896   0.08215   0.00947   0.00000  Uiso   1.00
C192   C     0.58824   0.01800   0.07862   0.00000  Uiso   1.00
C193   C     0.55364   0.93938   0.22373   0.00000  Uiso   1.00
C194   C     0.61269   0.11177   0.70654   0.00000  Uiso   1.00
C195   C     0.59294   0.18543   0.65283   0.00000  Uiso   1.00
C196   C     0.56490   0.16852   0.55887   0.00000  Uiso   1.00
C197   C     0.51680   0.17701   0.40316   0.00000  Uiso   1.00
C198   C     0.62975   0.95385   0.73928   0.00000  Uiso   1.00
C199   C     0.68120   0.97937   0.73742   0.00000  Uiso   1.00
C200   C     0.71750   0.92456   0.70208   0.00000  Uiso   1.00
C201   C     0.76212   0.96034   0.70687   0.00000  Uiso   1.00
C202   C     0.61341   0.96821   0.86154   0.00000  Uiso   1.00
C203   C     0.59270   0.90401   0.93054   0.00000  Uiso   1.00
C204   C     0.58025   0.93039   0.03980   0.00000  Uiso   1.00
C205   C     0.60472   0.02431   0.66778   0.00000  Uiso   1.00
C206   C     0.57669   0.00728   0.57389   0.00000  Uiso   1.00
C207   C     0.55690   0.08090   0.52005   0.00000  Uiso   1.00
H208   H     0.65065   0.18295   0.84080   0.00000  Uiso   1.00
H209   H     0.73991   0.17038   0.81102   0.00000  Uiso   1.00
H210   H     0.61513   0.14984   0.03944   0.00000  Uiso   1.00
H211   H     0.59912   0.25310   0.68285   0.00000  Uiso   1.00
H212   H     0.83536   0.11787   0.76096   0.00000  Uiso   1.00
H213   H     0.57224   0.07455   0.24256   0.00000  Uiso   1.00
H214   H     0.53848   0.29230   0.49063   0.00000  Uiso   1.00
H215   H     0.62354   0.88576   0.70911   0.00000  Uiso   1.00
H216   H     0.71132   0.85688   0.67210   0.00000  Uiso   1.00
H217   H     0.58653   0.83634   0.90052   0.00000  Uiso   1.00
H218   H     0.57053   0.93960   0.54393   0.00000  Uiso   1.00
H219   H     0.81215   0.86341   0.64820   0.00000  Uiso   1.00
H220   H     0.54902   0.82010   0.12981   0.00000  Uiso   1.00
H221   H     0.51527   0.03785   0.37787   0.00000  Uiso   1.00
O222   O     0.88199   0.97699   0.68265   0.00000  Uiso   1.00
O223   O     0.53677   0.92018   0.31449   0.00000  Uiso   1.00
O224   O     0.49248   0.20585   0.32796   0.00000  Uiso   1.00
N225   N     0.81785   0.06195   0.73948   0.00000  Uiso   1.00
N226   N     0.57185   0.02145   0.18976   0.00000  Uiso   1.00
N227   N     0.54028   0.22502   0.48678   0.00000  Uiso   1.00
N228   N     0.80536   0.92503   0.67880   0.00000  Uiso   1.00
N229   N     0.55936   0.88453   0.12909   0.00000  Uiso   1.00
N230   N     0.52779   0.08811   0.42611   0.00000  Uiso   1.00
C231   C     0.35807   0.48975   0.18463   0.00000  Uiso   1.00
C232   C     0.31355   0.44103   0.21922   0.00000  Uiso   1.00
C233   C     0.26881   0.47606   0.21395   0.00000  Uiso   1.00
C234   C     0.23270   0.42079   0.24948   0.00000  Uiso   1.00
C235   C     0.16229   0.35838   0.29713   0.00000  Uiso   1.00
C236   C     0.38149   0.43061   0.09546   0.00000  Uiso   1.00
C237   C     0.39386   0.45688   0.98615   0.00000  Uiso   1.00
C238   C     0.41495   0.39284   0.91752   0.00000  Uiso   1.00
C239   C     0.45004   0.31427   0.77307   0.00000  Uiso   1.00
C240   C     0.38976   0.48766   0.28888   0.00000  Uiso   1.00
C241   C     0.40911   0.56190   0.34218   0.00000  Uiso   1.00
C242   C     0.43717   0.54589   0.43637   0.00000  Uiso   1.00
C243   C     0.48510   0.55591   0.59222   0.00000  Uiso   1.00
C244   C     0.37351   0.32931   0.25711   0.00000  Uiso   1.00
C245   C     0.32194   0.35388   0.25857   0.00000  Uiso   1.00
C246   C     0.28589   0.29855   0.29413   0.00000  Uiso   1.00
C247   C     0.24110   0.33349   0.28892   0.00000  Uiso   1.00
C248   C     0.38987   0.34347   0.13482   0.00000  Uiso   1.00
C249   C     0.41095   0.27937   0.06634   0.00000  Uiso   1.00
C250   C     0.42335   0.30554   0.95695   0.00000  Uiso   1.00
C251   C     0.39815   0.40052   0.32824   0.00000  Uiso   1.00
C252   C     0.42618   0.38439   0.42236   0.00000  Uiso   1.00
C253   C     0.44557   0.45859   0.47580   0.00000  Uiso   1.00
H254   H     0.35155   0.55760   0.15398   0.00000  Uiso   1.00
H255   H     0.26233   0.54350   0.18347   0.00000  Uiso   1.00
H256   H     0.38737   0.52433   0.95572   0.00000  Uiso   1.00
H257   H     0.40261   0.62933   0.31169   0.00000  Uiso   1.00
H258   H     0.16712   0.48943   0.23348   0.00000  Uiso   1.00
H259   H     0.43079   0.44901   0.75327   0.00000  Uiso   1.00
H260   H     0.46292   0.67043   0.50390   0.00000  Uiso   1.00
H261   H     0.38004   0.26146   0.28775   0.00000  Uiso   1.00
H262   H     0.29239   0.23111   0.32458   0.00000  Uiso   1.00
H263   H     0.41743   0.21194   0.09683   0.00000  Uiso   1.00
H264   H     0.43267   0.31694   0.45280   0.00000  Uiso   1.00
H265   H     0.19151   0.23588   0.34801   0.00000  Uiso   1.00
H266   H     0.45519   0.19547   0.86780   0.00000  Uiso   1.00
H267   H     0.48732   0.41688   0.61843   0.00000  Uiso   1.00
O268   O     0.12114   0.34803   0.31252   0.00000  Uiso   1.00
O269   O     0.46708   0.29501   0.68252   0.00000  Uiso   1.00
O270   O     0.50922   0.58550   0.66733   0.00000  Uiso   1.00
N271   N     0.18489   0.43393   0.25540   0.00000  Uiso   1.00
N272   N     0.43140   0.39614   0.80643   0.00000  Uiso   1.00
N273   N     0.46145   0.60314   0.50819   0.00000  Uiso   1.00
N274   N     0.19801   0.29750   0.31703   0.00000  Uiso   1.00
N275   N     0.44453   0.25971   0.86806   0.00000  Uiso   1.00
N276   N     0.47458   0.46671   0.56981   0.00000  Uiso   1.00
C277   C     0.35556   0.88513   0.31063   0.00000  Uiso   1.00
C278   C     0.31082   0.93317   0.27617   0.00000  Uiso   1.00
C279   C     0.26625   0.89730   0.28102   0.00000  Uiso   1.00
C280   C     0.22989   0.95204   0.24570   0.00000  Uiso   1.00
C281   C     0.15921   0.01335   0.19815   0.00000  Uiso   1.00
C282   C     0.37861   0.94434   0.40029   0.00000  Uiso   1.00
C283   C     0.39104   0.91785   0.50947   0.00000  Uiso   1.00
C284   C     0.41176   0.98200   0.57862   0.00000  Uiso   1.00
C285   C     0.44636   0.06062   0.72373   0.00000  Uiso   1.00
C286   C     0.38731   0.88823   0.20654   0.00000  Uiso   1.00
C287   C     0.40706   0.81457   0.15283   0.00000  Uiso   1.00
C288   C     0.43510   0.83148   0.05887   0.00000  Uiso   1.00
C289   C     0.48320   0.82299   0.90316   0.00000  Uiso   1.00
C290   C     0.37025   0.04615   0.23928   0.00000  Uiso   1.00
C291   C     0.31880   0.02063   0.23742   0.00000  Uiso   1.00
C292   C     0.28250   0.07544   0.20208   0.00000  Uiso   1.00
C293   C     0.23788   0.03966   0.20687   0.00000  Uiso   1.00
C294   C     0.38659   0.03179   0.36154   0.00000  Uiso   1.00
C295   C     0.40730   0.09599   0.43054   0.00000  Uiso   1.00
C296   C     0.41975   0.06961   0.53980   0.00000  Uiso   1.00
C297   C     0.39528   0.97569   0.16778   0.00000  Uiso   1.00
C298   C     0.42331   0.99272   0.07389   0.00000  Uiso   1.00
C299   C     0.44310   0.91910   0.02005   0.00000  Uiso   1.00
H300   H     0.34935   0.81705   0.34080   0.00000  Uiso   1.00
H301   H     0.26009   0.82962   0.31102   0.00000  Uiso   1.00
H302   H     0.38487   0.85016   0.53944   0.00000  Uiso   1.00
H303   H     0.40088   0.74690   0.18285   0.00000  Uiso   1.00
H304   H     0.16464   0.88213   0.26096   0.00000  Uiso   1.00
H305   H     0.42776   0.92545   0.74256   0.00000  Uiso   1.00
H306   H     0.46152   0.70770   0.99063   0.00000  Uiso   1.00
H307   H     0.37646   0.11424   0.20911   0.00000  Uiso   1.00
H308   H     0.28868   0.14312   0.17210   0.00000  Uiso   1.00
H309   H     0.41347   0.16366   0.40052   0.00000  Uiso   1.00
H310   H     0.42947   0.06040   0.04393   0.00000  Uiso   1.00
H311   H     0.18785   0.13659   0.14820   0.00000  Uiso   1.00
H312   H     0.45098   0.17990   0.62981   0.00000  Uiso   1.00
H313   H     0.48473   0.96215   0.87787   0.00000  Uiso   1.00
O314   O     0.11801   0.02301   0.18265   0.00000  Uiso   1.00
O315   O     0.46323   0.07982   0.81449   0.00000  Uiso   1.00
O316   O     0.50752   0.79415   0.82796   0.00000  Uiso   1.00
N317   N     0.18215   0.93805   0.23948   0.00000  Uiso   1.00
N318   N     0.42815   0.97855   0.68976   0.00000  Uiso   1.00
N319   N     0.45972   0.77498   0.98678   0.00000  Uiso   1.00
N320   N     0.19464   0.07497   0.17880   0.00000  Uiso   1.00
N321   N     0.44064   0.11547   0.62909   0.00000  Uiso   1.00
N322   N     0.47221   0.91189   0.92611   0.00000  Uiso   1.00
C323   C     0.64193   0.51025   0.68463   0.00000  Uiso   1.00
C324   C     0.68645   0.55897   0.71922   0.00000  Uiso   1.00
C325   C     0.73119   0.52394   0.71395   0.00000  Uiso   1.00
C326   C     0.76730   0.57921   0.74948   0.00000  Uiso   1.00
C327   C     0.83771   0.64162   0.79713   0.00000  Uiso   1.00
C328   C     0.61851   0.56939   0.59546   0.00000  Uiso   1.00
C329   C     0.60614   0.54312   0.48615   0.00000  Uiso   1.00
C330   C     0.58505   0.60716   0.41752   0.00000  Uiso   1.00
C331   C     0.54996   0.68573   0.27307   0.00000  Uiso   1.00
C332   C     0.61024   0.51234   0.78888   0.00000  Uiso   1.00
C333   C     0.59089   0.43810   0.84218   0.00000  Uiso   1.00
C334   C     0.56283   0.45411   0.93637   0.00000  Uiso   1.00
C335   C     0.51490   0.44409   0.09222   0.00000  Uiso   1.00
C336   C     0.62649   0.67069   0.75711   0.00000  Uiso   1.00
C337   C     0.67806   0.64612   0.75857   0.00000  Uiso   1.00
C338   C     0.71411   0.70145   0.79413   0.00000  Uiso   1.00
C339   C     0.75890   0.66651   0.78892   0.00000  Uiso   1.00
C340   C     0.61013   0.65653   0.63482   0.00000  Uiso   1.00
C341   C     0.58905   0.72063   0.56634   0.00000  Uiso   1.00
C342   C     0.57665   0.69446   0.45695   0.00000  Uiso   1.00
C343   C     0.60185   0.59948   0.82824   0.00000  Uiso   1.00
C344   C     0.57382   0.61561   0.92236   0.00000  Uiso   1.00
C345   C     0.55443   0.54141   0.97580   0.00000  Uiso   1.00
H346   H     0.64845   0.44240   0.65398   0.00000  Uiso   1.00
H347   H     0.73767   0.45650   0.68347   0.00000  Uiso   1.00
H348   H     0.61263   0.47567   0.45572   0.00000  Uiso   1.00
H349   H     0.59739   0.37067   0.81169   0.00000  Uiso   1.00
H350   H     0.83288   0.51057   0.73348   0.00000  Uiso   1.00
H351   H     0.56921   0.55099   0.25327   0.00000  Uiso   1.00
H352   H     0.53708   0.32957   0.00390   0.00000  Uiso   1.00
H353   H     0.61996   0.73854   0.78775   0.00000  Uiso   1.00
H354   H     0.70761   0.76889   0.82458   0.00000  Uiso   1.00
H355   H     0.58257   0.78806   0.59683   0.00000  Uiso   1.00
H356   H     0.56733   0.68306   0.95280   0.00000  Uiso   1.00
H357   H     0.80849   0.76412   0.84801   0.00000  Uiso   1.00
H358   H     0.54481   0.80453   0.36780   0.00000  Uiso   1.00
H359   H     0.51268   0.58312   0.11843   0.00000  Uiso   1.00
O360   O     0.87886   0.65197   0.81252   0.00000  Uiso   1.00
O361   O     0.53292   0.70499   0.18252   0.00000  Uiso   1.00
O362   O     0.49078   0.41450   0.16733   0.00000  Uiso   1.00
N363   N     0.81511   0.56607   0.75540   0.00000  Uiso   1.00
N364   N     0.56860   0.60386   0.30643   0.00000  Uiso   1.00
N365   N     0.53855   0.39686   0.00819   0.00000  Uiso   1.00
N366   N     0.80199   0.70250   0.81703   0.00000  Uiso   1.00
N367   N     0.55547   0.74029   0.36806   0.00000  Uiso   1.00
N368   N     0.52542   0.53329   0.06981   0.00000  Uiso   1.00
