data_job_00177
_audit_creation_date              2018-12-19
_audit_creation_method            'Materials Studio'
_symmetry_space_group_name_H-M    'P1'
_symmetry_Int_Tables_number       1
_symmetry_cell_setting            triclinic
loop_
_symmetry_equiv_pos_as_xyz
  x,y,z
_cell_length_a                    28.2075
_cell_length_b                    14.8070
_cell_length_c                    9.9221
_cell_angle_alpha                 90.0000
_cell_angle_beta                  90.0000
_cell_angle_gamma                 90.0000
loop_
_atom_site_label
_atom_site_type_symbol
_atom_site_fract_x
_atom_site_fract_y
_atom_site_fract_z
_atom_site_U_iso_or_equiv
_atom_site_adp_type
_atom_site_occupancy
C1     C     0.58202   0.11497   0.80468   0.00000  Uiso   1.00
C2     C     0.56597   0.03654   0.71615   0.00000  Uiso   1.00
C3     C     0.51930   0.01322   0.68874   0.00000  Uiso   1.00
C4     C     0.51200   0.93919   0.60541   0.00000  Uiso   1.00
C5     C     0.48129   0.82481   0.47621   0.00000  Uiso   1.00
C6     C     0.61371   0.07387   0.91303   0.00000  Uiso   1.00
C7     C     0.60720   0.08195   0.05114   0.00000  Uiso   1.00
C8     C     0.64010   0.03935   0.13355   0.00000  Uiso   1.00
C9     C     0.68353   0.98298   0.31000   0.00000  Uiso   1.00
C10    C     0.61437   0.17281   0.71686   0.00000  Uiso   1.00
C11    C     0.60841   0.26410   0.69007   0.00000  Uiso   1.00
C12    C     0.64187   0.30482   0.60735   0.00000  Uiso   1.00
C13    C     0.68632   0.40208   0.47922   0.00000  Uiso   1.00
C14    C     0.65204   0.02495   0.70544   0.00000  Uiso   1.00
C15    C     0.60400   0.98764   0.66225   0.00000  Uiso   1.00
C16    C     0.59677   0.91362   0.57894   0.00000  Uiso   1.00
C17    C     0.55010   0.89021   0.55141   0.00000  Uiso   1.00
C18    C     0.65175   0.02497   0.85913   0.00000  Uiso   1.00
C19    C     0.68467   0.98235   0.94135   0.00000  Uiso   1.00
C20    C     0.67820   0.99037   0.07955   0.00000  Uiso   1.00
C21    C     0.65240   0.12392   0.66296   0.00000  Uiso   1.00
C22    C     0.68588   0.16450   0.58027   0.00000  Uiso   1.00
C23    C     0.67997   0.25583   0.55335   0.00000  Uiso   1.00
H24    H     0.55241   0.15304   0.84665   0.00000  Uiso   1.00
H25    H     0.48988   0.05107   0.73048   0.00000  Uiso   1.00
H26    H     0.57776   0.11980   0.09283   0.00000  Uiso   1.00
H27    H     0.57897   0.30192   0.73180   0.00000  Uiso   1.00
H28    H     0.43732   0.91645   0.57795   0.00000  Uiso   1.00
H29    H     0.62264   0.06139   0.34198   0.00000  Uiso   1.00
H30    H     0.62519   0.44542   0.58070   0.00000  Uiso   1.00
H31    H     0.68166   0.98688   0.66348   0.00000  Uiso   1.00
H32    H     0.62621   0.87580   0.53725   0.00000  Uiso   1.00
H33    H     0.71410   0.94453   0.89960   0.00000  Uiso   1.00
H34    H     0.71531   0.12664   0.53858   0.00000  Uiso   1.00
H35    H     0.54797   0.77418   0.42112   0.00000  Uiso   1.00
H36    H     0.73330   0.91913   0.18516   0.00000  Uiso   1.00
H37    H     0.73585   0.30316   0.42387   0.00000  Uiso   1.00
O38    O     0.45384   0.77522   0.41984   0.00000  Uiso   1.00
O39    O     0.69698   0.96539   0.42222   0.00000  Uiso   1.00
O40    O     0.70032   0.46923   0.42342   0.00000  Uiso   1.00
N41    N     0.47097   0.89822   0.55834   0.00000  Uiso   1.00
N42    N     0.64423   0.03372   0.27267   0.00000  Uiso   1.00
N43    N     0.64662   0.39276   0.56096   0.00000  Uiso   1.00
N44    N     0.53051   0.82167   0.47395   0.00000  Uiso   1.00
N45    N     0.70377   0.95717   0.18828   0.00000  Uiso   1.00
N46    N     0.70616   0.31622   0.47657   0.00000  Uiso   1.00
C47    C     0.41512   0.10221   0.20528   0.00000  Uiso   1.00
C48    C     0.43243   0.17948   0.29418   0.00000  Uiso   1.00
C49    C     0.47944   0.20272   0.31644   0.00000  Uiso   1.00
C50    C     0.48793   0.27560   0.40111   0.00000  Uiso   1.00
C51    C     0.52046   0.38833   0.52995   0.00000  Uiso   1.00
C52    C     0.38171   0.14463   0.10236   0.00000  Uiso   1.00
C53    C     0.38609   0.13856   0.96333   0.00000  Uiso   1.00
C54    C     0.35187   0.18210   0.88652   0.00000  Uiso   1.00
C55    C     0.30565   0.24066   0.71754   0.00000  Uiso   1.00
C56    C     0.38426   0.04291   0.29520   0.00000  Uiso   1.00
C57    C     0.39076   0.95130   0.31830   0.00000  Uiso   1.00
C58    C     0.35868   0.90918   0.40383   0.00000  Uiso   1.00
C59    C     0.31641   0.80981   0.53428   0.00000  Uiso   1.00
C60    C     0.34659   0.19031   0.31607   0.00000  Uiso   1.00
C61    C     0.39520   0.22733   0.35436   0.00000  Uiso   1.00
C62    C     0.40362   0.30019   0.43902   0.00000  Uiso   1.00
C63    C     0.45063   0.32354   0.46140   0.00000  Uiso   1.00
C64    C     0.34449   0.19248   0.16253   0.00000  Uiso   1.00
C65    C     0.31026   0.23603   0.08591   0.00000  Uiso   1.00
C66    C     0.31458   0.23003   0.94680   0.00000  Uiso   1.00
C67    C     0.34703   0.09076   0.35539   0.00000  Uiso   1.00
C68    C     0.31493   0.04877   0.44089   0.00000  Uiso   1.00
C69    C     0.32139   0.95712   0.46412   0.00000  Uiso   1.00
H70    H     0.44410   0.06496   0.15842   0.00000  Uiso   1.00
H71    H     0.50824   0.16568   0.26984   0.00000  Uiso   1.00
H72    H     0.41490   0.10152   0.91679   0.00000  Uiso   1.00
H73    H     0.41957   0.91429   0.27171   0.00000  Uiso   1.00
H74    H     0.56293   0.29847   0.41988   0.00000  Uiso   1.00
H75    H     0.36610   0.16316   0.67544   0.00000  Uiso   1.00
H76    H     0.37596   0.76835   0.42386   0.00000  Uiso   1.00
H77    H     0.31760   0.22757   0.36292   0.00000  Uiso   1.00
H78    H     0.37480   0.33721   0.48558   0.00000  Uiso   1.00
H79    H     0.28145   0.27305   0.13251   0.00000  Uiso   1.00
H80    H     0.28613   0.08582   0.48744   0.00000  Uiso   1.00
H81    H     0.45463   0.43770   0.59497   0.00000  Uiso   1.00
H82    H     0.25779   0.30238   0.85053   0.00000  Uiso   1.00
H83    H     0.26765   0.90757   0.59896   0.00000  Uiso   1.00
O84    O     0.54869   0.43730   0.58438   0.00000  Uiso   1.00
O85    O     0.29044   0.25975   0.60771   0.00000  Uiso   1.00
O86    O     0.30338   0.74178   0.58963   0.00000  Uiso   1.00
N87    N     0.52959   0.31618   0.44427   0.00000  Uiso   1.00
N88    N     0.34557   0.18968   0.74827   0.00000  Uiso   1.00
N89    N     0.35478   0.82056   0.44795   0.00000  Uiso   1.00
N90    N     0.47132   0.39109   0.53849   0.00000  Uiso   1.00
N91    N     0.28729   0.26459   0.84248   0.00000  Uiso   1.00
N92    N     0.29650   0.89548   0.54217   0.00000  Uiso   1.00
C93    C     0.91798   0.88503   0.30468   0.00000  Uiso   1.00
C94    C     0.93403   0.96346   0.21615   0.00000  Uiso   1.00
C95    C     0.98070   0.98678   0.18874   0.00000  Uiso   1.00
C96    C     0.98800   0.06081   0.10541   0.00000  Uiso   1.00
C97    C     0.01871   0.17519   0.97621   0.00000  Uiso   1.00
C98    C     0.88629   0.92613   0.41303   0.00000  Uiso   1.00
C99    C     0.89280   0.91805   0.55114   0.00000  Uiso   1.00
C100   C     0.85990   0.96065   0.63355   0.00000  Uiso   1.00
C101   C     0.81647   0.01702   0.81000   0.00000  Uiso   1.00
C102   C     0.88563   0.82719   0.21686   0.00000  Uiso   1.00
C103   C     0.89159   0.73590   0.19007   0.00000  Uiso   1.00
C104   C     0.85813   0.69518   0.10735   0.00000  Uiso   1.00
C105   C     0.81368   0.59792   0.97922   0.00000  Uiso   1.00
C106   C     0.84796   0.97505   0.20544   0.00000  Uiso   1.00
C107   C     0.89600   0.01236   0.16225   0.00000  Uiso   1.00
C108   C     0.90323   0.08638   0.07894   0.00000  Uiso   1.00
C109   C     0.94990   0.10979   0.05141   0.00000  Uiso   1.00
C110   C     0.84825   0.97503   0.35913   0.00000  Uiso   1.00
C111   C     0.81533   0.01765   0.44135   0.00000  Uiso   1.00
C112   C     0.82180   0.00963   0.57955   0.00000  Uiso   1.00
C113   C     0.84760   0.87608   0.16296   0.00000  Uiso   1.00
C114   C     0.81412   0.83550   0.08027   0.00000  Uiso   1.00
C115   C     0.82003   0.74417   0.05335   0.00000  Uiso   1.00
H116   H     0.94759   0.84696   0.34665   0.00000  Uiso   1.00
H117   H     0.01012   0.94893   0.23048   0.00000  Uiso   1.00
H118   H     0.92224   0.88020   0.59283   0.00000  Uiso   1.00
H119   H     0.92103   0.69808   0.23180   0.00000  Uiso   1.00
H120   H     0.06268   0.08355   0.07795   0.00000  Uiso   1.00
H121   H     0.87736   0.93861   0.84198   0.00000  Uiso   1.00
H122   H     0.87481   0.55458   0.08070   0.00000  Uiso   1.00
H123   H     0.81834   0.01312   0.16348   0.00000  Uiso   1.00
H124   H     0.87379   0.12420   0.03725   0.00000  Uiso   1.00
H125   H     0.78590   0.05547   0.39960   0.00000  Uiso   1.00
H126   H     0.78469   0.87336   0.03858   0.00000  Uiso   1.00
H127   H     0.95203   0.22582   0.92112   0.00000  Uiso   1.00
H128   H     0.76670   0.08087   0.68516   0.00000  Uiso   1.00
H129   H     0.76415   0.69684   0.92387   0.00000  Uiso   1.00
O130   O     0.04616   0.22478   0.91984   0.00000  Uiso   1.00
O131   O     0.80302   0.03461   0.92222   0.00000  Uiso   1.00
O132   O     0.79968   0.53077   0.92342   0.00000  Uiso   1.00
N133   N     0.02903   0.10178   0.05834   0.00000  Uiso   1.00
N134   N     0.85577   0.96628   0.77267   0.00000  Uiso   1.00
N135   N     0.85338   0.60724   0.06096   0.00000  Uiso   1.00
N136   N     0.96949   0.17833   0.97395   0.00000  Uiso   1.00
N137   N     0.79623   0.04283   0.68828   0.00000  Uiso   1.00
N138   N     0.79384   0.68378   0.97657   0.00000  Uiso   1.00
C139   C     0.08488   0.89779   0.70528   0.00000  Uiso   1.00
C140   C     0.06757   0.82052   0.79418   0.00000  Uiso   1.00
C141   C     0.02056   0.79728   0.81644   0.00000  Uiso   1.00
C142   C     0.01207   0.72440   0.90111   0.00000  Uiso   1.00
C143   C     0.97954   0.61167   0.02995   0.00000  Uiso   1.00
C144   C     0.11829   0.85537   0.60236   0.00000  Uiso   1.00
C145   C     0.11391   0.86144   0.46333   0.00000  Uiso   1.00
C146   C     0.14813   0.81790   0.38652   0.00000  Uiso   1.00
C147   C     0.19435   0.75934   0.21754   0.00000  Uiso   1.00
C148   C     0.11574   0.95709   0.79520   0.00000  Uiso   1.00
C149   C     0.10924   0.04870   0.81830   0.00000  Uiso   1.00
C150   C     0.14132   0.09082   0.90383   0.00000  Uiso   1.00
C151   C     0.18359   0.19019   0.03428   0.00000  Uiso   1.00
C152   C     0.15341   0.80969   0.81607   0.00000  Uiso   1.00
C153   C     0.10480   0.77267   0.85436   0.00000  Uiso   1.00
C154   C     0.09638   0.69981   0.93902   0.00000  Uiso   1.00
C155   C     0.04937   0.67646   0.96140   0.00000  Uiso   1.00
C156   C     0.15551   0.80752   0.66253   0.00000  Uiso   1.00
C157   C     0.18974   0.76397   0.58591   0.00000  Uiso   1.00
C158   C     0.18542   0.76997   0.44680   0.00000  Uiso   1.00
C159   C     0.15297   0.90924   0.85539   0.00000  Uiso   1.00
C160   C     0.18507   0.95123   0.94089   0.00000  Uiso   1.00
C161   C     0.17861   0.04288   0.96412   0.00000  Uiso   1.00
H162   H     0.05590   0.93504   0.65842   0.00000  Uiso   1.00
H163   H     0.99176   0.83432   0.76984   0.00000  Uiso   1.00
H164   H     0.08510   0.89848   0.41679   0.00000  Uiso   1.00
H165   H     0.08043   0.08571   0.77171   0.00000  Uiso   1.00
H166   H     0.93707   0.70153   0.91988   0.00000  Uiso   1.00
H167   H     0.13390   0.83684   0.17544   0.00000  Uiso   1.00
H168   H     0.12404   0.23165   0.92386   0.00000  Uiso   1.00
H169   H     0.18240   0.77243   0.86292   0.00000  Uiso   1.00
H170   H     0.12520   0.66279   0.98558   0.00000  Uiso   1.00
H171   H     0.21855   0.72695   0.63251   0.00000  Uiso   1.00
H172   H     0.21387   0.91418   0.98744   0.00000  Uiso   1.00
H173   H     0.04537   0.56230   0.09497   0.00000  Uiso   1.00
H174   H     0.24221   0.69762   0.35053   0.00000  Uiso   1.00
H175   H     0.23235   0.09243   0.09896   0.00000  Uiso   1.00
O176   O     0.95131   0.56270   0.08438   0.00000  Uiso   1.00
O177   O     0.20956   0.74025   0.10771   0.00000  Uiso   1.00
O178   O     0.19662   0.25822   0.08963   0.00000  Uiso   1.00
N179   N     0.97041   0.68382   0.94427   0.00000  Uiso   1.00
N180   N     0.15443   0.81032   0.24827   0.00000  Uiso   1.00
N181   N     0.14522   0.17944   0.94795   0.00000  Uiso   1.00
N182   N     0.02868   0.60891   0.03849   0.00000  Uiso   1.00
N183   N     0.21271   0.73541   0.34248   0.00000  Uiso   1.00
N184   N     0.20350   0.10452   0.04217   0.00000  Uiso   1.00
C185   C     0.41798   0.61497   0.69532   0.00000  Uiso   1.00
C186   C     0.43403   0.53654   0.78385   0.00000  Uiso   1.00
C187   C     0.48070   0.51322   0.81126   0.00000  Uiso   1.00
C188   C     0.48800   0.43919   0.89459   0.00000  Uiso   1.00
C189   C     0.51871   0.32481   0.02379   0.00000  Uiso   1.00
C190   C     0.38629   0.57387   0.58697   0.00000  Uiso   1.00
C191   C     0.39280   0.58195   0.44886   0.00000  Uiso   1.00
C192   C     0.35990   0.53935   0.36645   0.00000  Uiso   1.00
C193   C     0.31647   0.48298   0.19000   0.00000  Uiso   1.00
C194   C     0.38563   0.67281   0.78314   0.00000  Uiso   1.00
C195   C     0.39159   0.76410   0.80993   0.00000  Uiso   1.00
C196   C     0.35813   0.80482   0.89265   0.00000  Uiso   1.00
C197   C     0.31368   0.90208   0.02078   0.00000  Uiso   1.00
C198   C     0.34796   0.52495   0.79456   0.00000  Uiso   1.00
C199   C     0.39600   0.48764   0.83775   0.00000  Uiso   1.00
C200   C     0.40323   0.41362   0.92106   0.00000  Uiso   1.00
C201   C     0.44990   0.39021   0.94859   0.00000  Uiso   1.00
C202   C     0.34825   0.52497   0.64087   0.00000  Uiso   1.00
C203   C     0.31533   0.48235   0.55865   0.00000  Uiso   1.00
C204   C     0.32180   0.49037   0.42045   0.00000  Uiso   1.00
C205   C     0.34760   0.62392   0.83704   0.00000  Uiso   1.00
C206   C     0.31412   0.66450   0.91973   0.00000  Uiso   1.00
C207   C     0.32003   0.75583   0.94665   0.00000  Uiso   1.00
H208   H     0.44759   0.65304   0.65335   0.00000  Uiso   1.00
H209   H     0.51012   0.55107   0.76952   0.00000  Uiso   1.00
H210   H     0.42224   0.61980   0.40717   0.00000  Uiso   1.00
H211   H     0.42103   0.80192   0.76820   0.00000  Uiso   1.00
H212   H     0.56268   0.41645   0.92205   0.00000  Uiso   1.00
H213   H     0.37736   0.56139   0.15802   0.00000  Uiso   1.00
H214   H     0.37481   0.94542   0.91930   0.00000  Uiso   1.00
H215   H     0.31834   0.48688   0.83652   0.00000  Uiso   1.00
H216   H     0.37379   0.37580   0.96275   0.00000  Uiso   1.00
H217   H     0.28590   0.44453   0.60040   0.00000  Uiso   1.00
H218   H     0.28469   0.62664   0.96142   0.00000  Uiso   1.00
H219   H     0.45203   0.27418   0.07888   0.00000  Uiso   1.00
H220   H     0.26670   0.41913   0.31484   0.00000  Uiso   1.00
H221   H     0.26415   0.80316   0.07613   0.00000  Uiso   1.00
O222   O     0.54616   0.27522   0.08016   0.00000  Uiso   1.00
O223   O     0.30302   0.46539   0.07778   0.00000  Uiso   1.00
O224   O     0.29968   0.96923   0.07658   0.00000  Uiso   1.00
N225   N     0.52903   0.39822   0.94166   0.00000  Uiso   1.00
N226   N     0.35577   0.53372   0.22733   0.00000  Uiso   1.00
N227   N     0.35338   0.89276   0.93904   0.00000  Uiso   1.00
N228   N     0.46949   0.32167   0.02605   0.00000  Uiso   1.00
N229   N     0.29623   0.45717   0.31172   0.00000  Uiso   1.00
N230   N     0.29384   0.81622   0.02343   0.00000  Uiso   1.00
C231   C     0.58488   0.60221   0.29472   0.00000  Uiso   1.00
C232   C     0.56757   0.67948   0.20582   0.00000  Uiso   1.00
C233   C     0.52056   0.70272   0.18356   0.00000  Uiso   1.00
C234   C     0.51207   0.77560   0.09889   0.00000  Uiso   1.00
C235   C     0.47954   0.88833   0.97005   0.00000  Uiso   1.00
C236   C     0.61829   0.64463   0.39764   0.00000  Uiso   1.00
C237   C     0.61391   0.63856   0.53667   0.00000  Uiso   1.00
C238   C     0.64813   0.68210   0.61348   0.00000  Uiso   1.00
C239   C     0.69435   0.74066   0.78246   0.00000  Uiso   1.00
C240   C     0.61574   0.54291   0.20480   0.00000  Uiso   1.00
C241   C     0.60924   0.45130   0.18170   0.00000  Uiso   1.00
C242   C     0.64132   0.40918   0.09617   0.00000  Uiso   1.00
C243   C     0.68359   0.30981   0.96572   0.00000  Uiso   1.00
C244   C     0.65341   0.69031   0.18393   0.00000  Uiso   1.00
C245   C     0.60480   0.72733   0.14564   0.00000  Uiso   1.00
C246   C     0.59638   0.80019   0.06098   0.00000  Uiso   1.00
C247   C     0.54937   0.82354   0.03860   0.00000  Uiso   1.00
C248   C     0.65551   0.69248   0.33747   0.00000  Uiso   1.00
C249   C     0.68974   0.73603   0.41409   0.00000  Uiso   1.00
C250   C     0.68542   0.73003   0.55320   0.00000  Uiso   1.00
C251   C     0.65297   0.59076   0.14461   0.00000  Uiso   1.00
C252   C     0.68507   0.54877   0.05911   0.00000  Uiso   1.00
C253   C     0.67861   0.45712   0.03588   0.00000  Uiso   1.00
H254   H     0.55590   0.56496   0.34158   0.00000  Uiso   1.00
H255   H     0.49176   0.66568   0.23016   0.00000  Uiso   1.00
H256   H     0.58510   0.60152   0.58321   0.00000  Uiso   1.00
H257   H     0.58043   0.41429   0.22829   0.00000  Uiso   1.00
H258   H     0.43707   0.79847   0.08012   0.00000  Uiso   1.00
H259   H     0.63390   0.66316   0.82456   0.00000  Uiso   1.00
H260   H     0.62404   0.26835   0.07614   0.00000  Uiso   1.00
H261   H     0.68240   0.72757   0.13708   0.00000  Uiso   1.00
H262   H     0.62520   0.83721   0.01442   0.00000  Uiso   1.00
H263   H     0.71855   0.77305   0.36749   0.00000  Uiso   1.00
H264   H     0.71387   0.58582   0.01256   0.00000  Uiso   1.00
H265   H     0.54537   0.93770   0.90503   0.00000  Uiso   1.00
H266   H     0.74221   0.80238   0.64947   0.00000  Uiso   1.00
H267   H     0.73235   0.40757   0.90104   0.00000  Uiso   1.00
O268   O     0.45131   0.93730   0.91562   0.00000  Uiso   1.00
O269   O     0.70956   0.75975   0.89229   0.00000  Uiso   1.00
O270   O     0.69662   0.24178   0.91037   0.00000  Uiso   1.00
N271   N     0.47041   0.81618   0.05573   0.00000  Uiso   1.00
N272   N     0.65443   0.68968   0.75173   0.00000  Uiso   1.00
N273   N     0.64522   0.32056   0.05205   0.00000  Uiso   1.00
N274   N     0.52868   0.89109   0.96151   0.00000  Uiso   1.00
N275   N     0.71271   0.76459   0.65752   0.00000  Uiso   1.00
N276   N     0.70350   0.39548   0.95783   0.00000  Uiso   1.00
C277   C     0.08202   0.38503   0.19532   0.00000  Uiso   1.00
C278   C     0.06597   0.46346   0.28385   0.00000  Uiso   1.00
C279   C     0.01930   0.48678   0.31126   0.00000  Uiso   1.00
C280   C     0.01200   0.56081   0.39459   0.00000  Uiso   1.00
C281   C     0.98129   0.67519   0.52379   0.00000  Uiso   1.00
C282   C     0.11371   0.42613   0.08697   0.00000  Uiso   1.00
C283   C     0.10720   0.41805   0.94886   0.00000  Uiso   1.00
C284   C     0.14010   0.46065   0.86645   0.00000  Uiso   1.00
C285   C     0.18353   0.51702   0.69000   0.00000  Uiso   1.00
C286   C     0.11437   0.32719   0.28314   0.00000  Uiso   1.00
C287   C     0.10841   0.23590   0.30993   0.00000  Uiso   1.00
C288   C     0.14187   0.19518   0.39265   0.00000  Uiso   1.00
C289   C     0.18632   0.09792   0.52078   0.00000  Uiso   1.00
C290   C     0.15204   0.47505   0.29456   0.00000  Uiso   1.00
C291   C     0.10400   0.51236   0.33775   0.00000  Uiso   1.00
C292   C     0.09677   0.58638   0.42106   0.00000  Uiso   1.00
C293   C     0.05010   0.60979   0.44859   0.00000  Uiso   1.00
C294   C     0.15175   0.47503   0.14087   0.00000  Uiso   1.00
C295   C     0.18467   0.51765   0.05865   0.00000  Uiso   1.00
C296   C     0.17820   0.50963   0.92045   0.00000  Uiso   1.00
C297   C     0.15240   0.37608   0.33704   0.00000  Uiso   1.00
C298   C     0.18588   0.33550   0.41973   0.00000  Uiso   1.00
C299   C     0.17997   0.24417   0.44665   0.00000  Uiso   1.00
H300   H     0.05241   0.34696   0.15335   0.00000  Uiso   1.00
H301   H     0.98988   0.44893   0.26952   0.00000  Uiso   1.00
H302   H     0.07776   0.38020   0.90717   0.00000  Uiso   1.00
H303   H     0.07897   0.19808   0.26820   0.00000  Uiso   1.00
H304   H     0.93732   0.58355   0.42205   0.00000  Uiso   1.00
H305   H     0.12264   0.43861   0.65802   0.00000  Uiso   1.00
H306   H     0.12519   0.05458   0.41930   0.00000  Uiso   1.00
H307   H     0.18166   0.51312   0.33652   0.00000  Uiso   1.00
H308   H     0.12621   0.62420   0.46275   0.00000  Uiso   1.00
H309   H     0.21410   0.55547   0.10040   0.00000  Uiso   1.00
H310   H     0.21531   0.37336   0.46142   0.00000  Uiso   1.00
H311   H     0.04797   0.72582   0.57888   0.00000  Uiso   1.00
H312   H     0.23330   0.58087   0.81484   0.00000  Uiso   1.00
H313   H     0.23585   0.19684   0.57613   0.00000  Uiso   1.00
O314   O     0.95384   0.72478   0.58016   0.00000  Uiso   1.00
O315   O     0.19698   0.53461   0.57778   0.00000  Uiso   1.00
O316   O     0.20032   0.03077   0.57658   0.00000  Uiso   1.00
N317   N     0.97097   0.60178   0.44166   0.00000  Uiso   1.00
N318   N     0.14423   0.46628   0.72733   0.00000  Uiso   1.00
N319   N     0.14662   0.10724   0.43904   0.00000  Uiso   1.00
N320   N     0.03051   0.67833   0.52605   0.00000  Uiso   1.00
N321   N     0.20377   0.54283   0.81172   0.00000  Uiso   1.00
N322   N     0.20616   0.18378   0.52343   0.00000  Uiso   1.00
C323   C     0.91512   0.39779   0.79472   0.00000  Uiso   1.00
C324   C     0.93243   0.32052   0.70582   0.00000  Uiso   1.00
C325   C     0.97944   0.29728   0.68356   0.00000  Uiso   1.00
C326   C     0.98793   0.22440   0.59889   0.00000  Uiso   1.00
C327   C     0.02046   0.11167   0.47005   0.00000  Uiso   1.00
C328   C     0.88171   0.35537   0.89764   0.00000  Uiso   1.00
C329   C     0.88609   0.36144   0.03667   0.00000  Uiso   1.00
C330   C     0.85187   0.31790   0.11348   0.00000  Uiso   1.00
C331   C     0.80565   0.25934   0.28246   0.00000  Uiso   1.00
C332   C     0.88426   0.45709   0.70480   0.00000  Uiso   1.00
C333   C     0.89076   0.54870   0.68170   0.00000  Uiso   1.00
C334   C     0.85868   0.59082   0.59617   0.00000  Uiso   1.00
C335   C     0.81641   0.69019   0.46572   0.00000  Uiso   1.00
C336   C     0.84659   0.30969   0.68393   0.00000  Uiso   1.00
C337   C     0.89520   0.27267   0.64564   0.00000  Uiso   1.00
C338   C     0.90362   0.19981   0.56098   0.00000  Uiso   1.00
C339   C     0.95063   0.17646   0.53860   0.00000  Uiso   1.00
C340   C     0.84449   0.30752   0.83747   0.00000  Uiso   1.00
C341   C     0.81026   0.26397   0.91409   0.00000  Uiso   1.00
C342   C     0.81458   0.26997   0.05320   0.00000  Uiso   1.00
C343   C     0.84703   0.40924   0.64461   0.00000  Uiso   1.00
C344   C     0.81493   0.45123   0.55911   0.00000  Uiso   1.00
C345   C     0.82139   0.54288   0.53588   0.00000  Uiso   1.00
H346   H     0.94410   0.43504   0.84158   0.00000  Uiso   1.00
H347   H     0.00824   0.33432   0.73016   0.00000  Uiso   1.00
H348   H     0.91490   0.39848   0.08321   0.00000  Uiso   1.00
H349   H     0.91957   0.58571   0.72829   0.00000  Uiso   1.00
H350   H     0.06293   0.20153   0.58012   0.00000  Uiso   1.00
H351   H     0.86610   0.33684   0.32456   0.00000  Uiso   1.00
H352   H     0.87596   0.73165   0.57614   0.00000  Uiso   1.00
H353   H     0.81760   0.27243   0.63708   0.00000  Uiso   1.00
H354   H     0.87480   0.16279   0.51442   0.00000  Uiso   1.00
H355   H     0.78145   0.22695   0.86749   0.00000  Uiso   1.00
H356   H     0.78613   0.41418   0.51256   0.00000  Uiso   1.00
H357   H     0.95463   0.06230   0.40503   0.00000  Uiso   1.00
H358   H     0.75779   0.19762   0.14947   0.00000  Uiso   1.00
H359   H     0.76765   0.59243   0.40104   0.00000  Uiso   1.00
O360   O     0.04869   0.06270   0.41562   0.00000  Uiso   1.00
O361   O     0.79044   0.24025   0.39229   0.00000  Uiso   1.00
O362   O     0.80338   0.75822   0.41037   0.00000  Uiso   1.00
N363   N     0.02959   0.18382   0.55573   0.00000  Uiso   1.00
N364   N     0.84557   0.31032   0.25173   0.00000  Uiso   1.00
N365   N     0.85478   0.67944   0.55205   0.00000  Uiso   1.00
N366   N     0.97132   0.10891   0.46151   0.00000  Uiso   1.00
N367   N     0.78729   0.23541   0.15752   0.00000  Uiso   1.00
N368   N     0.79650   0.60452   0.45783   0.00000  Uiso   1.00
