data_job_01686
_audit_creation_date              2018-12-19
_audit_creation_method            'Materials Studio'
_symmetry_space_group_name_H-M    'P1'
_symmetry_Int_Tables_number       1
_symmetry_cell_setting            triclinic
loop_
_symmetry_equiv_pos_as_xyz
  x,y,z
_cell_length_a                    11.4444
_cell_length_b                    21.8942
_cell_length_c                    26.4804
_cell_angle_alpha                 90.0000
_cell_angle_beta                  120.4027
_cell_angle_gamma                 90.0000
loop_
_atom_site_label
_atom_site_type_symbol
_atom_site_fract_x
_atom_site_fract_y
_atom_site_fract_z
_atom_site_U_iso_or_equiv
_atom_site_adp_type
_atom_site_occupancy
C1     C     0.51443   0.90131   0.33804   0.00000  Uiso   1.00
C2     C     0.49858   0.97046   0.33104   0.00000  Uiso   1.00
C3     C     0.39920   0.00109   0.28223   0.00000  Uiso   1.00
C4     C     0.40199   0.06446   0.28437   0.00000  Uiso   1.00
C5     C     0.36240   0.16703   0.26599   0.00000  Uiso   1.00
C6     C     0.65806   0.88730   0.35169   0.00000  Uiso   1.00
C7     C     0.69277   0.84800   0.32025   0.00000  Uiso   1.00
C8     C     0.82982   0.84136   0.33978   0.00000  Uiso   1.00
C9     C     0.03784   0.81478   0.35349   0.00000  Uiso   1.00
C10    C     0.51118   0.88598   0.39349   0.00000  Uiso   1.00
C11    C     0.42241   0.84555   0.39720   0.00000  Uiso   1.00
C12    C     0.43583   0.83779   0.45194   0.00000  Uiso   1.00
C13    C     0.41579   0.80917   0.53055   0.00000  Uiso   1.00
C14    C     0.69612   0.95939   0.42865   0.00000  Uiso   1.00
C15    C     0.59727   0.00201   0.38025   0.00000  Uiso   1.00
C16    C     0.60021   0.06535   0.38247   0.00000  Uiso   1.00
C17    C     0.50085   0.09607   0.33367   0.00000  Uiso   1.00
C18    C     0.75675   0.91884   0.40090   0.00000  Uiso   1.00
C19    C     0.89379   0.91226   0.42048   0.00000  Uiso   1.00
C20    C     0.92869   0.87296   0.38908   0.00000  Uiso   1.00
C21    C     0.60987   0.91753   0.44270   0.00000  Uiso   1.00
C22    C     0.62343   0.90982   0.49744   0.00000  Uiso   1.00
C23    C     0.53470   0.86940   0.50124   0.00000  Uiso   1.00
H24    H     0.43761   0.87675   0.29973   0.00000  Uiso   1.00
H25    H     0.32285   0.97666   0.24415   0.00000  Uiso   1.00
H26    H     0.61637   0.82358   0.28217   0.00000  Uiso   1.00
H27    H     0.34606   0.82115   0.35911   0.00000  Uiso   1.00
H28    H     0.23916   0.10134   0.20422   0.00000  Uiso   1.00
H29    H     0.85808   0.77856   0.28440   0.00000  Uiso   1.00
H30    H     0.28807   0.77342   0.44665   0.00000  Uiso   1.00
H31    H     0.77296   0.98396   0.46696   0.00000  Uiso   1.00
H32    H     0.67660   0.08975   0.42055   0.00000  Uiso   1.00
H33    H     0.97013   0.93668   0.45857   0.00000  Uiso   1.00
H34    H     0.69981   0.93424   0.53552   0.00000  Uiso   1.00
H35    H     0.52629   0.19313   0.34740   0.00000  Uiso   1.00
H36    H     0.14521   0.87035   0.42757   0.00000  Uiso   1.00
H37    H     0.57520   0.86522   0.58983   0.00000  Uiso   1.00
O38    O     0.31331   0.21490   0.24226   0.00000  Uiso   1.00
O39    O     0.12531   0.79141   0.34745   0.00000  Uiso   1.00
O40    O     0.37747   0.78468   0.56032   0.00000  Uiso   1.00
N41    N     0.31995   0.10842   0.24429   0.00000  Uiso   1.00
N42    N     0.89860   0.80665   0.31924   0.00000  Uiso   1.00
N43    N     0.36571   0.80183   0.47094   0.00000  Uiso   1.00
N44    N     0.47444   0.15782   0.32133   0.00000  Uiso   1.00
N45    N     0.05310   0.85605   0.39628   0.00000  Uiso   1.00
N46    N     0.52021   0.85123   0.54798   0.00000  Uiso   1.00
C47    C     0.01443   0.40131   0.33804   0.00000  Uiso   1.00
C48    C     0.99858   0.47046   0.33104   0.00000  Uiso   1.00
C49    C     0.89920   0.50109   0.28223   0.00000  Uiso   1.00
C50    C     0.90199   0.56446   0.28437   0.00000  Uiso   1.00
C51    C     0.86240   0.66703   0.26599   0.00000  Uiso   1.00
C52    C     0.15806   0.38730   0.35169   0.00000  Uiso   1.00
C53    C     0.19277   0.34800   0.32025   0.00000  Uiso   1.00
C54    C     0.32982   0.34136   0.33978   0.00000  Uiso   1.00
C55    C     0.53784   0.31478   0.35349   0.00000  Uiso   1.00
C56    C     0.01118   0.38598   0.39349   0.00000  Uiso   1.00
C57    C     0.92241   0.34555   0.39720   0.00000  Uiso   1.00
C58    C     0.93583   0.33779   0.45194   0.00000  Uiso   1.00
C59    C     0.91579   0.30917   0.53055   0.00000  Uiso   1.00
C60    C     0.19612   0.45939   0.42865   0.00000  Uiso   1.00
C61    C     0.09727   0.50201   0.38025   0.00000  Uiso   1.00
C62    C     0.10021   0.56535   0.38247   0.00000  Uiso   1.00
C63    C     0.00085   0.59607   0.33367   0.00000  Uiso   1.00
C64    C     0.25675   0.41884   0.40090   0.00000  Uiso   1.00
C65    C     0.39379   0.41226   0.42048   0.00000  Uiso   1.00
C66    C     0.42869   0.37296   0.38908   0.00000  Uiso   1.00
C67    C     0.10987   0.41753   0.44270   0.00000  Uiso   1.00
C68    C     0.12343   0.40982   0.49744   0.00000  Uiso   1.00
C69    C     0.03470   0.36940   0.50124   0.00000  Uiso   1.00
H70    H     0.93761   0.37675   0.29973   0.00000  Uiso   1.00
H71    H     0.82285   0.47666   0.24415   0.00000  Uiso   1.00
H72    H     0.11637   0.32358   0.28217   0.00000  Uiso   1.00
H73    H     0.84606   0.32115   0.35911   0.00000  Uiso   1.00
H74    H     0.73916   0.60134   0.20422   0.00000  Uiso   1.00
H75    H     0.35808   0.27856   0.28440   0.00000  Uiso   1.00
H76    H     0.78807   0.27342   0.44665   0.00000  Uiso   1.00
H77    H     0.27296   0.48396   0.46696   0.00000  Uiso   1.00
H78    H     0.17660   0.58975   0.42055   0.00000  Uiso   1.00
H79    H     0.47013   0.43668   0.45857   0.00000  Uiso   1.00
H80    H     0.19981   0.43424   0.53552   0.00000  Uiso   1.00
H81    H     0.02629   0.69313   0.34740   0.00000  Uiso   1.00
H82    H     0.64521   0.37035   0.42757   0.00000  Uiso   1.00
H83    H     0.07520   0.36522   0.58983   0.00000  Uiso   1.00
O84    O     0.81331   0.71490   0.24226   0.00000  Uiso   1.00
O85    O     0.62531   0.29141   0.34745   0.00000  Uiso   1.00
O86    O     0.87747   0.28468   0.56032   0.00000  Uiso   1.00
N87    N     0.81995   0.60842   0.24429   0.00000  Uiso   1.00
N88    N     0.39860   0.30665   0.31924   0.00000  Uiso   1.00
N89    N     0.86571   0.30183   0.47094   0.00000  Uiso   1.00
N90    N     0.97444   0.65782   0.32133   0.00000  Uiso   1.00
N91    N     0.55310   0.35605   0.39628   0.00000  Uiso   1.00
N92    N     0.02021   0.35123   0.54798   0.00000  Uiso   1.00
C93    C     0.48557   0.90131   0.16196   0.00000  Uiso   1.00
C94    C     0.50142   0.97046   0.16896   0.00000  Uiso   1.00
C95    C     0.60080   0.00109   0.21777   0.00000  Uiso   1.00
C96    C     0.59801   0.06446   0.21563   0.00000  Uiso   1.00
C97    C     0.63760   0.16703   0.23401   0.00000  Uiso   1.00
C98    C     0.34194   0.88730   0.14831   0.00000  Uiso   1.00
C99    C     0.30723   0.84800   0.17975   0.00000  Uiso   1.00
C100   C     0.17018   0.84136   0.16022   0.00000  Uiso   1.00
C101   C     0.96216   0.81478   0.14651   0.00000  Uiso   1.00
C102   C     0.48882   0.88598   0.10651   0.00000  Uiso   1.00
C103   C     0.57759   0.84555   0.10280   0.00000  Uiso   1.00
C104   C     0.56417   0.83779   0.04806   0.00000  Uiso   1.00
C105   C     0.58421   0.80917   0.96945   0.00000  Uiso   1.00
C106   C     0.30388   0.95939   0.07135   0.00000  Uiso   1.00
C107   C     0.40273   0.00201   0.11975   0.00000  Uiso   1.00
C108   C     0.39979   0.06535   0.11753   0.00000  Uiso   1.00
C109   C     0.49915   0.09607   0.16633   0.00000  Uiso   1.00
C110   C     0.24325   0.91884   0.09910   0.00000  Uiso   1.00
C111   C     0.10621   0.91226   0.07952   0.00000  Uiso   1.00
C112   C     0.07131   0.87296   0.11092   0.00000  Uiso   1.00
C113   C     0.39013   0.91753   0.05730   0.00000  Uiso   1.00
C114   C     0.37657   0.90982   0.00256   0.00000  Uiso   1.00
C115   C     0.46530   0.86940   0.99876   0.00000  Uiso   1.00
H116   H     0.56239   0.87675   0.20027   0.00000  Uiso   1.00
H117   H     0.67715   0.97666   0.25585   0.00000  Uiso   1.00
H118   H     0.38363   0.82358   0.21783   0.00000  Uiso   1.00
H119   H     0.65394   0.82115   0.14089   0.00000  Uiso   1.00
H120   H     0.76084   0.10134   0.29578   0.00000  Uiso   1.00
H121   H     0.14192   0.77856   0.21560   0.00000  Uiso   1.00
H122   H     0.71193   0.77342   0.05335   0.00000  Uiso   1.00
H123   H     0.22704   0.98396   0.03304   0.00000  Uiso   1.00
H124   H     0.32340   0.08975   0.07945   0.00000  Uiso   1.00
H125   H     0.02987   0.93668   0.04143   0.00000  Uiso   1.00
H126   H     0.30019   0.93424   0.96448   0.00000  Uiso   1.00
H127   H     0.47371   0.19313   0.15260   0.00000  Uiso   1.00
H128   H     0.85479   0.87035   0.07243   0.00000  Uiso   1.00
H129   H     0.42480   0.86522   0.91017   0.00000  Uiso   1.00
O130   O     0.68669   0.21490   0.25774   0.00000  Uiso   1.00
O131   O     0.87469   0.79141   0.15255   0.00000  Uiso   1.00
O132   O     0.62253   0.78468   0.93968   0.00000  Uiso   1.00
N133   N     0.68005   0.10842   0.25571   0.00000  Uiso   1.00
N134   N     0.10140   0.80665   0.18076   0.00000  Uiso   1.00
N135   N     0.63429   0.80183   0.02906   0.00000  Uiso   1.00
N136   N     0.52556   0.15782   0.17867   0.00000  Uiso   1.00
N137   N     0.94690   0.85605   0.10372   0.00000  Uiso   1.00
N138   N     0.47979   0.85123   0.95202   0.00000  Uiso   1.00
C139   C     0.98557   0.40131   0.16196   0.00000  Uiso   1.00
C140   C     0.00142   0.47046   0.16896   0.00000  Uiso   1.00
C141   C     0.10080   0.50109   0.21777   0.00000  Uiso   1.00
C142   C     0.09801   0.56446   0.21563   0.00000  Uiso   1.00
C143   C     0.13760   0.66703   0.23401   0.00000  Uiso   1.00
C144   C     0.84194   0.38730   0.14831   0.00000  Uiso   1.00
C145   C     0.80723   0.34800   0.17975   0.00000  Uiso   1.00
C146   C     0.67018   0.34136   0.16022   0.00000  Uiso   1.00
C147   C     0.46216   0.31478   0.14651   0.00000  Uiso   1.00
C148   C     0.98882   0.38598   0.10651   0.00000  Uiso   1.00
C149   C     0.07759   0.34555   0.10280   0.00000  Uiso   1.00
C150   C     0.06417   0.33779   0.04806   0.00000  Uiso   1.00
C151   C     0.08421   0.30917   0.96945   0.00000  Uiso   1.00
C152   C     0.80388   0.45939   0.07135   0.00000  Uiso   1.00
C153   C     0.90273   0.50201   0.11975   0.00000  Uiso   1.00
C154   C     0.89979   0.56535   0.11753   0.00000  Uiso   1.00
C155   C     0.99915   0.59607   0.16633   0.00000  Uiso   1.00
C156   C     0.74325   0.41884   0.09910   0.00000  Uiso   1.00
C157   C     0.60621   0.41226   0.07952   0.00000  Uiso   1.00
C158   C     0.57131   0.37296   0.11092   0.00000  Uiso   1.00
C159   C     0.89013   0.41753   0.05730   0.00000  Uiso   1.00
C160   C     0.87657   0.40982   0.00256   0.00000  Uiso   1.00
C161   C     0.96530   0.36940   0.99876   0.00000  Uiso   1.00
H162   H     0.06239   0.37675   0.20027   0.00000  Uiso   1.00
H163   H     0.17715   0.47666   0.25585   0.00000  Uiso   1.00
H164   H     0.88363   0.32358   0.21783   0.00000  Uiso   1.00
H165   H     0.15394   0.32115   0.14089   0.00000  Uiso   1.00
H166   H     0.26084   0.60134   0.29578   0.00000  Uiso   1.00
H167   H     0.64192   0.27856   0.21560   0.00000  Uiso   1.00
H168   H     0.21193   0.27342   0.05335   0.00000  Uiso   1.00
H169   H     0.72704   0.48396   0.03304   0.00000  Uiso   1.00
H170   H     0.82340   0.58975   0.07945   0.00000  Uiso   1.00
H171   H     0.52987   0.43668   0.04143   0.00000  Uiso   1.00
H172   H     0.80019   0.43424   0.96448   0.00000  Uiso   1.00
H173   H     0.97371   0.69313   0.15260   0.00000  Uiso   1.00
H174   H     0.35479   0.37035   0.07243   0.00000  Uiso   1.00
H175   H     0.92480   0.36522   0.91017   0.00000  Uiso   1.00
O176   O     0.18669   0.71490   0.25774   0.00000  Uiso   1.00
O177   O     0.37469   0.29141   0.15255   0.00000  Uiso   1.00
O178   O     0.12253   0.28468   0.93968   0.00000  Uiso   1.00
N179   N     0.18005   0.60842   0.25571   0.00000  Uiso   1.00
N180   N     0.60140   0.30665   0.18076   0.00000  Uiso   1.00
N181   N     0.13429   0.30183   0.02906   0.00000  Uiso   1.00
N182   N     0.02556   0.65782   0.17867   0.00000  Uiso   1.00
N183   N     0.44690   0.35605   0.10372   0.00000  Uiso   1.00
N184   N     0.97979   0.35123   0.95202   0.00000  Uiso   1.00
C185   C     0.48557   0.09869   0.66196   0.00000  Uiso   1.00
C186   C     0.50142   0.02954   0.66896   0.00000  Uiso   1.00
C187   C     0.60080   0.99891   0.71777   0.00000  Uiso   1.00
C188   C     0.59801   0.93554   0.71563   0.00000  Uiso   1.00
C189   C     0.63760   0.83297   0.73401   0.00000  Uiso   1.00
C190   C     0.34194   0.11270   0.64831   0.00000  Uiso   1.00
C191   C     0.30723   0.15200   0.67975   0.00000  Uiso   1.00
C192   C     0.17018   0.15864   0.66022   0.00000  Uiso   1.00
C193   C     0.96216   0.18522   0.64651   0.00000  Uiso   1.00
C194   C     0.48882   0.11402   0.60651   0.00000  Uiso   1.00
C195   C     0.57759   0.15445   0.60280   0.00000  Uiso   1.00
C196   C     0.56417   0.16221   0.54806   0.00000  Uiso   1.00
C197   C     0.58421   0.19083   0.46945   0.00000  Uiso   1.00
C198   C     0.30388   0.04061   0.57135   0.00000  Uiso   1.00
C199   C     0.40273   0.99799   0.61975   0.00000  Uiso   1.00
C200   C     0.39979   0.93465   0.61753   0.00000  Uiso   1.00
C201   C     0.49915   0.90393   0.66633   0.00000  Uiso   1.00
C202   C     0.24325   0.08116   0.59910   0.00000  Uiso   1.00
C203   C     0.10621   0.08774   0.57952   0.00000  Uiso   1.00
C204   C     0.07131   0.12704   0.61092   0.00000  Uiso   1.00
C205   C     0.39013   0.08247   0.55730   0.00000  Uiso   1.00
C206   C     0.37657   0.09018   0.50256   0.00000  Uiso   1.00
C207   C     0.46530   0.13060   0.49876   0.00000  Uiso   1.00
H208   H     0.56239   0.12325   0.70027   0.00000  Uiso   1.00
H209   H     0.67715   0.02334   0.75585   0.00000  Uiso   1.00
H210   H     0.38363   0.17642   0.71783   0.00000  Uiso   1.00
H211   H     0.65394   0.17885   0.64089   0.00000  Uiso   1.00
H212   H     0.76084   0.89866   0.79578   0.00000  Uiso   1.00
H213   H     0.14192   0.22144   0.71560   0.00000  Uiso   1.00
H214   H     0.71193   0.22658   0.55335   0.00000  Uiso   1.00
H215   H     0.22704   0.01604   0.53304   0.00000  Uiso   1.00
H216   H     0.32340   0.91025   0.57945   0.00000  Uiso   1.00
H217   H     0.02987   0.06332   0.54143   0.00000  Uiso   1.00
H218   H     0.30019   0.06576   0.46448   0.00000  Uiso   1.00
H219   H     0.47371   0.80687   0.65260   0.00000  Uiso   1.00
H220   H     0.85479   0.12965   0.57243   0.00000  Uiso   1.00
H221   H     0.42480   0.13478   0.41017   0.00000  Uiso   1.00
O222   O     0.68669   0.78510   0.75774   0.00000  Uiso   1.00
O223   O     0.87469   0.20859   0.65255   0.00000  Uiso   1.00
O224   O     0.62253   0.21532   0.43968   0.00000  Uiso   1.00
N225   N     0.68005   0.89158   0.75571   0.00000  Uiso   1.00
N226   N     0.10140   0.19335   0.68076   0.00000  Uiso   1.00
N227   N     0.63429   0.19817   0.52906   0.00000  Uiso   1.00
N228   N     0.52556   0.84218   0.67867   0.00000  Uiso   1.00
N229   N     0.94690   0.14395   0.60372   0.00000  Uiso   1.00
N230   N     0.47979   0.14877   0.45202   0.00000  Uiso   1.00
C231   C     0.98557   0.59869   0.66196   0.00000  Uiso   1.00
C232   C     0.00142   0.52954   0.66896   0.00000  Uiso   1.00
C233   C     0.10080   0.49891   0.71777   0.00000  Uiso   1.00
C234   C     0.09801   0.43554   0.71563   0.00000  Uiso   1.00
C235   C     0.13760   0.33297   0.73401   0.00000  Uiso   1.00
C236   C     0.84194   0.61270   0.64831   0.00000  Uiso   1.00
C237   C     0.80723   0.65200   0.67975   0.00000  Uiso   1.00
C238   C     0.67018   0.65864   0.66022   0.00000  Uiso   1.00
C239   C     0.46216   0.68522   0.64651   0.00000  Uiso   1.00
C240   C     0.98882   0.61402   0.60651   0.00000  Uiso   1.00
C241   C     0.07759   0.65445   0.60280   0.00000  Uiso   1.00
C242   C     0.06417   0.66221   0.54806   0.00000  Uiso   1.00
C243   C     0.08421   0.69083   0.46945   0.00000  Uiso   1.00
C244   C     0.80388   0.54061   0.57135   0.00000  Uiso   1.00
C245   C     0.90273   0.49799   0.61975   0.00000  Uiso   1.00
C246   C     0.89979   0.43465   0.61753   0.00000  Uiso   1.00
C247   C     0.99915   0.40393   0.66633   0.00000  Uiso   1.00
C248   C     0.74325   0.58116   0.59910   0.00000  Uiso   1.00
C249   C     0.60621   0.58774   0.57952   0.00000  Uiso   1.00
C250   C     0.57131   0.62704   0.61092   0.00000  Uiso   1.00
C251   C     0.89013   0.58247   0.55730   0.00000  Uiso   1.00
C252   C     0.87657   0.59018   0.50256   0.00000  Uiso   1.00
C253   C     0.96530   0.63060   0.49876   0.00000  Uiso   1.00
H254   H     0.06239   0.62325   0.70027   0.00000  Uiso   1.00
H255   H     0.17715   0.52334   0.75585   0.00000  Uiso   1.00
H256   H     0.88363   0.67642   0.71783   0.00000  Uiso   1.00
H257   H     0.15394   0.67885   0.64089   0.00000  Uiso   1.00
H258   H     0.26084   0.39866   0.79578   0.00000  Uiso   1.00
H259   H     0.64192   0.72144   0.71560   0.00000  Uiso   1.00
H260   H     0.21193   0.72658   0.55335   0.00000  Uiso   1.00
H261   H     0.72704   0.51604   0.53304   0.00000  Uiso   1.00
H262   H     0.82340   0.41025   0.57945   0.00000  Uiso   1.00
H263   H     0.52987   0.56332   0.54143   0.00000  Uiso   1.00
H264   H     0.80019   0.56576   0.46448   0.00000  Uiso   1.00
H265   H     0.97371   0.30687   0.65260   0.00000  Uiso   1.00
H266   H     0.35479   0.62965   0.57243   0.00000  Uiso   1.00
H267   H     0.92480   0.63478   0.41017   0.00000  Uiso   1.00
O268   O     0.18669   0.28510   0.75774   0.00000  Uiso   1.00
O269   O     0.37469   0.70859   0.65255   0.00000  Uiso   1.00
O270   O     0.12253   0.71532   0.43968   0.00000  Uiso   1.00
N271   N     0.18005   0.39158   0.75571   0.00000  Uiso   1.00
N272   N     0.60140   0.69335   0.68076   0.00000  Uiso   1.00
N273   N     0.13429   0.69817   0.52906   0.00000  Uiso   1.00
N274   N     0.02556   0.34218   0.67867   0.00000  Uiso   1.00
N275   N     0.44690   0.64395   0.60372   0.00000  Uiso   1.00
N276   N     0.97979   0.64877   0.45202   0.00000  Uiso   1.00
C277   C     0.51443   0.09869   0.83804   0.00000  Uiso   1.00
C278   C     0.49858   0.02954   0.83104   0.00000  Uiso   1.00
C279   C     0.39920   0.99891   0.78223   0.00000  Uiso   1.00
C280   C     0.40199   0.93554   0.78437   0.00000  Uiso   1.00
C281   C     0.36240   0.83297   0.76599   0.00000  Uiso   1.00
C282   C     0.65806   0.11270   0.85169   0.00000  Uiso   1.00
C283   C     0.69277   0.15200   0.82025   0.00000  Uiso   1.00
C284   C     0.82982   0.15864   0.83978   0.00000  Uiso   1.00
C285   C     0.03784   0.18522   0.85349   0.00000  Uiso   1.00
C286   C     0.51118   0.11402   0.89349   0.00000  Uiso   1.00
C287   C     0.42241   0.15445   0.89720   0.00000  Uiso   1.00
C288   C     0.43583   0.16221   0.95194   0.00000  Uiso   1.00
C289   C     0.41579   0.19083   0.03055   0.00000  Uiso   1.00
C290   C     0.69612   0.04061   0.92865   0.00000  Uiso   1.00
C291   C     0.59727   0.99799   0.88025   0.00000  Uiso   1.00
C292   C     0.60021   0.93465   0.88247   0.00000  Uiso   1.00
C293   C     0.50085   0.90393   0.83367   0.00000  Uiso   1.00
C294   C     0.75675   0.08116   0.90090   0.00000  Uiso   1.00
C295   C     0.89379   0.08774   0.92048   0.00000  Uiso   1.00
C296   C     0.92869   0.12704   0.88908   0.00000  Uiso   1.00
C297   C     0.60987   0.08247   0.94270   0.00000  Uiso   1.00
C298   C     0.62343   0.09018   0.99744   0.00000  Uiso   1.00
C299   C     0.53470   0.13060   0.00124   0.00000  Uiso   1.00
H300   H     0.43761   0.12325   0.79973   0.00000  Uiso   1.00
H301   H     0.32285   0.02334   0.74415   0.00000  Uiso   1.00
H302   H     0.61637   0.17642   0.78217   0.00000  Uiso   1.00
H303   H     0.34606   0.17885   0.85911   0.00000  Uiso   1.00
H304   H     0.23916   0.89866   0.70422   0.00000  Uiso   1.00
H305   H     0.85808   0.22144   0.78440   0.00000  Uiso   1.00
H306   H     0.28807   0.22658   0.94665   0.00000  Uiso   1.00
H307   H     0.77296   0.01604   0.96696   0.00000  Uiso   1.00
H308   H     0.67660   0.91025   0.92055   0.00000  Uiso   1.00
H309   H     0.97013   0.06332   0.95857   0.00000  Uiso   1.00
H310   H     0.69981   0.06576   0.03552   0.00000  Uiso   1.00
H311   H     0.52629   0.80687   0.84740   0.00000  Uiso   1.00
H312   H     0.14521   0.12965   0.92757   0.00000  Uiso   1.00
H313   H     0.57520   0.13478   0.08983   0.00000  Uiso   1.00
O314   O     0.31331   0.78510   0.74226   0.00000  Uiso   1.00
O315   O     0.12531   0.20859   0.84745   0.00000  Uiso   1.00
O316   O     0.37747   0.21532   0.06032   0.00000  Uiso   1.00
N317   N     0.31995   0.89158   0.74429   0.00000  Uiso   1.00
N318   N     0.89860   0.19335   0.81924   0.00000  Uiso   1.00
N319   N     0.36571   0.19817   0.97094   0.00000  Uiso   1.00
N320   N     0.47444   0.84218   0.82133   0.00000  Uiso   1.00
N321   N     0.05310   0.14395   0.89628   0.00000  Uiso   1.00
N322   N     0.52021   0.14877   0.04798   0.00000  Uiso   1.00
C323   C     0.01443   0.59869   0.83804   0.00000  Uiso   1.00
C324   C     0.99858   0.52954   0.83104   0.00000  Uiso   1.00
C325   C     0.89920   0.49891   0.78223   0.00000  Uiso   1.00
C326   C     0.90199   0.43554   0.78437   0.00000  Uiso   1.00
C327   C     0.86240   0.33297   0.76599   0.00000  Uiso   1.00
C328   C     0.15806   0.61270   0.85169   0.00000  Uiso   1.00
C329   C     0.19277   0.65200   0.82025   0.00000  Uiso   1.00
C330   C     0.32982   0.65864   0.83978   0.00000  Uiso   1.00
C331   C     0.53784   0.68522   0.85349   0.00000  Uiso   1.00
C332   C     0.01118   0.61402   0.89349   0.00000  Uiso   1.00
C333   C     0.92241   0.65445   0.89720   0.00000  Uiso   1.00
C334   C     0.93583   0.66221   0.95194   0.00000  Uiso   1.00
C335   C     0.91579   0.69083   0.03055   0.00000  Uiso   1.00
C336   C     0.19612   0.54061   0.92865   0.00000  Uiso   1.00
C337   C     0.09727   0.49799   0.88025   0.00000  Uiso   1.00
C338   C     0.10021   0.43465   0.88247   0.00000  Uiso   1.00
C339   C     0.00085   0.40393   0.83367   0.00000  Uiso   1.00
C340   C     0.25675   0.58116   0.90090   0.00000  Uiso   1.00
C341   C     0.39379   0.58774   0.92048   0.00000  Uiso   1.00
C342   C     0.42869   0.62704   0.88908   0.00000  Uiso   1.00
C343   C     0.10987   0.58247   0.94270   0.00000  Uiso   1.00
C344   C     0.12343   0.59018   0.99744   0.00000  Uiso   1.00
C345   C     0.03470   0.63060   0.00124   0.00000  Uiso   1.00
H346   H     0.93761   0.62325   0.79973   0.00000  Uiso   1.00
H347   H     0.82285   0.52334   0.74415   0.00000  Uiso   1.00
H348   H     0.11637   0.67642   0.78217   0.00000  Uiso   1.00
H349   H     0.84606   0.67885   0.85911   0.00000  Uiso   1.00
H350   H     0.73916   0.39866   0.70422   0.00000  Uiso   1.00
H351   H     0.35808   0.72144   0.78440   0.00000  Uiso   1.00
H352   H     0.78807   0.72658   0.94665   0.00000  Uiso   1.00
H353   H     0.27296   0.51604   0.96696   0.00000  Uiso   1.00
H354   H     0.17660   0.41025   0.92055   0.00000  Uiso   1.00
H355   H     0.47013   0.56332   0.95857   0.00000  Uiso   1.00
H356   H     0.19981   0.56576   0.03552   0.00000  Uiso   1.00
H357   H     0.02629   0.30687   0.84740   0.00000  Uiso   1.00
H358   H     0.64521   0.62965   0.92757   0.00000  Uiso   1.00
H359   H     0.07520   0.63478   0.08983   0.00000  Uiso   1.00
O360   O     0.81331   0.28510   0.74226   0.00000  Uiso   1.00
O361   O     0.62531   0.70859   0.84745   0.00000  Uiso   1.00
O362   O     0.87747   0.71532   0.06032   0.00000  Uiso   1.00
N363   N     0.81995   0.39158   0.74429   0.00000  Uiso   1.00
N364   N     0.39860   0.69335   0.81924   0.00000  Uiso   1.00
N365   N     0.86571   0.69817   0.97094   0.00000  Uiso   1.00
N366   N     0.97444   0.34218   0.82133   0.00000  Uiso   1.00
N367   N     0.55310   0.64395   0.89628   0.00000  Uiso   1.00
N368   N     0.02021   0.64877   0.04798   0.00000  Uiso   1.00
