data_job_06213
_audit_creation_date              2018-12-19
_audit_creation_method            'Materials Studio'
_symmetry_space_group_name_H-M    'P1'
_symmetry_Int_Tables_number       1
_symmetry_cell_setting            triclinic
loop_
_symmetry_equiv_pos_as_xyz
  x,y,z
_cell_length_a                    15.8384
_cell_length_b                    15.7382
_cell_length_c                    15.6536
_cell_angle_alpha                 76.7404
_cell_angle_beta                  76.7511
_cell_angle_gamma                 76.7910
loop_
_atom_site_label
_atom_site_type_symbol
_atom_site_fract_x
_atom_site_fract_y
_atom_site_fract_z
_atom_site_U_iso_or_equiv
_atom_site_adp_type
_atom_site_occupancy
C1     C     0.75613   0.11545   0.28536   0.00000  Uiso   1.00
C2     C     0.70455   0.08684   0.22911   0.00000  Uiso   1.00
C3     C     0.74010   0.03232   0.16649   0.00000  Uiso   1.00
C4     C     0.68188   0.01396   0.12200   0.00000  Uiso   1.00
C5     C     0.61556   0.96426   0.03195   0.00000  Uiso   1.00
C6     C     0.73630   0.21675   0.26666   0.00000  Uiso   1.00
C7     C     0.79855   0.27146   0.23563   0.00000  Uiso   1.00
C8     C     0.76705   0.36246   0.22275   0.00000  Uiso   1.00
C9     C     0.75003   0.51445   0.19106   0.00000  Uiso   1.00
C10    C     0.71337   0.08685   0.38246   0.00000  Uiso   1.00
C11    C     0.75634   0.03236   0.44881   0.00000  Uiso   1.00
C12    C     0.70554   0.01400   0.53343   0.00000  Uiso   1.00
C13    C     0.65291   0.96430   0.68154   0.00000  Uiso   1.00
C14    C     0.58951   0.17978   0.31768   0.00000  Uiso   1.00
C15    C     0.61405   0.12178   0.24667   0.00000  Uiso   1.00
C16    C     0.55575   0.10349   0.20225   0.00000  Uiso   1.00
C17    C     0.59122   0.04896   0.13958   0.00000  Uiso   1.00
C18    C     0.64580   0.25169   0.28421   0.00000  Uiso   1.00
C19    C     0.61420   0.34263   0.27139   0.00000  Uiso   1.00
C20    C     0.67639   0.39747   0.24034   0.00000  Uiso   1.00
C21    C     0.62286   0.12179   0.40002   0.00000  Uiso   1.00
C22    C     0.57199   0.10352   0.48456   0.00000  Uiso   1.00
C23    C     0.61487   0.04901   0.55102   0.00000  Uiso   1.00
H24    H     0.82660   0.08825   0.27169   0.00000  Uiso   1.00
H25    H     0.81015   0.00530   0.15292   0.00000  Uiso   1.00
H26    H     0.86858   0.24441   0.22205   0.00000  Uiso   1.00
H27    H     0.82638   0.00533   0.43520   0.00000  Uiso   1.00
H28    H     0.75201   0.92877   0.02896   0.00000  Uiso   1.00
H29    H     0.87522   0.43293   0.17476   0.00000  Uiso   1.00
H30    H     0.78623   0.92880   0.62421   0.00000  Uiso   1.00
H31    H     0.51904   0.20698   0.33135   0.00000  Uiso   1.00
H32    H     0.48572   0.13054   0.21585   0.00000  Uiso   1.00
H33    H     0.54416   0.36965   0.28498   0.00000  Uiso   1.00
H34    H     0.50195   0.13057   0.49812   0.00000  Uiso   1.00
H35    H     0.48869   0.03043   0.08003   0.00000  Uiso   1.00
H36    H     0.61191   0.53459   0.22584   0.00000  Uiso   1.00
H37    H     0.52291   0.03045   0.67529   0.00000  Uiso   1.00
O38    O     0.60398   0.92720   0.97742   0.00000  Uiso   1.00
O39    O     0.76564   0.58863   0.16872   0.00000  Uiso   1.00
O40    O     0.64888   0.92722   0.75839   0.00000  Uiso   1.00
N41    N     0.69461   0.96317   0.05684   0.00000  Uiso   1.00
N42    N     0.80981   0.43453   0.19314   0.00000  Uiso   1.00
N43    N     0.72661   0.96323   0.61335   0.00000  Uiso   1.00
N44    N     0.55292   0.01787   0.08433   0.00000  Uiso   1.00
N45    N     0.66812   0.48923   0.22063   0.00000  Uiso   1.00
N46    N     0.58492   0.01793   0.64083   0.00000  Uiso   1.00
C47    C     0.28614   0.75693   0.11539   0.00000  Uiso   1.00
C48    C     0.23060   0.70496   0.08659   0.00000  Uiso   1.00
C49    C     0.16877   0.74070   0.03171   0.00000  Uiso   1.00
C50    C     0.12484   0.68205   0.01324   0.00000  Uiso   1.00
C51    C     0.03594   0.61522   0.96322   0.00000  Uiso   1.00
C52    C     0.26760   0.73691   0.21725   0.00000  Uiso   1.00
C53    C     0.23689   0.79953   0.27223   0.00000  Uiso   1.00
C54    C     0.22412   0.76778   0.36374   0.00000  Uiso   1.00
C55    C     0.19272   0.75056   0.51657   0.00000  Uiso   1.00
C56    C     0.38210   0.71400   0.08671   0.00000  Uiso   1.00
C57    C     0.44767   0.75734   0.03194   0.00000  Uiso   1.00
C58    C     0.53130   0.70630   0.01356   0.00000  Uiso   1.00
C59    C     0.67768   0.65349   0.96370   0.00000  Uiso   1.00
C60    C     0.31809   0.58923   0.18017   0.00000  Uiso   1.00
C61    C     0.24796   0.61387   0.12178   0.00000  Uiso   1.00
C62    C     0.20412   0.55515   0.10339   0.00000  Uiso   1.00
C63    C     0.14223   0.59080   0.04849   0.00000  Uiso   1.00
C64    C     0.28496   0.64583   0.25244   0.00000  Uiso   1.00
C65    C     0.27224   0.61398   0.34390   0.00000  Uiso   1.00
C66    C     0.24151   0.67653   0.39899   0.00000  Uiso   1.00
C67    C     0.39946   0.62290   0.12189   0.00000  Uiso   1.00
C68    C     0.48302   0.57179   0.10361   0.00000  Uiso   1.00
C69    C     0.54869   0.61504   0.04881   0.00000  Uiso   1.00
H70    H     0.27262   0.82785   0.08800   0.00000  Uiso   1.00
H71    H     0.15535   0.81120   0.00450   0.00000  Uiso   1.00
H72    H     0.22347   0.87001   0.24498   0.00000  Uiso   1.00
H73    H     0.43421   0.82783   0.00472   0.00000  Uiso   1.00
H74    H     0.03295   0.75257   0.92748   0.00000  Uiso   1.00
H75    H     0.17662   0.87659   0.43453   0.00000  Uiso   1.00
H76    H     0.62101   0.78764   0.92791   0.00000  Uiso   1.00
H77    H     0.33161   0.51831   0.20756   0.00000  Uiso   1.00
H78    H     0.21757   0.48467   0.13062   0.00000  Uiso   1.00
H79    H     0.28568   0.54349   0.37110   0.00000  Uiso   1.00
H80    H     0.49643   0.50130   0.13085   0.00000  Uiso   1.00
H81    H     0.08345   0.48754   0.02985   0.00000  Uiso   1.00
H82    H     0.22712   0.61157   0.53690   0.00000  Uiso   1.00
H83    H     0.67151   0.52261   0.03028   0.00000  Uiso   1.00
O84    O     0.98209   0.60352   0.92592   0.00000  Uiso   1.00
O85    O     0.17059   0.76623   0.59114   0.00000  Uiso   1.00
O86    O     0.75362   0.64953   0.92647   0.00000  Uiso   1.00
N87    N     0.06050   0.69481   0.96212   0.00000  Uiso   1.00
N88    N     0.19480   0.81076   0.43618   0.00000  Uiso   1.00
N89    N     0.61028   0.72760   0.96255   0.00000  Uiso   1.00
N90    N     0.08767   0.55220   0.01720   0.00000  Uiso   1.00
N91    N     0.22198   0.66815   0.49126   0.00000  Uiso   1.00
N92    N     0.63745   0.58500   0.01763   0.00000  Uiso   1.00
C93    C     0.11543   0.28562   0.75750   0.00000  Uiso   1.00
C94    C     0.08704   0.22971   0.70524   0.00000  Uiso   1.00
C95    C     0.03282   0.16739   0.74116   0.00000  Uiso   1.00
C96    C     0.01463   0.12318   0.68220   0.00000  Uiso   1.00
C97    C     0.96529   0.03366   0.61498   0.00000  Uiso   1.00
C98    C     0.21609   0.26708   0.73745   0.00000  Uiso   1.00
C99    C     0.27037   0.23620   0.80046   0.00000  Uiso   1.00
C100   C     0.36080   0.22345   0.76861   0.00000  Uiso   1.00
C101   C     0.51181   0.19201   0.75141   0.00000  Uiso   1.00
C102   C     0.08709   0.38219   0.71426   0.00000  Uiso   1.00
C103   C     0.03292   0.44812   0.75778   0.00000  Uiso   1.00
C104   C     0.01477   0.53230   0.70641   0.00000  Uiso   1.00
C105   C     0.96549   0.67960   0.65321   0.00000  Uiso   1.00
C106   C     0.17952   0.31790   0.58889   0.00000  Uiso   1.00
C107   C     0.12186   0.24724   0.61365   0.00000  Uiso   1.00
C108   C     0.10373   0.20311   0.55461   0.00000  Uiso   1.00
C109   C     0.04950   0.14075   0.59045   0.00000  Uiso   1.00
C110   C     0.25090   0.28461   0.64587   0.00000  Uiso   1.00
C111   C     0.34128   0.27191   0.61391   0.00000  Uiso   1.00
C112   C     0.39568   0.24102   0.67686   0.00000  Uiso   1.00
C113   C     0.12190   0.39973   0.62268   0.00000  Uiso   1.00
C114   C     0.10383   0.48383   0.57123   0.00000  Uiso   1.00
C115   C     0.04965   0.54987   0.61466   0.00000  Uiso   1.00
H116   H     0.08833   0.27197   0.82880   0.00000  Uiso   1.00
H117   H     0.00590   0.15384   0.81205   0.00000  Uiso   1.00
H118   H     0.24341   0.22264   0.87133   0.00000  Uiso   1.00
H119   H     0.00600   0.43452   0.82866   0.00000  Uiso   1.00
H120   H     0.92989   0.03058   0.75308   0.00000  Uiso   1.00
H121   H     0.43068   0.17568   0.87810   0.00000  Uiso   1.00
H122   H     0.93006   0.62248   0.78811   0.00000  Uiso   1.00
H123   H     0.20663   0.33156   0.51758   0.00000  Uiso   1.00
H124   H     0.13069   0.21670   0.48374   0.00000  Uiso   1.00
H125   H     0.36819   0.28550   0.54303   0.00000  Uiso   1.00
H126   H     0.13078   0.49738   0.50036   0.00000  Uiso   1.00
H127   H     0.03118   0.08159   0.48662   0.00000  Uiso   1.00
H128   H     0.53197   0.22670   0.61164   0.00000  Uiso   1.00
H129   H     0.03135   0.67349   0.52165   0.00000  Uiso   1.00
O130   O     0.92847   0.97943   0.60321   0.00000  Uiso   1.00
O131   O     0.58549   0.16981   0.76723   0.00000  Uiso   1.00
O132   O     0.92868   0.75600   0.64917   0.00000  Uiso   1.00
N133   N     0.96414   0.05836   0.69501   0.00000  Uiso   1.00
N134   N     0.43235   0.19401   0.81189   0.00000  Uiso   1.00
N135   N     0.96433   0.61173   0.72777   0.00000  Uiso   1.00
N136   N     0.01864   0.08581   0.55163   0.00000  Uiso   1.00
N137   N     0.48685   0.22146   0.66851   0.00000  Uiso   1.00
N138   N     0.01883   0.63918   0.58439   0.00000  Uiso   1.00
C139   C     0.24387   0.88455   0.71464   0.00000  Uiso   1.00
C140   C     0.29545   0.91316   0.77089   0.00000  Uiso   1.00
C141   C     0.25990   0.96768   0.83350   0.00000  Uiso   1.00
C142   C     0.31812   0.98604   0.87800   0.00000  Uiso   1.00
C143   C     0.38444   0.03574   0.96805   0.00000  Uiso   1.00
C144   C     0.26370   0.78325   0.73334   0.00000  Uiso   1.00
C145   C     0.20145   0.72854   0.76437   0.00000  Uiso   1.00
C146   C     0.23295   0.63754   0.77725   0.00000  Uiso   1.00
C147   C     0.24997   0.48555   0.80894   0.00000  Uiso   1.00
C148   C     0.28663   0.91315   0.61754   0.00000  Uiso   1.00
C149   C     0.24366   0.96764   0.55119   0.00000  Uiso   1.00
C150   C     0.29446   0.98600   0.46657   0.00000  Uiso   1.00
C151   C     0.34709   0.03570   0.31846   0.00000  Uiso   1.00
C152   C     0.41049   0.82022   0.68232   0.00000  Uiso   1.00
C153   C     0.38595   0.87822   0.75333   0.00000  Uiso   1.00
C154   C     0.44425   0.89651   0.79774   0.00000  Uiso   1.00
C155   C     0.40878   0.95104   0.86042   0.00000  Uiso   1.00
C156   C     0.35420   0.74831   0.71579   0.00000  Uiso   1.00
C157   C     0.38580   0.65737   0.72861   0.00000  Uiso   1.00
C158   C     0.32361   0.60253   0.75966   0.00000  Uiso   1.00
C159   C     0.37714   0.87821   0.59998   0.00000  Uiso   1.00
C160   C     0.42801   0.89648   0.51544   0.00000  Uiso   1.00
C161   C     0.38513   0.95099   0.44898   0.00000  Uiso   1.00
H162   H     0.17340   0.91175   0.72831   0.00000  Uiso   1.00
H163   H     0.18985   0.99470   0.84708   0.00000  Uiso   1.00
H164   H     0.13142   0.75559   0.77795   0.00000  Uiso   1.00
H165   H     0.17362   0.99467   0.56480   0.00000  Uiso   1.00
H166   H     0.24799   0.07123   0.97104   0.00000  Uiso   1.00
H167   H     0.12477   0.56707   0.82524   0.00000  Uiso   1.00
H168   H     0.21377   0.07120   0.37579   0.00000  Uiso   1.00
H169   H     0.48096   0.79302   0.66865   0.00000  Uiso   1.00
H170   H     0.51428   0.86946   0.78415   0.00000  Uiso   1.00
H171   H     0.45584   0.63035   0.71502   0.00000  Uiso   1.00
H172   H     0.49805   0.86943   0.50188   0.00000  Uiso   1.00
H173   H     0.51131   0.96957   0.91997   0.00000  Uiso   1.00
H174   H     0.38809   0.46541   0.77416   0.00000  Uiso   1.00
H175   H     0.47709   0.96955   0.32471   0.00000  Uiso   1.00
O176   O     0.39602   0.07280   0.02258   0.00000  Uiso   1.00
O177   O     0.23436   0.41137   0.83128   0.00000  Uiso   1.00
O178   O     0.35112   0.07278   0.24161   0.00000  Uiso   1.00
N179   N     0.30539   0.03683   0.94316   0.00000  Uiso   1.00
N180   N     0.19019   0.56547   0.80686   0.00000  Uiso   1.00
N181   N     0.27339   0.03677   0.38665   0.00000  Uiso   1.00
N182   N     0.44708   0.98213   0.91567   0.00000  Uiso   1.00
N183   N     0.33188   0.51077   0.77937   0.00000  Uiso   1.00
N184   N     0.41508   0.98207   0.35917   0.00000  Uiso   1.00
C185   C     0.71386   0.24307   0.88461   0.00000  Uiso   1.00
C186   C     0.76940   0.29504   0.91340   0.00000  Uiso   1.00
C187   C     0.83123   0.25930   0.96828   0.00000  Uiso   1.00
C188   C     0.87516   0.31795   0.98676   0.00000  Uiso   1.00
C189   C     0.96406   0.38478   0.03678   0.00000  Uiso   1.00
C190   C     0.73240   0.26309   0.78275   0.00000  Uiso   1.00
C191   C     0.76311   0.20047   0.72777   0.00000  Uiso   1.00
C192   C     0.77588   0.23222   0.63626   0.00000  Uiso   1.00
C193   C     0.80728   0.24944   0.48343   0.00000  Uiso   1.00
C194   C     0.61790   0.28600   0.91329   0.00000  Uiso   1.00
C195   C     0.55233   0.24266   0.96806   0.00000  Uiso   1.00
C196   C     0.46870   0.29370   0.98644   0.00000  Uiso   1.00
C197   C     0.32232   0.34651   0.03630   0.00000  Uiso   1.00
C198   C     0.68191   0.41077   0.81983   0.00000  Uiso   1.00
C199   C     0.75204   0.38613   0.87821   0.00000  Uiso   1.00
C200   C     0.79588   0.44485   0.89661   0.00000  Uiso   1.00
C201   C     0.85777   0.40920   0.95151   0.00000  Uiso   1.00
C202   C     0.71504   0.35417   0.74756   0.00000  Uiso   1.00
C203   C     0.72776   0.38602   0.65610   0.00000  Uiso   1.00
C204   C     0.75849   0.32347   0.60101   0.00000  Uiso   1.00
C205   C     0.60054   0.37710   0.87810   0.00000  Uiso   1.00
C206   C     0.51698   0.42821   0.89639   0.00000  Uiso   1.00
C207   C     0.45131   0.38496   0.95118   0.00000  Uiso   1.00
H208   H     0.72737   0.17215   0.91200   0.00000  Uiso   1.00
H209   H     0.84465   0.18880   0.99550   0.00000  Uiso   1.00
H210   H     0.77653   0.12999   0.75502   0.00000  Uiso   1.00
H211   H     0.56579   0.17217   0.99527   0.00000  Uiso   1.00
H212   H     0.96705   0.24743   0.07252   0.00000  Uiso   1.00
H213   H     0.82338   0.12341   0.56547   0.00000  Uiso   1.00
H214   H     0.37899   0.21236   0.07209   0.00000  Uiso   1.00
H215   H     0.66839   0.48169   0.79244   0.00000  Uiso   1.00
H216   H     0.78243   0.51533   0.86937   0.00000  Uiso   1.00
H217   H     0.71432   0.45651   0.62890   0.00000  Uiso   1.00
H218   H     0.50357   0.49870   0.86915   0.00000  Uiso   1.00
H219   H     0.91655   0.51246   0.97015   0.00000  Uiso   1.00
H220   H     0.77288   0.38843   0.46310   0.00000  Uiso   1.00
H221   H     0.32849   0.47739   0.96972   0.00000  Uiso   1.00
O222   O     0.01791   0.39648   0.07408   0.00000  Uiso   1.00
O223   O     0.82941   0.23377   0.40886   0.00000  Uiso   1.00
O224   O     0.24638   0.35047   0.07353   0.00000  Uiso   1.00
N225   N     0.93950   0.30519   0.03788   0.00000  Uiso   1.00
N226   N     0.80520   0.18924   0.56382   0.00000  Uiso   1.00
N227   N     0.38972   0.27240   0.03745   0.00000  Uiso   1.00
N228   N     0.91233   0.44780   0.98280   0.00000  Uiso   1.00
N229   N     0.77802   0.33185   0.50874   0.00000  Uiso   1.00
N230   N     0.36255   0.41500   0.98237   0.00000  Uiso   1.00
C231   C     0.88457   0.71438   0.24250   0.00000  Uiso   1.00
C232   C     0.91296   0.77029   0.29476   0.00000  Uiso   1.00
C233   C     0.96718   0.83261   0.25884   0.00000  Uiso   1.00
C234   C     0.98537   0.87682   0.31780   0.00000  Uiso   1.00
C235   C     0.03471   0.96634   0.38502   0.00000  Uiso   1.00
C236   C     0.78391   0.73292   0.26255   0.00000  Uiso   1.00
C237   C     0.72963   0.76380   0.19954   0.00000  Uiso   1.00
C238   C     0.63920   0.77655   0.23139   0.00000  Uiso   1.00
C239   C     0.48819   0.80799   0.24859   0.00000  Uiso   1.00
C240   C     0.91291   0.61781   0.28574   0.00000  Uiso   1.00
C241   C     0.96708   0.55188   0.24222   0.00000  Uiso   1.00
C242   C     0.98523   0.46770   0.29359   0.00000  Uiso   1.00
C243   C     0.03451   0.32040   0.34679   0.00000  Uiso   1.00
C244   C     0.82048   0.68210   0.41111   0.00000  Uiso   1.00
C245   C     0.87814   0.75276   0.38635   0.00000  Uiso   1.00
C246   C     0.89626   0.79689   0.44539   0.00000  Uiso   1.00
C247   C     0.95050   0.85925   0.40955   0.00000  Uiso   1.00
C248   C     0.74910   0.71539   0.35413   0.00000  Uiso   1.00
C249   C     0.65872   0.72809   0.38609   0.00000  Uiso   1.00
C250   C     0.60432   0.75898   0.32314   0.00000  Uiso   1.00
C251   C     0.87810   0.60027   0.37732   0.00000  Uiso   1.00
C252   C     0.89617   0.51617   0.42877   0.00000  Uiso   1.00
C253   C     0.95035   0.45013   0.38534   0.00000  Uiso   1.00
H254   H     0.91167   0.72803   0.17120   0.00000  Uiso   1.00
H255   H     0.99410   0.84616   0.18795   0.00000  Uiso   1.00
H256   H     0.75659   0.77736   0.12867   0.00000  Uiso   1.00
H257   H     0.99400   0.56548   0.17134   0.00000  Uiso   1.00
H258   H     0.07011   0.96942   0.24692   0.00000  Uiso   1.00
H259   H     0.56931   0.82432   0.12190   0.00000  Uiso   1.00
H260   H     0.06994   0.37752   0.21189   0.00000  Uiso   1.00
H261   H     0.79337   0.66844   0.48242   0.00000  Uiso   1.00
H262   H     0.86931   0.78330   0.51626   0.00000  Uiso   1.00
H263   H     0.63181   0.71450   0.45697   0.00000  Uiso   1.00
H264   H     0.86922   0.50262   0.49964   0.00000  Uiso   1.00
H265   H     0.96882   0.91841   0.51338   0.00000  Uiso   1.00
H266   H     0.46803   0.77330   0.38836   0.00000  Uiso   1.00
H267   H     0.96865   0.32651   0.47835   0.00000  Uiso   1.00
O268   O     0.07153   0.02057   0.39679   0.00000  Uiso   1.00
O269   O     0.41451   0.83019   0.23277   0.00000  Uiso   1.00
O270   O     0.07132   0.24400   0.35083   0.00000  Uiso   1.00
N271   N     0.03586   0.94164   0.30499   0.00000  Uiso   1.00
N272   N     0.56765   0.80599   0.18811   0.00000  Uiso   1.00
N273   N     0.03567   0.38827   0.27223   0.00000  Uiso   1.00
N274   N     0.98136   0.91419   0.44837   0.00000  Uiso   1.00
N275   N     0.51315   0.77854   0.33149   0.00000  Uiso   1.00
N276   N     0.98117   0.36082   0.41561   0.00000  Uiso   1.00
