data_job_02969
_audit_creation_date              2018-12-19
_audit_creation_method            'Materials Studio'
_symmetry_space_group_name_H-M    'P1'
_symmetry_Int_Tables_number       1
_symmetry_cell_setting            triclinic
loop_
_symmetry_equiv_pos_as_xyz
  x,y,z
_cell_length_a                    22.4427
_cell_length_b                    12.6447
_cell_length_c                    28.5485
_cell_angle_alpha                 90.0000
_cell_angle_beta                  90.0000
_cell_angle_gamma                 90.0000
loop_
_atom_site_label
_atom_site_type_symbol
_atom_site_fract_x
_atom_site_fract_y
_atom_site_fract_z
_atom_site_U_iso_or_equiv
_atom_site_adp_type
_atom_site_occupancy
C1     C     0.61109   0.57275   0.39199   0.00000  Uiso   1.00
C2     C     0.66054   0.58546   0.35580   0.00000  Uiso   1.00
C3     C     0.72093   0.57038   0.36385   0.00000  Uiso   1.00
C4     C     0.75904   0.58593   0.32617   0.00000  Uiso   1.00
C5     C     0.83911   0.60122   0.27669   0.00000  Uiso   1.00
C6     C     0.57782   0.67789   0.39292   0.00000  Uiso   1.00
C7     C     0.56866   0.74052   0.43219   0.00000  Uiso   1.00
C8     C     0.53713   0.83387   0.42576   0.00000  Uiso   1.00
C9     C     0.48874   0.99261   0.43391   0.00000  Uiso   1.00
C10    C     0.56769   0.49222   0.37158   0.00000  Uiso   1.00
C11    C     0.54998   0.39873   0.39291   0.00000  Uiso   1.00
C12    C     0.50991   0.33577   0.36852   0.00000  Uiso   1.00
C13    C     0.44579   0.20623   0.34355   0.00000  Uiso   1.00
C14    C     0.57138   0.62718   0.31075   0.00000  Uiso   1.00
C15    C     0.63897   0.61503   0.31167   0.00000  Uiso   1.00
C16    C     0.67700   0.63060   0.27396   0.00000  Uiso   1.00
C17    C     0.73744   0.61554   0.28196   0.00000  Uiso   1.00
C18    C     0.55626   0.70746   0.34879   0.00000  Uiso   1.00
C19    C     0.52473   0.80073   0.34230   0.00000  Uiso   1.00
C20    C     0.51552   0.86348   0.38155   0.00000  Uiso   1.00
C21    C     0.54612   0.52178   0.32745   0.00000  Uiso   1.00
C22    C     0.50606   0.45895   0.30302   0.00000  Uiso   1.00
C23    C     0.48830   0.36539   0.32431   0.00000  Uiso   1.00
H24    H     0.62787   0.54975   0.42635   0.00000  Uiso   1.00
H25    H     0.73760   0.54751   0.39801   0.00000  Uiso   1.00
H26    H     0.58534   0.71761   0.46634   0.00000  Uiso   1.00
H27    H     0.56668   0.37588   0.42707   0.00000  Uiso   1.00
H28    H     0.84974   0.55811   0.34713   0.00000  Uiso   1.00
H29    H     0.52869   0.91676   0.49121   0.00000  Uiso   1.00
H30    H     0.48933   0.19616   0.40840   0.00000  Uiso   1.00
H31    H     0.55459   0.65020   0.27639   0.00000  Uiso   1.00
H32    H     0.66030   0.65348   0.23981   0.00000  Uiso   1.00
H33    H     0.50805   0.82358   0.30814   0.00000  Uiso   1.00
H34    H     0.48938   0.48185   0.26887   0.00000  Uiso   1.00
H35    H     0.78701   0.64412   0.21873   0.00000  Uiso   1.00
H36    H     0.46595   0.00277   0.36281   0.00000  Uiso   1.00
H37    H     0.42659   0.28217   0.28000   0.00000  Uiso   1.00
O38    O     0.88924   0.60150   0.26159   0.00000  Uiso   1.00
O39    O     0.46802   0.07202   0.45061   0.00000  Uiso   1.00
O40    O     0.41638   0.12660   0.34196   0.00000  Uiso   1.00
N41    N     0.82047   0.57789   0.32193   0.00000  Uiso   1.00
N42    N     0.52031   0.91321   0.45663   0.00000  Uiso   1.00
N43    N     0.48350   0.23952   0.37921   0.00000  Uiso   1.00
N44    N     0.78671   0.62417   0.25284   0.00000  Uiso   1.00
N45    N     0.48656   0.95949   0.38754   0.00000  Uiso   1.00
N46    N     0.44974   0.28580   0.31012   0.00000  Uiso   1.00
C47    C     0.88891   0.92725   0.39199   0.00000  Uiso   1.00
C48    C     0.83946   0.91454   0.35580   0.00000  Uiso   1.00
C49    C     0.77907   0.92962   0.36385   0.00000  Uiso   1.00
C50    C     0.74096   0.91407   0.32617   0.00000  Uiso   1.00
C51    C     0.66089   0.89878   0.27669   0.00000  Uiso   1.00
C52    C     0.92218   0.82211   0.39292   0.00000  Uiso   1.00
C53    C     0.93134   0.75948   0.43219   0.00000  Uiso   1.00
C54    C     0.96287   0.66613   0.42576   0.00000  Uiso   1.00
C55    C     0.01126   0.50739   0.43391   0.00000  Uiso   1.00
C56    C     0.93231   0.00778   0.37158   0.00000  Uiso   1.00
C57    C     0.95002   0.10127   0.39291   0.00000  Uiso   1.00
C58    C     0.99009   0.16423   0.36852   0.00000  Uiso   1.00
C59    C     0.05421   0.29377   0.34355   0.00000  Uiso   1.00
C60    C     0.92862   0.87282   0.31075   0.00000  Uiso   1.00
C61    C     0.86103   0.88497   0.31167   0.00000  Uiso   1.00
C62    C     0.82300   0.86940   0.27396   0.00000  Uiso   1.00
C63    C     0.76256   0.88446   0.28196   0.00000  Uiso   1.00
C64    C     0.94374   0.79254   0.34879   0.00000  Uiso   1.00
C65    C     0.97527   0.69927   0.34230   0.00000  Uiso   1.00
C66    C     0.98448   0.63652   0.38155   0.00000  Uiso   1.00
C67    C     0.95388   0.97822   0.32745   0.00000  Uiso   1.00
C68    C     0.99394   0.04105   0.30302   0.00000  Uiso   1.00
C69    C     0.01170   0.13461   0.32431   0.00000  Uiso   1.00
H70    H     0.87213   0.95025   0.42635   0.00000  Uiso   1.00
H71    H     0.76240   0.95249   0.39801   0.00000  Uiso   1.00
H72    H     0.91466   0.78239   0.46634   0.00000  Uiso   1.00
H73    H     0.93332   0.12412   0.42707   0.00000  Uiso   1.00
H74    H     0.65026   0.94189   0.34713   0.00000  Uiso   1.00
H75    H     0.97131   0.58324   0.49121   0.00000  Uiso   1.00
H76    H     0.01067   0.30384   0.40840   0.00000  Uiso   1.00
H77    H     0.94541   0.84980   0.27639   0.00000  Uiso   1.00
H78    H     0.83970   0.84652   0.23981   0.00000  Uiso   1.00
H79    H     0.99195   0.67642   0.30814   0.00000  Uiso   1.00
H80    H     0.01062   0.01815   0.26887   0.00000  Uiso   1.00
H81    H     0.71299   0.85588   0.21873   0.00000  Uiso   1.00
H82    H     0.03405   0.49723   0.36281   0.00000  Uiso   1.00
H83    H     0.07341   0.21783   0.28000   0.00000  Uiso   1.00
O84    O     0.61076   0.89850   0.26159   0.00000  Uiso   1.00
O85    O     0.03198   0.42798   0.45061   0.00000  Uiso   1.00
O86    O     0.08362   0.37340   0.34196   0.00000  Uiso   1.00
N87    N     0.67953   0.92211   0.32193   0.00000  Uiso   1.00
N88    N     0.97969   0.58679   0.45663   0.00000  Uiso   1.00
N89    N     0.01650   0.26048   0.37921   0.00000  Uiso   1.00
N90    N     0.71329   0.87583   0.25284   0.00000  Uiso   1.00
N91    N     0.01344   0.54051   0.38754   0.00000  Uiso   1.00
N92    N     0.05026   0.21420   0.31012   0.00000  Uiso   1.00
C93    C     0.38891   0.07275   0.10801   0.00000  Uiso   1.00
C94    C     0.33946   0.08546   0.14420   0.00000  Uiso   1.00
C95    C     0.27907   0.07038   0.13615   0.00000  Uiso   1.00
C96    C     0.24096   0.08593   0.17383   0.00000  Uiso   1.00
C97    C     0.16089   0.10122   0.22331   0.00000  Uiso   1.00
C98    C     0.42218   0.17789   0.10708   0.00000  Uiso   1.00
C99    C     0.43134   0.24052   0.06781   0.00000  Uiso   1.00
C100   C     0.46287   0.33387   0.07424   0.00000  Uiso   1.00
C101   C     0.51126   0.49261   0.06609   0.00000  Uiso   1.00
C102   C     0.43231   0.99222   0.12842   0.00000  Uiso   1.00
C103   C     0.45002   0.89873   0.10709   0.00000  Uiso   1.00
C104   C     0.49009   0.83577   0.13148   0.00000  Uiso   1.00
C105   C     0.55421   0.70623   0.15645   0.00000  Uiso   1.00
C106   C     0.42862   0.12718   0.18925   0.00000  Uiso   1.00
C107   C     0.36103   0.11503   0.18833   0.00000  Uiso   1.00
C108   C     0.32300   0.13060   0.22604   0.00000  Uiso   1.00
C109   C     0.26256   0.11554   0.21804   0.00000  Uiso   1.00
C110   C     0.44374   0.20746   0.15121   0.00000  Uiso   1.00
C111   C     0.47527   0.30073   0.15770   0.00000  Uiso   1.00
C112   C     0.48448   0.36348   0.11845   0.00000  Uiso   1.00
C113   C     0.45388   0.02178   0.17255   0.00000  Uiso   1.00
C114   C     0.49394   0.95895   0.19698   0.00000  Uiso   1.00
C115   C     0.51170   0.86539   0.17569   0.00000  Uiso   1.00
H116   H     0.37213   0.04975   0.07365   0.00000  Uiso   1.00
H117   H     0.26240   0.04751   0.10199   0.00000  Uiso   1.00
H118   H     0.41466   0.21761   0.03366   0.00000  Uiso   1.00
H119   H     0.43332   0.87588   0.07293   0.00000  Uiso   1.00
H120   H     0.15026   0.05811   0.15287   0.00000  Uiso   1.00
H121   H     0.47131   0.41676   0.00879   0.00000  Uiso   1.00
H122   H     0.51067   0.69616   0.09160   0.00000  Uiso   1.00
H123   H     0.44541   0.15020   0.22361   0.00000  Uiso   1.00
H124   H     0.33970   0.15348   0.26019   0.00000  Uiso   1.00
H125   H     0.49195   0.32358   0.19186   0.00000  Uiso   1.00
H126   H     0.51062   0.98185   0.23113   0.00000  Uiso   1.00
H127   H     0.21299   0.14412   0.28127   0.00000  Uiso   1.00
H128   H     0.53405   0.50277   0.13719   0.00000  Uiso   1.00
H129   H     0.57341   0.78217   0.22000   0.00000  Uiso   1.00
O130   O     0.11076   0.10150   0.23841   0.00000  Uiso   1.00
O131   O     0.53198   0.57202   0.04939   0.00000  Uiso   1.00
O132   O     0.58362   0.62660   0.15804   0.00000  Uiso   1.00
N133   N     0.17953   0.07789   0.17807   0.00000  Uiso   1.00
N134   N     0.47969   0.41321   0.04337   0.00000  Uiso   1.00
N135   N     0.51650   0.73952   0.12079   0.00000  Uiso   1.00
N136   N     0.21329   0.12417   0.24716   0.00000  Uiso   1.00
N137   N     0.51344   0.45949   0.11246   0.00000  Uiso   1.00
N138   N     0.55026   0.78580   0.18988   0.00000  Uiso   1.00
C139   C     0.11109   0.42725   0.10801   0.00000  Uiso   1.00
C140   C     0.16054   0.41454   0.14420   0.00000  Uiso   1.00
C141   C     0.22093   0.42962   0.13615   0.00000  Uiso   1.00
C142   C     0.25904   0.41407   0.17383   0.00000  Uiso   1.00
C143   C     0.33911   0.39878   0.22331   0.00000  Uiso   1.00
C144   C     0.07782   0.32211   0.10708   0.00000  Uiso   1.00
C145   C     0.06866   0.25948   0.06781   0.00000  Uiso   1.00
C146   C     0.03713   0.16613   0.07424   0.00000  Uiso   1.00
C147   C     0.98874   0.00739   0.06609   0.00000  Uiso   1.00
C148   C     0.06769   0.50778   0.12842   0.00000  Uiso   1.00
C149   C     0.04998   0.60127   0.10709   0.00000  Uiso   1.00
C150   C     0.00991   0.66423   0.13148   0.00000  Uiso   1.00
C151   C     0.94579   0.79377   0.15645   0.00000  Uiso   1.00
C152   C     0.07138   0.37282   0.18925   0.00000  Uiso   1.00
C153   C     0.13897   0.38497   0.18833   0.00000  Uiso   1.00
C154   C     0.17700   0.36940   0.22604   0.00000  Uiso   1.00
C155   C     0.23744   0.38446   0.21804   0.00000  Uiso   1.00
C156   C     0.05626   0.29254   0.15121   0.00000  Uiso   1.00
C157   C     0.02473   0.19927   0.15770   0.00000  Uiso   1.00
C158   C     0.01552   0.13652   0.11845   0.00000  Uiso   1.00
C159   C     0.04612   0.47822   0.17255   0.00000  Uiso   1.00
C160   C     0.00606   0.54105   0.19698   0.00000  Uiso   1.00
C161   C     0.98830   0.63461   0.17569   0.00000  Uiso   1.00
H162   H     0.12787   0.45025   0.07365   0.00000  Uiso   1.00
H163   H     0.23760   0.45249   0.10199   0.00000  Uiso   1.00
H164   H     0.08534   0.28239   0.03366   0.00000  Uiso   1.00
H165   H     0.06668   0.62412   0.07293   0.00000  Uiso   1.00
H166   H     0.34974   0.44189   0.15287   0.00000  Uiso   1.00
H167   H     0.02869   0.08324   0.00879   0.00000  Uiso   1.00
H168   H     0.98933   0.80384   0.09160   0.00000  Uiso   1.00
H169   H     0.05459   0.34980   0.22361   0.00000  Uiso   1.00
H170   H     0.16030   0.34652   0.26019   0.00000  Uiso   1.00
H171   H     0.00805   0.17642   0.19186   0.00000  Uiso   1.00
H172   H     0.98938   0.51815   0.23113   0.00000  Uiso   1.00
H173   H     0.28701   0.35588   0.28127   0.00000  Uiso   1.00
H174   H     0.96595   0.99723   0.13719   0.00000  Uiso   1.00
H175   H     0.92659   0.71783   0.22000   0.00000  Uiso   1.00
O176   O     0.38924   0.39850   0.23841   0.00000  Uiso   1.00
O177   O     0.96802   0.92798   0.04939   0.00000  Uiso   1.00
O178   O     0.91638   0.87340   0.15804   0.00000  Uiso   1.00
N179   N     0.32047   0.42211   0.17807   0.00000  Uiso   1.00
N180   N     0.02031   0.08679   0.04337   0.00000  Uiso   1.00
N181   N     0.98350   0.76048   0.12079   0.00000  Uiso   1.00
N182   N     0.28671   0.37583   0.24716   0.00000  Uiso   1.00
N183   N     0.98656   0.04051   0.11246   0.00000  Uiso   1.00
N184   N     0.94974   0.71420   0.18988   0.00000  Uiso   1.00
C185   C     0.38891   0.42725   0.60801   0.00000  Uiso   1.00
C186   C     0.33946   0.41454   0.64420   0.00000  Uiso   1.00
C187   C     0.27907   0.42962   0.63615   0.00000  Uiso   1.00
C188   C     0.24096   0.41407   0.67383   0.00000  Uiso   1.00
C189   C     0.16089   0.39878   0.72331   0.00000  Uiso   1.00
C190   C     0.42218   0.32211   0.60708   0.00000  Uiso   1.00
C191   C     0.43134   0.25948   0.56781   0.00000  Uiso   1.00
C192   C     0.46287   0.16613   0.57424   0.00000  Uiso   1.00
C193   C     0.51126   0.00739   0.56609   0.00000  Uiso   1.00
C194   C     0.43231   0.50778   0.62842   0.00000  Uiso   1.00
C195   C     0.45002   0.60127   0.60709   0.00000  Uiso   1.00
C196   C     0.49009   0.66423   0.63148   0.00000  Uiso   1.00
C197   C     0.55421   0.79377   0.65645   0.00000  Uiso   1.00
C198   C     0.42862   0.37282   0.68925   0.00000  Uiso   1.00
C199   C     0.36103   0.38497   0.68833   0.00000  Uiso   1.00
C200   C     0.32300   0.36940   0.72604   0.00000  Uiso   1.00
C201   C     0.26256   0.38446   0.71804   0.00000  Uiso   1.00
C202   C     0.44374   0.29254   0.65121   0.00000  Uiso   1.00
C203   C     0.47527   0.19927   0.65770   0.00000  Uiso   1.00
C204   C     0.48448   0.13652   0.61845   0.00000  Uiso   1.00
C205   C     0.45388   0.47822   0.67255   0.00000  Uiso   1.00
C206   C     0.49394   0.54105   0.69698   0.00000  Uiso   1.00
C207   C     0.51170   0.63461   0.67569   0.00000  Uiso   1.00
H208   H     0.37213   0.45025   0.57365   0.00000  Uiso   1.00
H209   H     0.26240   0.45249   0.60199   0.00000  Uiso   1.00
H210   H     0.41466   0.28239   0.53366   0.00000  Uiso   1.00
H211   H     0.43332   0.62412   0.57293   0.00000  Uiso   1.00
H212   H     0.15026   0.44189   0.65287   0.00000  Uiso   1.00
H213   H     0.47131   0.08324   0.50879   0.00000  Uiso   1.00
H214   H     0.51067   0.80384   0.59160   0.00000  Uiso   1.00
H215   H     0.44541   0.34980   0.72361   0.00000  Uiso   1.00
H216   H     0.33970   0.34652   0.76019   0.00000  Uiso   1.00
H217   H     0.49195   0.17642   0.69186   0.00000  Uiso   1.00
H218   H     0.51062   0.51815   0.73113   0.00000  Uiso   1.00
H219   H     0.21299   0.35588   0.78127   0.00000  Uiso   1.00
H220   H     0.53405   0.99723   0.63719   0.00000  Uiso   1.00
H221   H     0.57341   0.71783   0.72000   0.00000  Uiso   1.00
O222   O     0.11076   0.39850   0.73841   0.00000  Uiso   1.00
O223   O     0.53198   0.92798   0.54939   0.00000  Uiso   1.00
O224   O     0.58362   0.87340   0.65804   0.00000  Uiso   1.00
N225   N     0.17953   0.42211   0.67807   0.00000  Uiso   1.00
N226   N     0.47969   0.08679   0.54337   0.00000  Uiso   1.00
N227   N     0.51650   0.76048   0.62079   0.00000  Uiso   1.00
N228   N     0.21329   0.37583   0.74716   0.00000  Uiso   1.00
N229   N     0.51344   0.04051   0.61246   0.00000  Uiso   1.00
N230   N     0.55026   0.71420   0.68988   0.00000  Uiso   1.00
C231   C     0.11109   0.07275   0.60801   0.00000  Uiso   1.00
C232   C     0.16054   0.08546   0.64420   0.00000  Uiso   1.00
C233   C     0.22093   0.07038   0.63615   0.00000  Uiso   1.00
C234   C     0.25904   0.08593   0.67383   0.00000  Uiso   1.00
C235   C     0.33911   0.10122   0.72331   0.00000  Uiso   1.00
C236   C     0.07782   0.17789   0.60708   0.00000  Uiso   1.00
C237   C     0.06866   0.24052   0.56781   0.00000  Uiso   1.00
C238   C     0.03713   0.33387   0.57424   0.00000  Uiso   1.00
C239   C     0.98874   0.49261   0.56609   0.00000  Uiso   1.00
C240   C     0.06769   0.99222   0.62842   0.00000  Uiso   1.00
C241   C     0.04998   0.89873   0.60709   0.00000  Uiso   1.00
C242   C     0.00991   0.83577   0.63148   0.00000  Uiso   1.00
C243   C     0.94579   0.70623   0.65645   0.00000  Uiso   1.00
C244   C     0.07138   0.12718   0.68925   0.00000  Uiso   1.00
C245   C     0.13897   0.11503   0.68833   0.00000  Uiso   1.00
C246   C     0.17700   0.13060   0.72604   0.00000  Uiso   1.00
C247   C     0.23744   0.11554   0.71804   0.00000  Uiso   1.00
C248   C     0.05626   0.20746   0.65121   0.00000  Uiso   1.00
C249   C     0.02473   0.30073   0.65770   0.00000  Uiso   1.00
C250   C     0.01552   0.36348   0.61845   0.00000  Uiso   1.00
C251   C     0.04612   0.02178   0.67255   0.00000  Uiso   1.00
C252   C     0.00606   0.95895   0.69698   0.00000  Uiso   1.00
C253   C     0.98830   0.86539   0.67569   0.00000  Uiso   1.00
H254   H     0.12787   0.04975   0.57365   0.00000  Uiso   1.00
H255   H     0.23760   0.04751   0.60199   0.00000  Uiso   1.00
H256   H     0.08534   0.21761   0.53366   0.00000  Uiso   1.00
H257   H     0.06668   0.87588   0.57293   0.00000  Uiso   1.00
H258   H     0.34974   0.05811   0.65287   0.00000  Uiso   1.00
H259   H     0.02869   0.41676   0.50879   0.00000  Uiso   1.00
H260   H     0.98933   0.69616   0.59160   0.00000  Uiso   1.00
H261   H     0.05459   0.15020   0.72361   0.00000  Uiso   1.00
H262   H     0.16030   0.15348   0.76019   0.00000  Uiso   1.00
H263   H     0.00805   0.32358   0.69186   0.00000  Uiso   1.00
H264   H     0.98938   0.98185   0.73113   0.00000  Uiso   1.00
H265   H     0.28701   0.14412   0.78127   0.00000  Uiso   1.00
H266   H     0.96595   0.50277   0.63719   0.00000  Uiso   1.00
H267   H     0.92659   0.78217   0.72000   0.00000  Uiso   1.00
O268   O     0.38924   0.10150   0.73841   0.00000  Uiso   1.00
O269   O     0.96802   0.57202   0.54939   0.00000  Uiso   1.00
O270   O     0.91638   0.62660   0.65804   0.00000  Uiso   1.00
N271   N     0.32047   0.07789   0.67807   0.00000  Uiso   1.00
N272   N     0.02031   0.41321   0.54337   0.00000  Uiso   1.00
N273   N     0.98350   0.73952   0.62079   0.00000  Uiso   1.00
N274   N     0.28671   0.12417   0.74716   0.00000  Uiso   1.00
N275   N     0.98656   0.45949   0.61246   0.00000  Uiso   1.00
N276   N     0.94974   0.78580   0.68988   0.00000  Uiso   1.00
C277   C     0.61109   0.92725   0.89199   0.00000  Uiso   1.00
C278   C     0.66054   0.91454   0.85580   0.00000  Uiso   1.00
C279   C     0.72093   0.92962   0.86385   0.00000  Uiso   1.00
C280   C     0.75904   0.91407   0.82617   0.00000  Uiso   1.00
C281   C     0.83911   0.89878   0.77669   0.00000  Uiso   1.00
C282   C     0.57782   0.82211   0.89292   0.00000  Uiso   1.00
C283   C     0.56866   0.75948   0.93219   0.00000  Uiso   1.00
C284   C     0.53713   0.66613   0.92576   0.00000  Uiso   1.00
C285   C     0.48874   0.50739   0.93391   0.00000  Uiso   1.00
C286   C     0.56769   0.00778   0.87158   0.00000  Uiso   1.00
C287   C     0.54998   0.10127   0.89291   0.00000  Uiso   1.00
C288   C     0.50991   0.16423   0.86852   0.00000  Uiso   1.00
C289   C     0.44579   0.29377   0.84355   0.00000  Uiso   1.00
C290   C     0.57138   0.87282   0.81075   0.00000  Uiso   1.00
C291   C     0.63897   0.88497   0.81167   0.00000  Uiso   1.00
C292   C     0.67700   0.86940   0.77396   0.00000  Uiso   1.00
C293   C     0.73744   0.88446   0.78196   0.00000  Uiso   1.00
C294   C     0.55626   0.79254   0.84879   0.00000  Uiso   1.00
C295   C     0.52473   0.69927   0.84230   0.00000  Uiso   1.00
C296   C     0.51552   0.63652   0.88155   0.00000  Uiso   1.00
C297   C     0.54612   0.97822   0.82745   0.00000  Uiso   1.00
C298   C     0.50606   0.04105   0.80302   0.00000  Uiso   1.00
C299   C     0.48830   0.13461   0.82431   0.00000  Uiso   1.00
H300   H     0.62787   0.95025   0.92635   0.00000  Uiso   1.00
H301   H     0.73760   0.95249   0.89801   0.00000  Uiso   1.00
H302   H     0.58534   0.78239   0.96634   0.00000  Uiso   1.00
H303   H     0.56668   0.12412   0.92707   0.00000  Uiso   1.00
H304   H     0.84974   0.94189   0.84713   0.00000  Uiso   1.00
H305   H     0.52869   0.58324   0.99121   0.00000  Uiso   1.00
H306   H     0.48933   0.30384   0.90840   0.00000  Uiso   1.00
H307   H     0.55459   0.84980   0.77639   0.00000  Uiso   1.00
H308   H     0.66030   0.84652   0.73981   0.00000  Uiso   1.00
H309   H     0.50805   0.67642   0.80814   0.00000  Uiso   1.00
H310   H     0.48938   0.01815   0.76887   0.00000  Uiso   1.00
H311   H     0.78701   0.85588   0.71873   0.00000  Uiso   1.00
H312   H     0.46595   0.49723   0.86281   0.00000  Uiso   1.00
H313   H     0.42659   0.21783   0.78000   0.00000  Uiso   1.00
O314   O     0.88924   0.89850   0.76159   0.00000  Uiso   1.00
O315   O     0.46802   0.42798   0.95061   0.00000  Uiso   1.00
O316   O     0.41638   0.37340   0.84196   0.00000  Uiso   1.00
N317   N     0.82047   0.92211   0.82193   0.00000  Uiso   1.00
N318   N     0.52031   0.58679   0.95663   0.00000  Uiso   1.00
N319   N     0.48350   0.26048   0.87921   0.00000  Uiso   1.00
N320   N     0.78671   0.87583   0.75284   0.00000  Uiso   1.00
N321   N     0.48656   0.54051   0.88754   0.00000  Uiso   1.00
N322   N     0.44974   0.21420   0.81012   0.00000  Uiso   1.00
C323   C     0.88891   0.57275   0.89199   0.00000  Uiso   1.00
C324   C     0.83946   0.58546   0.85580   0.00000  Uiso   1.00
C325   C     0.77907   0.57038   0.86385   0.00000  Uiso   1.00
C326   C     0.74096   0.58593   0.82617   0.00000  Uiso   1.00
C327   C     0.66089   0.60122   0.77669   0.00000  Uiso   1.00
C328   C     0.92218   0.67789   0.89292   0.00000  Uiso   1.00
C329   C     0.93134   0.74052   0.93219   0.00000  Uiso   1.00
C330   C     0.96287   0.83387   0.92576   0.00000  Uiso   1.00
C331   C     0.01126   0.99261   0.93391   0.00000  Uiso   1.00
C332   C     0.93231   0.49222   0.87158   0.00000  Uiso   1.00
C333   C     0.95002   0.39873   0.89291   0.00000  Uiso   1.00
C334   C     0.99009   0.33577   0.86852   0.00000  Uiso   1.00
C335   C     0.05421   0.20623   0.84355   0.00000  Uiso   1.00
C336   C     0.92862   0.62718   0.81075   0.00000  Uiso   1.00
C337   C     0.86103   0.61503   0.81167   0.00000  Uiso   1.00
C338   C     0.82300   0.63060   0.77396   0.00000  Uiso   1.00
C339   C     0.76256   0.61554   0.78196   0.00000  Uiso   1.00
C340   C     0.94374   0.70746   0.84879   0.00000  Uiso   1.00
C341   C     0.97527   0.80073   0.84230   0.00000  Uiso   1.00
C342   C     0.98448   0.86348   0.88155   0.00000  Uiso   1.00
C343   C     0.95388   0.52178   0.82745   0.00000  Uiso   1.00
C344   C     0.99394   0.45895   0.80302   0.00000  Uiso   1.00
C345   C     0.01170   0.36539   0.82431   0.00000  Uiso   1.00
H346   H     0.87213   0.54975   0.92635   0.00000  Uiso   1.00
H347   H     0.76240   0.54751   0.89801   0.00000  Uiso   1.00
H348   H     0.91466   0.71761   0.96634   0.00000  Uiso   1.00
H349   H     0.93332   0.37588   0.92707   0.00000  Uiso   1.00
H350   H     0.65026   0.55811   0.84713   0.00000  Uiso   1.00
H351   H     0.97131   0.91676   0.99121   0.00000  Uiso   1.00
H352   H     0.01067   0.19616   0.90840   0.00000  Uiso   1.00
H353   H     0.94541   0.65020   0.77639   0.00000  Uiso   1.00
H354   H     0.83970   0.65348   0.73981   0.00000  Uiso   1.00
H355   H     0.99195   0.82358   0.80814   0.00000  Uiso   1.00
H356   H     0.01062   0.48185   0.76887   0.00000  Uiso   1.00
H357   H     0.71299   0.64412   0.71873   0.00000  Uiso   1.00
H358   H     0.03405   0.00277   0.86281   0.00000  Uiso   1.00
H359   H     0.07341   0.28217   0.78000   0.00000  Uiso   1.00
O360   O     0.61076   0.60150   0.76159   0.00000  Uiso   1.00
O361   O     0.03198   0.07202   0.95061   0.00000  Uiso   1.00
O362   O     0.08362   0.12660   0.84196   0.00000  Uiso   1.00
N363   N     0.67953   0.57789   0.82193   0.00000  Uiso   1.00
N364   N     0.97969   0.91321   0.95663   0.00000  Uiso   1.00
N365   N     0.01650   0.23952   0.87921   0.00000  Uiso   1.00
N366   N     0.71329   0.62417   0.75284   0.00000  Uiso   1.00
N367   N     0.01344   0.95949   0.88754   0.00000  Uiso   1.00
N368   N     0.05026   0.28580   0.81012   0.00000  Uiso   1.00
