data_job_00796
_audit_creation_date              2018-12-19
_audit_creation_method            'Materials Studio'
_symmetry_space_group_name_H-M    'P1'
_symmetry_Int_Tables_number       1
_symmetry_cell_setting            triclinic
loop_
_symmetry_equiv_pos_as_xyz
  x,y,z
_cell_length_a                    12.5542
_cell_length_b                    14.4965
_cell_length_c                    13.9571
_cell_angle_alpha                 90.0000
_cell_angle_beta                  112.1110
_cell_angle_gamma                 90.0000
loop_
_atom_site_label
_atom_site_type_symbol
_atom_site_fract_x
_atom_site_fract_y
_atom_site_fract_z
_atom_site_U_iso_or_equiv
_atom_site_adp_type
_atom_site_occupancy
C1     C     0.23418   0.25631   0.46811   0.00000  Uiso   1.00
C2     C     0.24489   0.16934   0.41092   0.00000  Uiso   1.00
C3     C     0.22977   0.16436   0.30731   0.00000  Uiso   1.00
C4     C     0.24328   0.07836   0.26957   0.00000  Uiso   1.00
C5     C     0.25565   0.95520   0.17107   0.00000  Uiso   1.00
C6     C     0.14432   0.23483   0.51406   0.00000  Uiso   1.00
C7     C     0.04467   0.28492   0.49718   0.00000  Uiso   1.00
C8     C     0.97354   0.25406   0.54627   0.00000  Uiso   1.00
C9     C     0.82982   0.23261   0.60796   0.00000  Uiso   1.00
C10    C     0.34818   0.26617   0.55968   0.00000  Uiso   1.00
C11    C     0.41993   0.34262   0.58117   0.00000  Uiso   1.00
C12    C     0.52042   0.33815   0.66869   0.00000  Uiso   1.00
C13    C     0.69323   0.36536   0.80120   0.00000  Uiso   1.00
C14    C     0.28506   0.11244   0.58534   0.00000  Uiso   1.00
C15    C     0.27252   0.09120   0.47460   0.00000  Uiso   1.00
C16    C     0.28607   0.00519   0.43700   0.00000  Uiso   1.00
C17    C     0.27098   0.00008   0.33335   0.00000  Uiso   1.00
C18    C     0.17196   0.15669   0.57773   0.00000  Uiso   1.00
C19    C     0.10097   0.12575   0.62687   0.00000  Uiso   1.00
C20    C     0.00122   0.17577   0.61006   0.00000  Uiso   1.00
C21    C     0.37583   0.18803   0.62335   0.00000  Uiso   1.00
C22    C     0.47622   0.18344   0.71086   0.00000  Uiso   1.00
C23    C     0.54811   0.25987   0.73248   0.00000  Uiso   1.00
H24    H     0.21266   0.31715   0.41854   0.00000  Uiso   1.00
H25    H     0.20837   0.22485   0.25806   0.00000  Uiso   1.00
H26    H     0.02331   0.34539   0.44791   0.00000  Uiso   1.00
H27    H     0.39851   0.40308   0.53188   0.00000  Uiso   1.00
H28    H     0.21577   0.08805   0.10820   0.00000  Uiso   1.00
H29    H     0.82557   0.34224   0.50854   0.00000  Uiso   1.00
H30    H     0.61675   0.46389   0.68561   0.00000  Uiso   1.00
H31    H     0.30658   0.05161   0.63491   0.00000  Uiso   1.00
H32    H     0.30745   0.94473   0.48630   0.00000  Uiso   1.00
H33    H     0.12239   0.06528   0.67614   0.00000  Uiso   1.00
H34    H     0.49758   0.12296   0.76011   0.00000  Uiso   1.00
H35    H     0.29618   0.86069   0.29345   0.00000  Uiso   1.00
H36    H     0.90598   0.11489   0.69378   0.00000  Uiso   1.00
H37    H     0.69717   0.23654   0.87086   0.00000  Uiso   1.00
O38    O     0.25481   0.90885   0.09915   0.00000  Uiso   1.00
O39    O     0.74291   0.24236   0.62439   0.00000  Uiso   1.00
O40    O     0.78092   0.40195   0.85670   0.00000  Uiso   1.00
N41    N     0.23459   0.04921   0.17220   0.00000  Uiso   1.00
N42    N     0.86978   0.28686   0.54648   0.00000  Uiso   1.00
N43    N     0.60945   0.40060   0.71204   0.00000  Uiso   1.00
N44    N     0.27787   0.92687   0.27188   0.00000  Uiso   1.00
N45    N     0.91305   0.16452   0.64615   0.00000  Uiso   1.00
N46    N     0.65272   0.27826   0.81172   0.00000  Uiso   1.00
C47    C     0.76582   0.75631   0.03189   0.00000  Uiso   1.00
C48    C     0.75511   0.66934   0.08908   0.00000  Uiso   1.00
C49    C     0.77023   0.66436   0.19269   0.00000  Uiso   1.00
C50    C     0.75672   0.57836   0.23043   0.00000  Uiso   1.00
C51    C     0.74435   0.45520   0.32893   0.00000  Uiso   1.00
C52    C     0.85568   0.73483   0.98594   0.00000  Uiso   1.00
C53    C     0.95533   0.78492   0.00282   0.00000  Uiso   1.00
C54    C     0.02646   0.75406   0.95373   0.00000  Uiso   1.00
C55    C     0.17018   0.73261   0.89204   0.00000  Uiso   1.00
C56    C     0.65182   0.76617   0.94032   0.00000  Uiso   1.00
C57    C     0.58007   0.84262   0.91883   0.00000  Uiso   1.00
C58    C     0.47958   0.83815   0.83131   0.00000  Uiso   1.00
C59    C     0.30677   0.86536   0.69880   0.00000  Uiso   1.00
C60    C     0.71494   0.61244   0.91466   0.00000  Uiso   1.00
C61    C     0.72748   0.59120   0.02540   0.00000  Uiso   1.00
C62    C     0.71393   0.50519   0.06300   0.00000  Uiso   1.00
C63    C     0.72902   0.50008   0.16665   0.00000  Uiso   1.00
C64    C     0.82804   0.65669   0.92227   0.00000  Uiso   1.00
C65    C     0.89903   0.62575   0.87313   0.00000  Uiso   1.00
C66    C     0.99878   0.67577   0.88994   0.00000  Uiso   1.00
C67    C     0.62417   0.68803   0.87665   0.00000  Uiso   1.00
C68    C     0.52378   0.68344   0.78914   0.00000  Uiso   1.00
C69    C     0.45189   0.75987   0.76752   0.00000  Uiso   1.00
H70    H     0.78734   0.81715   0.08146   0.00000  Uiso   1.00
H71    H     0.79163   0.72485   0.24194   0.00000  Uiso   1.00
H72    H     0.97669   0.84539   0.05209   0.00000  Uiso   1.00
H73    H     0.60149   0.90308   0.96812   0.00000  Uiso   1.00
H74    H     0.78423   0.58805   0.39180   0.00000  Uiso   1.00
H75    H     0.17443   0.84224   0.99146   0.00000  Uiso   1.00
H76    H     0.38325   0.96389   0.81439   0.00000  Uiso   1.00
H77    H     0.69342   0.55161   0.86509   0.00000  Uiso   1.00
H78    H     0.69255   0.44473   0.01370   0.00000  Uiso   1.00
H79    H     0.87761   0.56528   0.82386   0.00000  Uiso   1.00
H80    H     0.50242   0.62296   0.73989   0.00000  Uiso   1.00
H81    H     0.70382   0.36069   0.20655   0.00000  Uiso   1.00
H82    H     0.09402   0.61489   0.80622   0.00000  Uiso   1.00
H83    H     0.30283   0.73654   0.62914   0.00000  Uiso   1.00
O84    O     0.74519   0.40885   0.40085   0.00000  Uiso   1.00
O85    O     0.25709   0.74236   0.87561   0.00000  Uiso   1.00
O86    O     0.21908   0.90195   0.64330   0.00000  Uiso   1.00
N87    N     0.76541   0.54921   0.32780   0.00000  Uiso   1.00
N88    N     0.13022   0.78686   0.95352   0.00000  Uiso   1.00
N89    N     0.39055   0.90060   0.78796   0.00000  Uiso   1.00
N90    N     0.72213   0.42687   0.22812   0.00000  Uiso   1.00
N91    N     0.08695   0.66452   0.85385   0.00000  Uiso   1.00
N92    N     0.34728   0.77826   0.68828   0.00000  Uiso   1.00
C93    C     0.76582   0.74369   0.53189   0.00000  Uiso   1.00
C94    C     0.75511   0.83066   0.58908   0.00000  Uiso   1.00
C95    C     0.77023   0.83564   0.69269   0.00000  Uiso   1.00
C96    C     0.75672   0.92164   0.73043   0.00000  Uiso   1.00
C97    C     0.74435   0.04480   0.82893   0.00000  Uiso   1.00
C98    C     0.85568   0.76517   0.48594   0.00000  Uiso   1.00
C99    C     0.95533   0.71508   0.50282   0.00000  Uiso   1.00
C100   C     0.02646   0.74594   0.45373   0.00000  Uiso   1.00
C101   C     0.17018   0.76739   0.39204   0.00000  Uiso   1.00
C102   C     0.65182   0.73383   0.44032   0.00000  Uiso   1.00
C103   C     0.58007   0.65738   0.41883   0.00000  Uiso   1.00
C104   C     0.47958   0.66185   0.33131   0.00000  Uiso   1.00
C105   C     0.30677   0.63464   0.19880   0.00000  Uiso   1.00
C106   C     0.71494   0.88756   0.41466   0.00000  Uiso   1.00
C107   C     0.72748   0.90880   0.52540   0.00000  Uiso   1.00
C108   C     0.71393   0.99481   0.56300   0.00000  Uiso   1.00
C109   C     0.72902   0.99992   0.66665   0.00000  Uiso   1.00
C110   C     0.82804   0.84331   0.42227   0.00000  Uiso   1.00
C111   C     0.89903   0.87425   0.37313   0.00000  Uiso   1.00
C112   C     0.99878   0.82423   0.38994   0.00000  Uiso   1.00
C113   C     0.62417   0.81197   0.37665   0.00000  Uiso   1.00
C114   C     0.52378   0.81656   0.28914   0.00000  Uiso   1.00
C115   C     0.45189   0.74013   0.26752   0.00000  Uiso   1.00
H116   H     0.78734   0.68285   0.58146   0.00000  Uiso   1.00
H117   H     0.79163   0.77515   0.74194   0.00000  Uiso   1.00
H118   H     0.97669   0.65461   0.55209   0.00000  Uiso   1.00
H119   H     0.60149   0.59692   0.46812   0.00000  Uiso   1.00
H120   H     0.78423   0.91195   0.89180   0.00000  Uiso   1.00
H121   H     0.17443   0.65776   0.49146   0.00000  Uiso   1.00
H122   H     0.38325   0.53611   0.31439   0.00000  Uiso   1.00
H123   H     0.69342   0.94839   0.36509   0.00000  Uiso   1.00
H124   H     0.69255   0.05527   0.51370   0.00000  Uiso   1.00
H125   H     0.87761   0.93472   0.32386   0.00000  Uiso   1.00
H126   H     0.50242   0.87704   0.23989   0.00000  Uiso   1.00
H127   H     0.70382   0.13931   0.70655   0.00000  Uiso   1.00
H128   H     0.09402   0.88511   0.30622   0.00000  Uiso   1.00
H129   H     0.30283   0.76346   0.12914   0.00000  Uiso   1.00
O130   O     0.74519   0.09115   0.90085   0.00000  Uiso   1.00
O131   O     0.25709   0.75764   0.37561   0.00000  Uiso   1.00
O132   O     0.21908   0.59805   0.14330   0.00000  Uiso   1.00
N133   N     0.76541   0.95079   0.82780   0.00000  Uiso   1.00
N134   N     0.13022   0.71314   0.45352   0.00000  Uiso   1.00
N135   N     0.39055   0.59940   0.28796   0.00000  Uiso   1.00
N136   N     0.72213   0.07313   0.72812   0.00000  Uiso   1.00
N137   N     0.08695   0.83548   0.35385   0.00000  Uiso   1.00
N138   N     0.34728   0.72174   0.18828   0.00000  Uiso   1.00
C139   C     0.23418   0.24369   0.96811   0.00000  Uiso   1.00
C140   C     0.24489   0.33066   0.91092   0.00000  Uiso   1.00
C141   C     0.22977   0.33564   0.80731   0.00000  Uiso   1.00
C142   C     0.24328   0.42164   0.76957   0.00000  Uiso   1.00
C143   C     0.25565   0.54480   0.67107   0.00000  Uiso   1.00
C144   C     0.14432   0.26517   0.01406   0.00000  Uiso   1.00
C145   C     0.04467   0.21508   0.99718   0.00000  Uiso   1.00
C146   C     0.97354   0.24594   0.04627   0.00000  Uiso   1.00
C147   C     0.82982   0.26739   0.10796   0.00000  Uiso   1.00
C148   C     0.34818   0.23383   0.05968   0.00000  Uiso   1.00
C149   C     0.41993   0.15738   0.08117   0.00000  Uiso   1.00
C150   C     0.52042   0.16185   0.16869   0.00000  Uiso   1.00
C151   C     0.69323   0.13464   0.30120   0.00000  Uiso   1.00
C152   C     0.28506   0.38756   0.08534   0.00000  Uiso   1.00
C153   C     0.27252   0.40880   0.97460   0.00000  Uiso   1.00
C154   C     0.28607   0.49481   0.93700   0.00000  Uiso   1.00
C155   C     0.27098   0.49992   0.83335   0.00000  Uiso   1.00
C156   C     0.17196   0.34331   0.07773   0.00000  Uiso   1.00
C157   C     0.10097   0.37425   0.12687   0.00000  Uiso   1.00
C158   C     0.00122   0.32423   0.11006   0.00000  Uiso   1.00
C159   C     0.37583   0.31197   0.12335   0.00000  Uiso   1.00
C160   C     0.47622   0.31656   0.21086   0.00000  Uiso   1.00
C161   C     0.54811   0.24013   0.23248   0.00000  Uiso   1.00
H162   H     0.21266   0.18285   0.91854   0.00000  Uiso   1.00
H163   H     0.20837   0.27515   0.75806   0.00000  Uiso   1.00
H164   H     0.02331   0.15461   0.94791   0.00000  Uiso   1.00
H165   H     0.39851   0.09692   0.03188   0.00000  Uiso   1.00
H166   H     0.21577   0.41195   0.60820   0.00000  Uiso   1.00
H167   H     0.82557   0.15776   0.00854   0.00000  Uiso   1.00
H168   H     0.61675   0.03611   0.18561   0.00000  Uiso   1.00
H169   H     0.30658   0.44839   0.13491   0.00000  Uiso   1.00
H170   H     0.30745   0.55527   0.98630   0.00000  Uiso   1.00
H171   H     0.12239   0.43472   0.17614   0.00000  Uiso   1.00
H172   H     0.49758   0.37704   0.26011   0.00000  Uiso   1.00
H173   H     0.29618   0.63931   0.79345   0.00000  Uiso   1.00
H174   H     0.90598   0.38511   0.19378   0.00000  Uiso   1.00
H175   H     0.69717   0.26346   0.37086   0.00000  Uiso   1.00
O176   O     0.25481   0.59115   0.59915   0.00000  Uiso   1.00
O177   O     0.74291   0.25764   0.12439   0.00000  Uiso   1.00
O178   O     0.78092   0.09805   0.35670   0.00000  Uiso   1.00
N179   N     0.23459   0.45079   0.67220   0.00000  Uiso   1.00
N180   N     0.86978   0.21314   0.04648   0.00000  Uiso   1.00
N181   N     0.60945   0.09940   0.21204   0.00000  Uiso   1.00
N182   N     0.27787   0.57313   0.77188   0.00000  Uiso   1.00
N183   N     0.91305   0.33548   0.14615   0.00000  Uiso   1.00
N184   N     0.65272   0.22174   0.31172   0.00000  Uiso   1.00
