data_job_06161
_audit_creation_date              2018-12-19
_audit_creation_method            'Materials Studio'
_symmetry_space_group_name_H-M    'P1'
_symmetry_Int_Tables_number       1
_symmetry_cell_setting            triclinic
loop_
_symmetry_equiv_pos_as_xyz
  x,y,z
_cell_length_a                    16.1656
_cell_length_b                    15.0717
_cell_length_c                    14.7356
_cell_angle_alpha                 94.1966
_cell_angle_beta                  92.8562
_cell_angle_gamma                 93.4555
loop_
_atom_site_label
_atom_site_type_symbol
_atom_site_fract_x
_atom_site_fract_y
_atom_site_fract_z
_atom_site_U_iso_or_equiv
_atom_site_adp_type
_atom_site_occupancy
C1     C     0.79838   0.37953   0.41204   0.00000  Uiso   1.00
C2     C     0.83690   0.46469   0.37748   0.00000  Uiso   1.00
C3     C     0.85235   0.54576   0.42827   0.00000  Uiso   1.00
C4     C     0.88794   0.61568   0.38420   0.00000  Uiso   1.00
C5     C     0.94476   0.74958   0.34447   0.00000  Uiso   1.00
C6     C     0.72251   0.35175   0.34837   0.00000  Uiso   1.00
C7     C     0.64179   0.33785   0.37469   0.00000  Uiso   1.00
C8     C     0.58109   0.31269   0.30612   0.00000  Uiso   1.00
C9     C     0.46034   0.27118   0.22120   0.00000  Uiso   1.00
C10    C     0.86019   0.30846   0.39474   0.00000  Uiso   1.00
C11    C     0.89523   0.25814   0.46003   0.00000  Uiso   1.00
C12    C     0.95044   0.19652   0.43049   0.00000  Uiso   1.00
C13    C     0.04346   0.08780   0.41755   0.00000  Uiso   1.00
C14    C     0.83409   0.35957   0.24348   0.00000  Uiso   1.00
C15    C     0.85629   0.45385   0.28593   0.00000  Uiso   1.00
C16    C     0.89187   0.52367   0.24178   0.00000  Uiso   1.00
C17    C     0.90738   0.60482   0.29249   0.00000  Uiso   1.00
C18    C     0.74190   0.34091   0.25682   0.00000  Uiso   1.00
C19    C     0.68131   0.31576   0.18820   0.00000  Uiso   1.00
C20    C     0.60053   0.30183   0.21441   0.00000  Uiso   1.00
C21    C     0.87960   0.29762   0.30318   0.00000  Uiso   1.00
C22    C     0.93475   0.23606   0.27354   0.00000  Uiso   1.00
C23    C     0.96987   0.18566   0.33877   0.00000  Uiso   1.00
H24    H     0.78327   0.38797   0.48331   0.00000  Uiso   1.00
H25    H     0.83732   0.55412   0.49911   0.00000  Uiso   1.00
H26    H     0.62680   0.34623   0.44555   0.00000  Uiso   1.00
H27    H     0.88020   0.26655   0.53087   0.00000  Uiso   1.00
H28    H     0.90578   0.73356   0.47625   0.00000  Uiso   1.00
H29    H     0.46189   0.29519   0.36330   0.00000  Uiso   1.00
H30    H     0.99623   0.12715   0.54322   0.00000  Uiso   1.00
H31    H     0.84919   0.35112   0.17220   0.00000  Uiso   1.00
H32    H     0.90687   0.51526   0.17093   0.00000  Uiso   1.00
H33    H     0.69635   0.30737   0.11736   0.00000  Uiso   1.00
H34    H     0.94975   0.22769   0.20268   0.00000  Uiso   1.00
H35    H     0.96223   0.70202   0.20988   0.00000  Uiso   1.00
H36    H     0.51833   0.26365   0.09693   0.00000  Uiso   1.00
H37    H     0.05268   0.09561   0.27685   0.00000  Uiso   1.00
O38    O     0.97073   0.82644   0.34784   0.00000  Uiso   1.00
O39    O     0.38837   0.25130   0.19966   0.00000  Uiso   1.00
O40    O     0.08941   0.03084   0.43571   0.00000  Uiso   1.00
N41    N     0.91117   0.70361   0.41374   0.00000  Uiso   1.00
N42    N     0.49615   0.29377   0.30814   0.00000  Uiso   1.00
N43    N     0.99570   0.13665   0.47635   0.00000  Uiso   1.00
N44    N     0.94154   0.68664   0.27041   0.00000  Uiso   1.00
N45    N     0.52652   0.27680   0.16481   0.00000  Uiso   1.00
N46    N     0.02607   0.11968   0.33302   0.00000  Uiso   1.00
C47    C     0.40108   0.79761   0.37844   0.00000  Uiso   1.00
C48    C     0.37076   0.83956   0.46706   0.00000  Uiso   1.00
C49    C     0.41741   0.85535   0.54891   0.00000  Uiso   1.00
C50    C     0.37835   0.89429   0.62215   0.00000  Uiso   1.00
C51    C     0.34385   0.95598   0.76104   0.00000  Uiso   1.00
C52    C     0.34120   0.71708   0.35046   0.00000  Uiso   1.00
C53    C     0.36301   0.62990   0.33427   0.00000  Uiso   1.00
C54    C     0.29908   0.56575   0.30933   0.00000  Uiso   1.00
C55    C     0.21870   0.43731   0.26714   0.00000  Uiso   1.00
C56    C     0.38688   0.86435   0.30719   0.00000  Uiso   1.00
C57    C     0.44710   0.90098   0.25459   0.00000  Uiso   1.00
C58    C     0.42161   0.96081   0.19321   0.00000  Uiso   1.00
C59    C     0.41216   0.06102   0.08383   0.00000  Uiso   1.00
C60    C     0.24875   0.83870   0.36295   0.00000  Uiso   1.00
C61    C     0.28802   0.86187   0.45864   0.00000  Uiso   1.00
C62    C     0.24888   0.90081   0.53177   0.00000  Uiso   1.00
C63    C     0.29547   0.91666   0.61372   0.00000  Uiso   1.00
C64    C     0.25847   0.73940   0.34205   0.00000  Uiso   1.00
C65    C     0.19449   0.67536   0.31712   0.00000  Uiso   1.00
C66    C     0.21619   0.58810   0.30090   0.00000  Uiso   1.00
C67    C     0.30415   0.88667   0.29877   0.00000  Uiso   1.00
C68    C     0.27857   0.94645   0.23745   0.00000  Uiso   1.00
C69    C     0.33873   0.98316   0.18477   0.00000  Uiso   1.00
H70    H     0.46549   0.78023   0.38499   0.00000  Uiso   1.00
H71    H     0.48144   0.83806   0.55540   0.00000  Uiso   1.00
H72    H     0.42705   0.61265   0.34078   0.00000  Uiso   1.00
H73    H     0.51111   0.88369   0.26112   0.00000  Uiso   1.00
H74    H     0.46262   0.91198   0.74063   0.00000  Uiso   1.00
H75    H     0.34794   0.43670   0.28805   0.00000  Uiso   1.00
H76    H     0.52521   0.00825   0.12007   0.00000  Uiso   1.00
H77    H     0.18434   0.85608   0.35639   0.00000  Uiso   1.00
H78    H     0.18485   0.91807   0.52524   0.00000  Uiso   1.00
H79    H     0.13047   0.69266   0.31062   0.00000  Uiso   1.00
H80    H     0.21453   0.96370   0.23096   0.00000  Uiso   1.00
H81    H     0.22190   0.97692   0.71615   0.00000  Uiso   1.00
H82    H     0.10722   0.50164   0.26357   0.00000  Uiso   1.00
H83    H     0.28450   0.07318   0.09559   0.00000  Uiso   1.00
O84    O     0.34767   0.98383   0.83998   0.00000  Uiso   1.00
O85    O     0.19722   0.36029   0.24620   0.00000  Uiso   1.00
O86    O     0.42980   0.11015   0.02583   0.00000  Uiso   1.00
N87    N     0.40590   0.91877   0.71169   0.00000  Uiso   1.00
N88    N     0.29868   0.47441   0.28857   0.00000  Uiso   1.00
N89    N     0.46441   0.00874   0.13151   0.00000  Uiso   1.00
N90    N     0.27637   0.95372   0.69852   0.00000  Uiso   1.00
N91    N     0.16915   0.50935   0.27540   0.00000  Uiso   1.00
N92    N     0.33489   0.04368   0.11834   0.00000  Uiso   1.00
C93    C     0.37164   0.40731   0.79674   0.00000  Uiso   1.00
C94    C     0.45146   0.37329   0.83687   0.00000  Uiso   1.00
C95    C     0.52710   0.42213   0.85166   0.00000  Uiso   1.00
C96    C     0.59270   0.37897   0.88898   0.00000  Uiso   1.00
C97    C     0.71813   0.33965   0.94794   0.00000  Uiso   1.00
C98    C     0.34457   0.34341   0.71414   0.00000  Uiso   1.00
C99    C     0.33032   0.36713   0.62573   0.00000  Uiso   1.00
C100   C     0.30592   0.29881   0.55973   0.00000  Uiso   1.00
C101   C     0.26534   0.21310   0.42816   0.00000  Uiso   1.00
C102   C     0.30657   0.39318   0.86662   0.00000  Uiso   1.00
C103   C     0.26035   0.45874   0.90641   0.00000  Uiso   1.00
C104   C     0.20395   0.43231   0.96878   0.00000  Uiso   1.00
C105   C     0.10438   0.42388   0.07396   0.00000  Uiso   1.00
C106   C     0.35364   0.24381   0.83674   0.00000  Uiso   1.00
C107   C     0.44168   0.28448   0.85859   0.00000  Uiso   1.00
C108   C     0.50718   0.24124   0.89590   0.00000  Uiso   1.00
C109   C     0.58290   0.29001   0.91074   0.00000  Uiso   1.00
C110   C     0.33479   0.25460   0.73586   0.00000  Uiso   1.00
C111   C     0.31040   0.18623   0.66998   0.00000  Uiso   1.00
C112   C     0.29613   0.20984   0.58149   0.00000  Uiso   1.00
C113   C     0.29679   0.30437   0.88835   0.00000  Uiso   1.00
C114   C     0.24044   0.27784   0.95066   0.00000  Uiso   1.00
C115   C     0.19416   0.34335   0.99054   0.00000  Uiso   1.00
H116   H     0.37925   0.47644   0.77983   0.00000  Uiso   1.00
H117   H     0.53464   0.49085   0.83483   0.00000  Uiso   1.00
H118   H     0.33788   0.43586   0.60894   0.00000  Uiso   1.00
H119   H     0.26794   0.52745   0.88958   0.00000  Uiso   1.00
H120   H     0.70261   0.46765   0.90536   0.00000  Uiso   1.00
H121   H     0.28771   0.35170   0.42907   0.00000  Uiso   1.00
H122   H     0.14021   0.54484   0.02085   0.00000  Uiso   1.00
H123   H     0.34603   0.17466   0.85365   0.00000  Uiso   1.00
H124   H     0.49960   0.17251   0.91271   0.00000  Uiso   1.00
H125   H     0.30284   0.11752   0.68681   0.00000  Uiso   1.00
H126   H     0.23289   0.20911   0.96745   0.00000  Uiso   1.00
H127   H     0.67417   0.20928   0.96856   0.00000  Uiso   1.00
H128   H     0.25926   0.09332   0.49227   0.00000  Uiso   1.00
H129   H     0.11177   0.28646   0.08405   0.00000  Uiso   1.00
O130   O     0.79002   0.34248   0.97445   0.00000  Uiso   1.00
O131   O     0.24567   0.19036   0.34958   0.00000  Uiso   1.00
O132   O     0.05216   0.44376   0.12598   0.00000  Uiso   1.00
N133   N     0.67484   0.40715   0.91215   0.00000  Uiso   1.00
N134   N     0.28694   0.29873   0.46684   0.00000  Uiso   1.00
N135   N     0.14903   0.47930   0.02009   0.00000  Uiso   1.00
N136   N     0.65954   0.26811   0.94616   0.00000  Uiso   1.00
N137   N     0.27164   0.15970   0.50085   0.00000  Uiso   1.00
N138   N     0.13373   0.34027   0.05409   0.00000  Uiso   1.00
C139   C     0.20162   0.62047   0.58796   0.00000  Uiso   1.00
C140   C     0.16310   0.53531   0.62252   0.00000  Uiso   1.00
C141   C     0.14765   0.45424   0.57173   0.00000  Uiso   1.00
C142   C     0.11206   0.38432   0.61580   0.00000  Uiso   1.00
C143   C     0.05524   0.25042   0.65553   0.00000  Uiso   1.00
C144   C     0.27749   0.64825   0.65163   0.00000  Uiso   1.00
C145   C     0.35821   0.66215   0.62531   0.00000  Uiso   1.00
C146   C     0.41891   0.68731   0.69388   0.00000  Uiso   1.00
C147   C     0.53966   0.72882   0.77880   0.00000  Uiso   1.00
C148   C     0.13981   0.69154   0.60526   0.00000  Uiso   1.00
C149   C     0.10477   0.74186   0.53997   0.00000  Uiso   1.00
C150   C     0.04956   0.80348   0.56951   0.00000  Uiso   1.00
C151   C     0.95655   0.91220   0.58245   0.00000  Uiso   1.00
C152   C     0.16591   0.64043   0.75652   0.00000  Uiso   1.00
C153   C     0.14371   0.54615   0.71407   0.00000  Uiso   1.00
C154   C     0.10813   0.47633   0.75822   0.00000  Uiso   1.00
C155   C     0.09262   0.39518   0.70751   0.00000  Uiso   1.00
C156   C     0.25810   0.65909   0.74318   0.00000  Uiso   1.00
C157   C     0.31869   0.68424   0.81180   0.00000  Uiso   1.00
C158   C     0.39947   0.69817   0.78559   0.00000  Uiso   1.00
C159   C     0.12040   0.70238   0.69682   0.00000  Uiso   1.00
C160   C     0.06525   0.76394   0.72646   0.00000  Uiso   1.00
C161   C     0.03013   0.81434   0.66123   0.00000  Uiso   1.00
H162   H     0.21673   0.61203   0.51669   0.00000  Uiso   1.00
H163   H     0.16268   0.44588   0.50089   0.00000  Uiso   1.00
H164   H     0.37320   0.65377   0.55445   0.00000  Uiso   1.00
H165   H     0.11980   0.73345   0.46913   0.00000  Uiso   1.00
H166   H     0.09422   0.26644   0.52375   0.00000  Uiso   1.00
H167   H     0.53811   0.70481   0.63670   0.00000  Uiso   1.00
H168   H     0.00377   0.87285   0.45678   0.00000  Uiso   1.00
H169   H     0.15081   0.64888   0.82780   0.00000  Uiso   1.00
H170   H     0.09313   0.48474   0.82907   0.00000  Uiso   1.00
H171   H     0.30365   0.69263   0.88264   0.00000  Uiso   1.00
H172   H     0.05025   0.77231   0.79732   0.00000  Uiso   1.00
H173   H     0.03777   0.29798   0.79012   0.00000  Uiso   1.00
H174   H     0.48167   0.73635   0.90307   0.00000  Uiso   1.00
H175   H     0.94732   0.90439   0.72315   0.00000  Uiso   1.00
O176   O     0.02927   0.17356   0.65216   0.00000  Uiso   1.00
O177   O     0.61163   0.74870   0.80034   0.00000  Uiso   1.00
O178   O     0.91059   0.96916   0.56429   0.00000  Uiso   1.00
N179   N     0.08883   0.29639   0.58626   0.00000  Uiso   1.00
N180   N     0.50385   0.70623   0.69186   0.00000  Uiso   1.00
N181   N     0.00430   0.86335   0.52365   0.00000  Uiso   1.00
N182   N     0.05846   0.31336   0.72959   0.00000  Uiso   1.00
N183   N     0.47348   0.72320   0.83519   0.00000  Uiso   1.00
N184   N     0.97393   0.88032   0.66699   0.00000  Uiso   1.00
C185   C     0.59892   0.20239   0.62156   0.00000  Uiso   1.00
C186   C     0.62924   0.16044   0.53294   0.00000  Uiso   1.00
C187   C     0.58259   0.14465   0.45109   0.00000  Uiso   1.00
C188   C     0.62165   0.10571   0.37785   0.00000  Uiso   1.00
C189   C     0.65615   0.04402   0.23896   0.00000  Uiso   1.00
C190   C     0.65880   0.28292   0.64954   0.00000  Uiso   1.00
C191   C     0.63699   0.37010   0.66573   0.00000  Uiso   1.00
C192   C     0.70092   0.43425   0.69067   0.00000  Uiso   1.00
C193   C     0.78130   0.56269   0.73286   0.00000  Uiso   1.00
C194   C     0.61312   0.13565   0.69281   0.00000  Uiso   1.00
C195   C     0.55290   0.09902   0.74541   0.00000  Uiso   1.00
C196   C     0.57839   0.03919   0.80679   0.00000  Uiso   1.00
C197   C     0.58784   0.93898   0.91617   0.00000  Uiso   1.00
C198   C     0.75125   0.16130   0.63705   0.00000  Uiso   1.00
C199   C     0.71198   0.13813   0.54136   0.00000  Uiso   1.00
C200   C     0.75112   0.09919   0.46823   0.00000  Uiso   1.00
C201   C     0.70453   0.08334   0.38628   0.00000  Uiso   1.00
C202   C     0.74153   0.26060   0.65795   0.00000  Uiso   1.00
C203   C     0.80552   0.32464   0.68288   0.00000  Uiso   1.00
C204   C     0.78381   0.41190   0.69910   0.00000  Uiso   1.00
C205   C     0.69585   0.11333   0.70123   0.00000  Uiso   1.00
C206   C     0.72143   0.05355   0.76255   0.00000  Uiso   1.00
C207   C     0.66127   0.01684   0.81523   0.00000  Uiso   1.00
H208   H     0.53451   0.21977   0.61501   0.00000  Uiso   1.00
H209   H     0.51857   0.16194   0.44460   0.00000  Uiso   1.00
H210   H     0.57295   0.38735   0.65922   0.00000  Uiso   1.00
H211   H     0.48889   0.11631   0.73888   0.00000  Uiso   1.00
H212   H     0.53738   0.08802   0.25937   0.00000  Uiso   1.00
H213   H     0.65206   0.56330   0.71195   0.00000  Uiso   1.00
H214   H     0.47479   0.99175   0.87993   0.00000  Uiso   1.00
H215   H     0.81566   0.14392   0.64361   0.00000  Uiso   1.00
H216   H     0.81515   0.08193   0.47476   0.00000  Uiso   1.00
H217   H     0.86953   0.30734   0.68939   0.00000  Uiso   1.00
H218   H     0.78547   0.03630   0.76904   0.00000  Uiso   1.00
H219   H     0.77810   0.02308   0.28385   0.00000  Uiso   1.00
H220   H     0.89278   0.49836   0.73643   0.00000  Uiso   1.00
H221   H     0.71550   0.92682   0.90441   0.00000  Uiso   1.00
O222   O     0.65234   0.01617   0.16002   0.00000  Uiso   1.00
O223   O     0.80278   0.63971   0.75380   0.00000  Uiso   1.00
O224   O     0.57020   0.88985   0.97417   0.00000  Uiso   1.00
N225   N     0.59410   0.08123   0.28831   0.00000  Uiso   1.00
N226   N     0.70132   0.52559   0.71143   0.00000  Uiso   1.00
N227   N     0.53559   0.99126   0.86849   0.00000  Uiso   1.00
N228   N     0.72363   0.04628   0.30148   0.00000  Uiso   1.00
N229   N     0.83085   0.49065   0.72460   0.00000  Uiso   1.00
N230   N     0.66511   0.95632   0.88166   0.00000  Uiso   1.00
C231   C     0.62836   0.59269   0.20326   0.00000  Uiso   1.00
C232   C     0.54854   0.62671   0.16313   0.00000  Uiso   1.00
C233   C     0.47290   0.57787   0.14834   0.00000  Uiso   1.00
C234   C     0.40730   0.62103   0.11102   0.00000  Uiso   1.00
C235   C     0.28187   0.66035   0.05206   0.00000  Uiso   1.00
C236   C     0.65543   0.65659   0.28586   0.00000  Uiso   1.00
C237   C     0.66968   0.63287   0.37427   0.00000  Uiso   1.00
C238   C     0.69408   0.70119   0.44027   0.00000  Uiso   1.00
C239   C     0.73466   0.78690   0.57184   0.00000  Uiso   1.00
C240   C     0.69343   0.60682   0.13338   0.00000  Uiso   1.00
C241   C     0.73965   0.54126   0.09359   0.00000  Uiso   1.00
C242   C     0.79605   0.56769   0.03122   0.00000  Uiso   1.00
C243   C     0.89562   0.57612   0.92604   0.00000  Uiso   1.00
C244   C     0.64636   0.75619   0.16326   0.00000  Uiso   1.00
C245   C     0.55832   0.71552   0.14141   0.00000  Uiso   1.00
C246   C     0.49282   0.75876   0.10410   0.00000  Uiso   1.00
C247   C     0.41710   0.70999   0.08926   0.00000  Uiso   1.00
C248   C     0.66521   0.74540   0.26414   0.00000  Uiso   1.00
C249   C     0.68960   0.81377   0.33002   0.00000  Uiso   1.00
C250   C     0.70387   0.79016   0.41851   0.00000  Uiso   1.00
C251   C     0.70321   0.69563   0.11165   0.00000  Uiso   1.00
C252   C     0.75956   0.72216   0.04934   0.00000  Uiso   1.00
C253   C     0.80584   0.65665   0.00946   0.00000  Uiso   1.00
H254   H     0.62075   0.52356   0.22017   0.00000  Uiso   1.00
H255   H     0.46536   0.50915   0.16517   0.00000  Uiso   1.00
H256   H     0.66212   0.56414   0.39106   0.00000  Uiso   1.00
H257   H     0.73206   0.47255   0.11042   0.00000  Uiso   1.00
H258   H     0.29739   0.53235   0.09464   0.00000  Uiso   1.00
H259   H     0.71229   0.64830   0.57093   0.00000  Uiso   1.00
H260   H     0.85979   0.45516   0.97915   0.00000  Uiso   1.00
H261   H     0.65397   0.82534   0.14635   0.00000  Uiso   1.00
H262   H     0.50040   0.82749   0.08729   0.00000  Uiso   1.00
H263   H     0.69716   0.88248   0.31319   0.00000  Uiso   1.00
H264   H     0.76711   0.79089   0.03255   0.00000  Uiso   1.00
H265   H     0.32583   0.79072   0.03144   0.00000  Uiso   1.00
H266   H     0.74074   0.90668   0.50773   0.00000  Uiso   1.00
H267   H     0.88823   0.71354   0.91595   0.00000  Uiso   1.00
O268   O     0.20998   0.65752   0.02555   0.00000  Uiso   1.00
O269   O     0.75433   0.80964   0.65042   0.00000  Uiso   1.00
O270   O     0.94784   0.55624   0.87402   0.00000  Uiso   1.00
N271   N     0.32516   0.59285   0.08785   0.00000  Uiso   1.00
N272   N     0.71306   0.70127   0.53316   0.00000  Uiso   1.00
N273   N     0.85097   0.52070   0.97991   0.00000  Uiso   1.00
N274   N     0.34046   0.73189   0.05384   0.00000  Uiso   1.00
N275   N     0.72836   0.84030   0.49915   0.00000  Uiso   1.00
N276   N     0.86627   0.65973   0.94591   0.00000  Uiso   1.00
