data_job_03851
_audit_creation_date              2018-12-19
_audit_creation_method            'Materials Studio'
_symmetry_space_group_name_H-M    'P1'
_symmetry_Int_Tables_number       1
_symmetry_cell_setting            triclinic
loop_
_symmetry_equiv_pos_as_xyz
  x,y,z
_cell_length_a                    20.1983
_cell_length_b                    20.1983
_cell_length_c                    12.6079
_cell_angle_alpha                 90.0000
_cell_angle_beta                  90.0000
_cell_angle_gamma                 120.0000
loop_
_atom_site_label
_atom_site_type_symbol
_atom_site_fract_x
_atom_site_fract_y
_atom_site_fract_z
_atom_site_U_iso_or_equiv
_atom_site_adp_type
_atom_site_occupancy
C1     C     0.13660   0.42097   0.01062   0.00000  Uiso   1.00
C2     C     0.05141   0.39438   0.01090   0.00000  Uiso   1.00
C3     C     0.01900   0.43828   0.98220   0.00000  Uiso   1.00
C4     C     0.93992   0.40348   0.98788   0.00000  Uiso   1.00
C5     C     0.81448   0.37375   0.98332   0.00000  Uiso   1.00
C6     C     0.15574   0.40781   0.12286   0.00000  Uiso   1.00
C7     C     0.21106   0.46300   0.18829   0.00000  Uiso   1.00
C8     C     0.21982   0.43950   0.28821   0.00000  Uiso   1.00
C9     C     0.25640   0.43061   0.45744   0.00000  Uiso   1.00
C10    C     0.14591   0.36488   0.93999   0.00000  Uiso   1.00
C11    C     0.19299   0.38397   0.85167   0.00000  Uiso   1.00
C12    C     0.19349   0.32432   0.79764   0.00000  Uiso   1.00
C13    C     0.21481   0.24877   0.68294   0.00000  Uiso   1.00
C14    C     0.05379   0.28110   0.07173   0.00000  Uiso   1.00
C15    C     0.00643   0.31841   0.04410   0.00000  Uiso   1.00
C16    C     0.92738   0.28353   0.04982   0.00000  Uiso   1.00
C17    C     0.89486   0.32736   0.02113   0.00000  Uiso   1.00
C18    C     0.11076   0.33184   0.15606   0.00000  Uiso   1.00
C19    C     0.11944   0.30825   0.25590   0.00000  Uiso   1.00
C20    C     0.17476   0.36339   0.32147   0.00000  Uiso   1.00
C21    C     0.10093   0.28890   0.97318   0.00000  Uiso   1.00
C22    C     0.10137   0.22921   0.91929   0.00000  Uiso   1.00
C23    C     0.14843   0.24821   0.83090   0.00000  Uiso   1.00
H24    H     0.17162   0.48012   0.98478   0.00000  Uiso   1.00
H25    H     0.05383   0.49708   0.95653   0.00000  Uiso   1.00
H26    H     0.24587   0.52179   0.16257   0.00000  Uiso   1.00
H27    H     0.22779   0.44276   0.82601   0.00000  Uiso   1.00
H28    H     0.90340   0.48237   0.93988   0.00000  Uiso   1.00
H29    H     0.30834   0.53448   0.37433   0.00000  Uiso   1.00
H30    H     0.27023   0.36784   0.66461   0.00000  Uiso   1.00
H31    H     0.01878   0.22195   0.09758   0.00000  Uiso   1.00
H32    H     0.89259   0.22473   0.07551   0.00000  Uiso   1.00
H33    H     0.08463   0.24945   0.28156   0.00000  Uiso   1.00
H34    H     0.06655   0.17043   0.94500   0.00000  Uiso   1.00
H35    H     0.77253   0.26133   0.03646   0.00000  Uiso   1.00
H36    H     0.17748   0.31344   0.47090   0.00000  Uiso   1.00
H37    H     0.13936   0.14680   0.76119   0.00000  Uiso   1.00
O38    O     0.75772   0.37835   0.97165   0.00000  Uiso   1.00
O39    O     0.28899   0.44671   0.54161   0.00000  Uiso   1.00
O40    O     0.23898   0.22809   0.61049   0.00000  Uiso   1.00
N41    N     0.88991   0.42996   0.96562   0.00000  Uiso   1.00
N42    N     0.26850   0.47868   0.37180   0.00000  Uiso   1.00
N43    N     0.23288   0.32290   0.70830   0.00000  Uiso   1.00
N44    N     0.81950   0.31102   0.01758   0.00000  Uiso   1.00
N45    N     0.19808   0.35974   0.42377   0.00000  Uiso   1.00
N46    N     0.16246   0.20395   0.76026   0.00000  Uiso   1.00
C47    C     0.57903   0.71563   0.67729   0.00000  Uiso   1.00
C48    C     0.60562   0.65703   0.67757   0.00000  Uiso   1.00
C49    C     0.56172   0.58072   0.64887   0.00000  Uiso   1.00
C50    C     0.59652   0.53645   0.65455   0.00000  Uiso   1.00
C51    C     0.62625   0.44073   0.64999   0.00000  Uiso   1.00
C52    C     0.59219   0.74793   0.78953   0.00000  Uiso   1.00
C53    C     0.53700   0.74806   0.85495   0.00000  Uiso   1.00
C54    C     0.56050   0.78032   0.95488   0.00000  Uiso   1.00
C55    C     0.56939   0.82578   0.12410   0.00000  Uiso   1.00
C56    C     0.63512   0.78104   0.60666   0.00000  Uiso   1.00
C57    C     0.61603   0.80903   0.51834   0.00000  Uiso   1.00
C58    C     0.67568   0.86917   0.46431   0.00000  Uiso   1.00
C59    C     0.75123   0.96604   0.34960   0.00000  Uiso   1.00
C60    C     0.71890   0.77269   0.73840   0.00000  Uiso   1.00
C61    C     0.68159   0.68802   0.71076   0.00000  Uiso   1.00
C62    C     0.71647   0.64386   0.71648   0.00000  Uiso   1.00
C63    C     0.67264   0.56750   0.68780   0.00000  Uiso   1.00
C64    C     0.66816   0.77892   0.82272   0.00000  Uiso   1.00
C65    C     0.69175   0.81120   0.92257   0.00000  Uiso   1.00
C66    C     0.63661   0.81137   0.98813   0.00000  Uiso   1.00
C67    C     0.71110   0.81203   0.63985   0.00000  Uiso   1.00
C68    C     0.77079   0.87215   0.58595   0.00000  Uiso   1.00
C69    C     0.75179   0.90022   0.49757   0.00000  Uiso   1.00
H70    H     0.51988   0.69150   0.65145   0.00000  Uiso   1.00
H71    H     0.50292   0.55675   0.62320   0.00000  Uiso   1.00
H72    H     0.47821   0.72408   0.82924   0.00000  Uiso   1.00
H73    H     0.55724   0.78503   0.49268   0.00000  Uiso   1.00
H74    H     0.51763   0.42103   0.60655   0.00000  Uiso   1.00
H75    H     0.46552   0.77386   0.04099   0.00000  Uiso   1.00
H76    H     0.63216   0.90238   0.33128   0.00000  Uiso   1.00
H77    H     0.77805   0.79683   0.76425   0.00000  Uiso   1.00
H78    H     0.77527   0.66786   0.74218   0.00000  Uiso   1.00
H79    H     0.75055   0.83518   0.94823   0.00000  Uiso   1.00
H80    H     0.82957   0.89613   0.61166   0.00000  Uiso   1.00
H81    H     0.73867   0.51120   0.70312   0.00000  Uiso   1.00
H82    H     0.68656   0.86404   0.13757   0.00000  Uiso   1.00
H83    H     0.85320   0.99255   0.42786   0.00000  Uiso   1.00
O84    O     0.62165   0.37937   0.63832   0.00000  Uiso   1.00
O85    O     0.55329   0.84229   0.20828   0.00000  Uiso   1.00
O86    O     0.77191   0.01089   0.27716   0.00000  Uiso   1.00
N87    N     0.57004   0.45995   0.63228   0.00000  Uiso   1.00
N88    N     0.52132   0.78982   0.03847   0.00000  Uiso   1.00
N89    N     0.67710   0.90999   0.37497   0.00000  Uiso   1.00
N90    N     0.68898   0.50847   0.68425   0.00000  Uiso   1.00
N91    N     0.64026   0.83834   0.09044   0.00000  Uiso   1.00
N92    N     0.79605   0.95851   0.42693   0.00000  Uiso   1.00
C93    C     0.28437   0.86340   0.34395   0.00000  Uiso   1.00
C94    C     0.34297   0.94859   0.34423   0.00000  Uiso   1.00
C95    C     0.41928   0.98100   0.31554   0.00000  Uiso   1.00
C96    C     0.46355   0.06008   0.32122   0.00000  Uiso   1.00
C97    C     0.55927   0.18552   0.31666   0.00000  Uiso   1.00
C98    C     0.25207   0.84426   0.45619   0.00000  Uiso   1.00
C99    C     0.25194   0.78894   0.52162   0.00000  Uiso   1.00
C100   C     0.21968   0.78018   0.62154   0.00000  Uiso   1.00
C101   C     0.17422   0.74360   0.79077   0.00000  Uiso   1.00
C102   C     0.21896   0.85409   0.27332   0.00000  Uiso   1.00
C103   C     0.19097   0.80701   0.18501   0.00000  Uiso   1.00
C104   C     0.13083   0.80651   0.13098   0.00000  Uiso   1.00
C105   C     0.03396   0.78519   0.01627   0.00000  Uiso   1.00
C106   C     0.22731   0.94621   0.40507   0.00000  Uiso   1.00
C107   C     0.31198   0.99357   0.37743   0.00000  Uiso   1.00
C108   C     0.35614   0.07262   0.38315   0.00000  Uiso   1.00
C109   C     0.43250   0.10514   0.35447   0.00000  Uiso   1.00
C110   C     0.22108   0.88924   0.48939   0.00000  Uiso   1.00
C111   C     0.18880   0.88056   0.58924   0.00000  Uiso   1.00
C112   C     0.18863   0.82524   0.65480   0.00000  Uiso   1.00
C113   C     0.18797   0.89907   0.30651   0.00000  Uiso   1.00
C114   C     0.12785   0.89863   0.25262   0.00000  Uiso   1.00
C115   C     0.09978   0.85157   0.16423   0.00000  Uiso   1.00
H116   H     0.30850   0.82838   0.31812   0.00000  Uiso   1.00
H117   H     0.44325   0.94617   0.28986   0.00000  Uiso   1.00
H118   H     0.27592   0.75413   0.49591   0.00000  Uiso   1.00
H119   H     0.21497   0.77221   0.15934   0.00000  Uiso   1.00
H120   H     0.57897   0.09660   0.27321   0.00000  Uiso   1.00
H121   H     0.22614   0.69166   0.70766   0.00000  Uiso   1.00
H122   H     0.09762   0.72977   0.99795   0.00000  Uiso   1.00
H123   H     0.20317   0.98122   0.43091   0.00000  Uiso   1.00
H124   H     0.33214   0.10741   0.40884   0.00000  Uiso   1.00
H125   H     0.16482   0.91537   0.61489   0.00000  Uiso   1.00
H126   H     0.10387   0.93345   0.27833   0.00000  Uiso   1.00
H127   H     0.48880   0.22747   0.36979   0.00000  Uiso   1.00
H128   H     0.13596   0.82252   0.80423   0.00000  Uiso   1.00
H129   H     0.00745   0.86064   0.09452   0.00000  Uiso   1.00
O130   O     0.62063   0.24228   0.30498   0.00000  Uiso   1.00
O131   O     0.15771   0.71101   0.87495   0.00000  Uiso   1.00
O132   O     0.98911   0.76102   0.94382   0.00000  Uiso   1.00
N133   N     0.54005   0.11009   0.29895   0.00000  Uiso   1.00
N134   N     0.21018   0.73150   0.70514   0.00000  Uiso   1.00
N135   N     0.09001   0.76712   0.04163   0.00000  Uiso   1.00
N136   N     0.49153   0.18050   0.35091   0.00000  Uiso   1.00
N137   N     0.16166   0.80192   0.75710   0.00000  Uiso   1.00
N138   N     0.04149   0.83754   0.09360   0.00000  Uiso   1.00
C139   C     0.42097   0.13660   0.98938   0.00000  Uiso   1.00
C140   C     0.39438   0.05141   0.98910   0.00000  Uiso   1.00
C141   C     0.43828   0.01900   0.01780   0.00000  Uiso   1.00
C142   C     0.40348   0.93992   0.01212   0.00000  Uiso   1.00
C143   C     0.37375   0.81448   0.01668   0.00000  Uiso   1.00
C144   C     0.40781   0.15574   0.87714   0.00000  Uiso   1.00
C145   C     0.46300   0.21106   0.81171   0.00000  Uiso   1.00
C146   C     0.43950   0.21982   0.71179   0.00000  Uiso   1.00
C147   C     0.43061   0.25640   0.54256   0.00000  Uiso   1.00
C148   C     0.36488   0.14591   0.06001   0.00000  Uiso   1.00
C149   C     0.38397   0.19299   0.14833   0.00000  Uiso   1.00
C150   C     0.32432   0.19349   0.20236   0.00000  Uiso   1.00
C151   C     0.24877   0.21481   0.31706   0.00000  Uiso   1.00
C152   C     0.28110   0.05379   0.92827   0.00000  Uiso   1.00
C153   C     0.31841   0.00643   0.95590   0.00000  Uiso   1.00
C154   C     0.28353   0.92738   0.95018   0.00000  Uiso   1.00
C155   C     0.32736   0.89486   0.97887   0.00000  Uiso   1.00
C156   C     0.33184   0.11076   0.84394   0.00000  Uiso   1.00
C157   C     0.30825   0.11944   0.74410   0.00000  Uiso   1.00
C158   C     0.36339   0.17476   0.67853   0.00000  Uiso   1.00
C159   C     0.28890   0.10093   0.02682   0.00000  Uiso   1.00
C160   C     0.22921   0.10137   0.08071   0.00000  Uiso   1.00
C161   C     0.24821   0.14843   0.16910   0.00000  Uiso   1.00
H162   H     0.48012   0.17162   0.01522   0.00000  Uiso   1.00
H163   H     0.49708   0.05383   0.04347   0.00000  Uiso   1.00
H164   H     0.52179   0.24587   0.83743   0.00000  Uiso   1.00
H165   H     0.44276   0.22779   0.17399   0.00000  Uiso   1.00
H166   H     0.48237   0.90340   0.06012   0.00000  Uiso   1.00
H167   H     0.53448   0.30834   0.62567   0.00000  Uiso   1.00
H168   H     0.36784   0.27023   0.33539   0.00000  Uiso   1.00
H169   H     0.22195   0.01878   0.90242   0.00000  Uiso   1.00
H170   H     0.22473   0.89259   0.92449   0.00000  Uiso   1.00
H171   H     0.24945   0.08463   0.71844   0.00000  Uiso   1.00
H172   H     0.17043   0.06655   0.05500   0.00000  Uiso   1.00
H173   H     0.26133   0.77253   0.96354   0.00000  Uiso   1.00
H174   H     0.31344   0.17748   0.52910   0.00000  Uiso   1.00
H175   H     0.14680   0.13936   0.23881   0.00000  Uiso   1.00
O176   O     0.37835   0.75772   0.02835   0.00000  Uiso   1.00
O177   O     0.44671   0.28899   0.45839   0.00000  Uiso   1.00
O178   O     0.22809   0.23898   0.38951   0.00000  Uiso   1.00
N179   N     0.42996   0.88991   0.03438   0.00000  Uiso   1.00
N180   N     0.47868   0.26850   0.62820   0.00000  Uiso   1.00
N181   N     0.32290   0.23288   0.29170   0.00000  Uiso   1.00
N182   N     0.31102   0.81950   0.98242   0.00000  Uiso   1.00
N183   N     0.35974   0.19808   0.57623   0.00000  Uiso   1.00
N184   N     0.20395   0.16246   0.23974   0.00000  Uiso   1.00
C185   C     0.71563   0.57903   0.32271   0.00000  Uiso   1.00
C186   C     0.65703   0.60562   0.32243   0.00000  Uiso   1.00
C187   C     0.58072   0.56172   0.35113   0.00000  Uiso   1.00
C188   C     0.53645   0.59652   0.34545   0.00000  Uiso   1.00
C189   C     0.44073   0.62625   0.35001   0.00000  Uiso   1.00
C190   C     0.74793   0.59219   0.21047   0.00000  Uiso   1.00
C191   C     0.74806   0.53700   0.14505   0.00000  Uiso   1.00
C192   C     0.78032   0.56050   0.04512   0.00000  Uiso   1.00
C193   C     0.82578   0.56939   0.87590   0.00000  Uiso   1.00
C194   C     0.78104   0.63512   0.39334   0.00000  Uiso   1.00
C195   C     0.80903   0.61603   0.48166   0.00000  Uiso   1.00
C196   C     0.86917   0.67568   0.53569   0.00000  Uiso   1.00
C197   C     0.96604   0.75123   0.65040   0.00000  Uiso   1.00
C198   C     0.77269   0.71890   0.26160   0.00000  Uiso   1.00
C199   C     0.68802   0.68159   0.28924   0.00000  Uiso   1.00
C200   C     0.64386   0.71647   0.28352   0.00000  Uiso   1.00
C201   C     0.56750   0.67264   0.31220   0.00000  Uiso   1.00
C202   C     0.77892   0.66816   0.17728   0.00000  Uiso   1.00
C203   C     0.81120   0.69175   0.07743   0.00000  Uiso   1.00
C204   C     0.81137   0.63661   0.01187   0.00000  Uiso   1.00
C205   C     0.81203   0.71110   0.36015   0.00000  Uiso   1.00
C206   C     0.87215   0.77079   0.41405   0.00000  Uiso   1.00
C207   C     0.90022   0.75179   0.50243   0.00000  Uiso   1.00
H208   H     0.69150   0.51988   0.34855   0.00000  Uiso   1.00
H209   H     0.55675   0.50292   0.37680   0.00000  Uiso   1.00
H210   H     0.72408   0.47821   0.17076   0.00000  Uiso   1.00
H211   H     0.78503   0.55724   0.50732   0.00000  Uiso   1.00
H212   H     0.42103   0.51763   0.39345   0.00000  Uiso   1.00
H213   H     0.77386   0.46552   0.95901   0.00000  Uiso   1.00
H214   H     0.90238   0.63216   0.66872   0.00000  Uiso   1.00
H215   H     0.79683   0.77805   0.23575   0.00000  Uiso   1.00
H216   H     0.66786   0.77527   0.25782   0.00000  Uiso   1.00
H217   H     0.83518   0.75055   0.05177   0.00000  Uiso   1.00
H218   H     0.89613   0.82957   0.38834   0.00000  Uiso   1.00
H219   H     0.51120   0.73867   0.29688   0.00000  Uiso   1.00
H220   H     0.86404   0.68656   0.86243   0.00000  Uiso   1.00
H221   H     0.99255   0.85320   0.57214   0.00000  Uiso   1.00
O222   O     0.37937   0.62165   0.36168   0.00000  Uiso   1.00
O223   O     0.84229   0.55329   0.79172   0.00000  Uiso   1.00
O224   O     0.01089   0.77191   0.72284   0.00000  Uiso   1.00
N225   N     0.45995   0.57004   0.36772   0.00000  Uiso   1.00
N226   N     0.78982   0.52132   0.96153   0.00000  Uiso   1.00
N227   N     0.90999   0.67710   0.62503   0.00000  Uiso   1.00
N228   N     0.50847   0.68898   0.31575   0.00000  Uiso   1.00
N229   N     0.83834   0.64026   0.90956   0.00000  Uiso   1.00
N230   N     0.95851   0.79605   0.57307   0.00000  Uiso   1.00
C231   C     0.86340   0.28437   0.65605   0.00000  Uiso   1.00
C232   C     0.94859   0.34297   0.65577   0.00000  Uiso   1.00
C233   C     0.98100   0.41928   0.68446   0.00000  Uiso   1.00
C234   C     0.06008   0.46355   0.67878   0.00000  Uiso   1.00
C235   C     0.18552   0.55927   0.68334   0.00000  Uiso   1.00
C236   C     0.84426   0.25207   0.54381   0.00000  Uiso   1.00
C237   C     0.78894   0.25194   0.47838   0.00000  Uiso   1.00
C238   C     0.78018   0.21968   0.37846   0.00000  Uiso   1.00
C239   C     0.74360   0.17422   0.20923   0.00000  Uiso   1.00
C240   C     0.85409   0.21896   0.72668   0.00000  Uiso   1.00
C241   C     0.80701   0.19097   0.81499   0.00000  Uiso   1.00
C242   C     0.80651   0.13083   0.86902   0.00000  Uiso   1.00
C243   C     0.78519   0.03396   0.98373   0.00000  Uiso   1.00
C244   C     0.94621   0.22731   0.59493   0.00000  Uiso   1.00
C245   C     0.99357   0.31198   0.62257   0.00000  Uiso   1.00
C246   C     0.07262   0.35614   0.61685   0.00000  Uiso   1.00
C247   C     0.10514   0.43250   0.64553   0.00000  Uiso   1.00
C248   C     0.88924   0.22108   0.51061   0.00000  Uiso   1.00
C249   C     0.88056   0.18880   0.41076   0.00000  Uiso   1.00
C250   C     0.82524   0.18863   0.34520   0.00000  Uiso   1.00
C251   C     0.89907   0.18797   0.69349   0.00000  Uiso   1.00
C252   C     0.89863   0.12785   0.74738   0.00000  Uiso   1.00
C253   C     0.85157   0.09978   0.83577   0.00000  Uiso   1.00
H254   H     0.82838   0.30850   0.68188   0.00000  Uiso   1.00
H255   H     0.94617   0.44325   0.71014   0.00000  Uiso   1.00
H256   H     0.75413   0.27592   0.50409   0.00000  Uiso   1.00
H257   H     0.77221   0.21497   0.84066   0.00000  Uiso   1.00
H258   H     0.09660   0.57897   0.72679   0.00000  Uiso   1.00
H259   H     0.69166   0.22614   0.29234   0.00000  Uiso   1.00
H260   H     0.72977   0.09762   0.00205   0.00000  Uiso   1.00
H261   H     0.98122   0.20317   0.56909   0.00000  Uiso   1.00
H262   H     0.10741   0.33214   0.59116   0.00000  Uiso   1.00
H263   H     0.91537   0.16482   0.38511   0.00000  Uiso   1.00
H264   H     0.93345   0.10387   0.72167   0.00000  Uiso   1.00
H265   H     0.22747   0.48880   0.63021   0.00000  Uiso   1.00
H266   H     0.82252   0.13596   0.19577   0.00000  Uiso   1.00
H267   H     0.86064   0.00745   0.90548   0.00000  Uiso   1.00
O268   O     0.24228   0.62063   0.69502   0.00000  Uiso   1.00
O269   O     0.71101   0.15771   0.12505   0.00000  Uiso   1.00
O270   O     0.76102   0.98911   0.05618   0.00000  Uiso   1.00
N271   N     0.11009   0.54005   0.70105   0.00000  Uiso   1.00
N272   N     0.73150   0.21018   0.29486   0.00000  Uiso   1.00
N273   N     0.76712   0.09001   0.95837   0.00000  Uiso   1.00
N274   N     0.18050   0.49153   0.64909   0.00000  Uiso   1.00
N275   N     0.80192   0.16166   0.24290   0.00000  Uiso   1.00
N276   N     0.83754   0.04149   0.90640   0.00000  Uiso   1.00
