data_job_00269
_audit_creation_date              2018-12-19
_audit_creation_method            'Materials Studio'
_symmetry_space_group_name_H-M    'P1'
_symmetry_Int_Tables_number       1
_symmetry_cell_setting            triclinic
loop_
_symmetry_equiv_pos_as_xyz
  x,y,z
_cell_length_a                    12.3347
_cell_length_b                    18.5349
_cell_length_c                    10.9854
_cell_angle_alpha                 90.0000
_cell_angle_beta                  90.0000
_cell_angle_gamma                 90.0000
loop_
_atom_site_label
_atom_site_type_symbol
_atom_site_fract_x
_atom_site_fract_y
_atom_site_fract_z
_atom_site_U_iso_or_equiv
_atom_site_adp_type
_atom_site_occupancy
C1     C     0.39984   0.72099   0.63182   0.00000  Uiso   1.00
C2     C     0.29439   0.73726   0.69889   0.00000  Uiso   1.00
C3     C     0.23342   0.79983   0.68754   0.00000  Uiso   1.00
C4     C     0.13947   0.80437   0.75672   0.00000  Uiso   1.00
C5     C     0.98060   0.83818   0.84909   0.00000  Uiso   1.00
C6     C     0.48381   0.70491   0.73002   0.00000  Uiso   1.00
C7     C     0.58211   0.74027   0.74482   0.00000  Uiso   1.00
C8     C     0.64762   0.71757   0.84020   0.00000  Uiso   1.00
C9     C     0.78287   0.70112   0.98084   0.00000  Uiso   1.00
C10    C     0.38127   0.65008   0.56460   0.00000  Uiso   1.00
C11    C     0.39337   0.63933   0.44031   0.00000  Uiso   1.00
C12    C     0.37257   0.57046   0.39642   0.00000  Uiso   1.00
C13    C     0.34859   0.46887   0.28022   0.00000  Uiso   1.00
C14    C     0.34140   0.61779   0.77488   0.00000  Uiso   1.00
C15    C     0.26266   0.68121   0.77660   0.00000  Uiso   1.00
C16    C     0.16877   0.68565   0.84581   0.00000  Uiso   1.00
C17    C     0.10767   0.74822   0.83456   0.00000  Uiso   1.00
C18    C     0.45208   0.64886   0.80772   0.00000  Uiso   1.00
C19    C     0.51746   0.62610   0.90309   0.00000  Uiso   1.00
C20    C     0.61583   0.66142   0.91804   0.00000  Uiso   1.00
C21    C     0.34952   0.59403   0.64230   0.00000  Uiso   1.00
C22    C     0.32871   0.52516   0.59859   0.00000  Uiso   1.00
C23    C     0.34077   0.51430   0.47427   0.00000  Uiso   1.00
H24    H     0.42455   0.76463   0.57133   0.00000  Uiso   1.00
H25    H     0.25802   0.84320   0.62740   0.00000  Uiso   1.00
H26    H     0.60666   0.78364   0.68467   0.00000  Uiso   1.00
H27    H     0.41793   0.68272   0.38021   0.00000  Uiso   1.00
H28    H     0.05941   0.90559   0.72387   0.00000  Uiso   1.00
H29    H     0.79455   0.78001   0.84459   0.00000  Uiso   1.00
H30    H     0.39659   0.56718   0.20259   0.00000  Uiso   1.00
H31    H     0.31669   0.57415   0.83537   0.00000  Uiso   1.00
H32    H     0.14423   0.64227   0.90593   0.00000  Uiso   1.00
H33    H     0.49287   0.58272   0.96320   0.00000  Uiso   1.00
H34    H     0.30415   0.48179   0.65875   0.00000  Uiso   1.00
H35    H     0.96706   0.74252   0.94994   0.00000  Uiso   1.00
H36    H     0.70220   0.61693   0.07066   0.00000  Uiso   1.00
H37    H     0.30424   0.40411   0.42866   0.00000  Uiso   1.00
O38    O     0.90175   0.87231   0.87859   0.00000  Uiso   1.00
O39    O     0.86623   0.70754   0.03695   0.00000  Uiso   1.00
O40    O     0.34412   0.42832   0.19466   0.00000  Uiso   1.00
N41    N     0.06133   0.85786   0.76737   0.00000  Uiso   1.00
N42    N     0.74863   0.74046   0.88025   0.00000  Uiso   1.00
N43    N     0.37661   0.54148   0.28004   0.00000  Uiso   1.00
N44    N     0.01163   0.77011   0.88902   0.00000  Uiso   1.00
N45    N     0.69894   0.65271   0.00190   0.00000  Uiso   1.00
N46    N     0.32691   0.45373   0.40168   0.00000  Uiso   1.00
C47    C     0.60016   0.27901   0.63182   0.00000  Uiso   1.00
C48    C     0.70561   0.26274   0.69889   0.00000  Uiso   1.00
C49    C     0.76658   0.20017   0.68754   0.00000  Uiso   1.00
C50    C     0.86053   0.19563   0.75672   0.00000  Uiso   1.00
C51    C     0.01940   0.16182   0.84909   0.00000  Uiso   1.00
C52    C     0.51619   0.29509   0.73002   0.00000  Uiso   1.00
C53    C     0.41789   0.25973   0.74482   0.00000  Uiso   1.00
C54    C     0.35238   0.28243   0.84020   0.00000  Uiso   1.00
C55    C     0.21713   0.29888   0.98084   0.00000  Uiso   1.00
C56    C     0.61873   0.34992   0.56460   0.00000  Uiso   1.00
C57    C     0.60663   0.36067   0.44031   0.00000  Uiso   1.00
C58    C     0.62743   0.42954   0.39642   0.00000  Uiso   1.00
C59    C     0.65141   0.53113   0.28022   0.00000  Uiso   1.00
C60    C     0.65860   0.38221   0.77488   0.00000  Uiso   1.00
C61    C     0.73734   0.31879   0.77660   0.00000  Uiso   1.00
C62    C     0.83123   0.31435   0.84581   0.00000  Uiso   1.00
C63    C     0.89233   0.25178   0.83456   0.00000  Uiso   1.00
C64    C     0.54792   0.35114   0.80772   0.00000  Uiso   1.00
C65    C     0.48254   0.37390   0.90309   0.00000  Uiso   1.00
C66    C     0.38417   0.33858   0.91804   0.00000  Uiso   1.00
C67    C     0.65048   0.40597   0.64230   0.00000  Uiso   1.00
C68    C     0.67129   0.47484   0.59859   0.00000  Uiso   1.00
C69    C     0.65923   0.48570   0.47427   0.00000  Uiso   1.00
H70    H     0.57545   0.23537   0.57133   0.00000  Uiso   1.00
H71    H     0.74198   0.15680   0.62740   0.00000  Uiso   1.00
H72    H     0.39334   0.21636   0.68467   0.00000  Uiso   1.00
H73    H     0.58207   0.31728   0.38021   0.00000  Uiso   1.00
H74    H     0.94059   0.09441   0.72387   0.00000  Uiso   1.00
H75    H     0.20545   0.21999   0.84459   0.00000  Uiso   1.00
H76    H     0.60341   0.43282   0.20259   0.00000  Uiso   1.00
H77    H     0.68331   0.42585   0.83537   0.00000  Uiso   1.00
H78    H     0.85577   0.35773   0.90593   0.00000  Uiso   1.00
H79    H     0.50713   0.41728   0.96320   0.00000  Uiso   1.00
H80    H     0.69585   0.51821   0.65875   0.00000  Uiso   1.00
H81    H     0.03294   0.25748   0.94994   0.00000  Uiso   1.00
H82    H     0.29780   0.38307   0.07066   0.00000  Uiso   1.00
H83    H     0.69576   0.59589   0.42866   0.00000  Uiso   1.00
O84    O     0.09825   0.12769   0.87859   0.00000  Uiso   1.00
O85    O     0.13377   0.29246   0.03695   0.00000  Uiso   1.00
O86    O     0.65588   0.57168   0.19466   0.00000  Uiso   1.00
N87    N     0.93867   0.14214   0.76737   0.00000  Uiso   1.00
N88    N     0.25137   0.25954   0.88025   0.00000  Uiso   1.00
N89    N     0.62339   0.45852   0.28004   0.00000  Uiso   1.00
N90    N     0.98837   0.22989   0.88902   0.00000  Uiso   1.00
N91    N     0.30106   0.34729   0.00190   0.00000  Uiso   1.00
N92    N     0.67309   0.54627   0.40168   0.00000  Uiso   1.00
C93    C     0.39984   0.77901   0.13182   0.00000  Uiso   1.00
C94    C     0.29439   0.76274   0.19889   0.00000  Uiso   1.00
C95    C     0.23342   0.70017   0.18754   0.00000  Uiso   1.00
C96    C     0.13947   0.69563   0.25672   0.00000  Uiso   1.00
C97    C     0.98060   0.66182   0.34909   0.00000  Uiso   1.00
C98    C     0.48381   0.79509   0.23002   0.00000  Uiso   1.00
C99    C     0.58211   0.75973   0.24482   0.00000  Uiso   1.00
C100   C     0.64762   0.78243   0.34020   0.00000  Uiso   1.00
C101   C     0.78287   0.79888   0.48084   0.00000  Uiso   1.00
C102   C     0.38127   0.84992   0.06460   0.00000  Uiso   1.00
C103   C     0.39337   0.86067   0.94031   0.00000  Uiso   1.00
C104   C     0.37257   0.92954   0.89642   0.00000  Uiso   1.00
C105   C     0.34859   0.03113   0.78022   0.00000  Uiso   1.00
C106   C     0.34140   0.88221   0.27488   0.00000  Uiso   1.00
C107   C     0.26266   0.81879   0.27660   0.00000  Uiso   1.00
C108   C     0.16877   0.81435   0.34581   0.00000  Uiso   1.00
C109   C     0.10767   0.75178   0.33456   0.00000  Uiso   1.00
C110   C     0.45208   0.85114   0.30772   0.00000  Uiso   1.00
C111   C     0.51746   0.87390   0.40309   0.00000  Uiso   1.00
C112   C     0.61583   0.83858   0.41804   0.00000  Uiso   1.00
C113   C     0.34952   0.90597   0.14230   0.00000  Uiso   1.00
C114   C     0.32871   0.97484   0.09859   0.00000  Uiso   1.00
C115   C     0.34077   0.98570   0.97427   0.00000  Uiso   1.00
H116   H     0.42455   0.73537   0.07133   0.00000  Uiso   1.00
H117   H     0.25802   0.65680   0.12740   0.00000  Uiso   1.00
H118   H     0.60666   0.71636   0.18467   0.00000  Uiso   1.00
H119   H     0.41793   0.81728   0.88021   0.00000  Uiso   1.00
H120   H     0.05941   0.59441   0.22387   0.00000  Uiso   1.00
H121   H     0.79455   0.71999   0.34459   0.00000  Uiso   1.00
H122   H     0.39659   0.93282   0.70259   0.00000  Uiso   1.00
H123   H     0.31669   0.92585   0.33537   0.00000  Uiso   1.00
H124   H     0.14423   0.85773   0.40593   0.00000  Uiso   1.00
H125   H     0.49287   0.91728   0.46320   0.00000  Uiso   1.00
H126   H     0.30415   0.01821   0.15875   0.00000  Uiso   1.00
H127   H     0.96706   0.75748   0.44994   0.00000  Uiso   1.00
H128   H     0.70220   0.88307   0.57066   0.00000  Uiso   1.00
H129   H     0.30424   0.09589   0.92866   0.00000  Uiso   1.00
O130   O     0.90175   0.62769   0.37859   0.00000  Uiso   1.00
O131   O     0.86623   0.79246   0.53695   0.00000  Uiso   1.00
O132   O     0.34412   0.07168   0.69466   0.00000  Uiso   1.00
N133   N     0.06133   0.64214   0.26737   0.00000  Uiso   1.00
N134   N     0.74863   0.75954   0.38025   0.00000  Uiso   1.00
N135   N     0.37661   0.95852   0.78004   0.00000  Uiso   1.00
N136   N     0.01163   0.72989   0.38902   0.00000  Uiso   1.00
N137   N     0.69894   0.84729   0.50190   0.00000  Uiso   1.00
N138   N     0.32691   0.04627   0.90168   0.00000  Uiso   1.00
C139   C     0.60016   0.22099   0.13182   0.00000  Uiso   1.00
C140   C     0.70561   0.23726   0.19889   0.00000  Uiso   1.00
C141   C     0.76658   0.29983   0.18754   0.00000  Uiso   1.00
C142   C     0.86053   0.30437   0.25672   0.00000  Uiso   1.00
C143   C     0.01940   0.33818   0.34909   0.00000  Uiso   1.00
C144   C     0.51619   0.20491   0.23002   0.00000  Uiso   1.00
C145   C     0.41789   0.24027   0.24482   0.00000  Uiso   1.00
C146   C     0.35238   0.21757   0.34020   0.00000  Uiso   1.00
C147   C     0.21713   0.20112   0.48084   0.00000  Uiso   1.00
C148   C     0.61873   0.15008   0.06460   0.00000  Uiso   1.00
C149   C     0.60663   0.13933   0.94031   0.00000  Uiso   1.00
C150   C     0.62743   0.07046   0.89642   0.00000  Uiso   1.00
C151   C     0.65141   0.96887   0.78022   0.00000  Uiso   1.00
C152   C     0.65860   0.11779   0.27488   0.00000  Uiso   1.00
C153   C     0.73734   0.18121   0.27660   0.00000  Uiso   1.00
C154   C     0.83123   0.18565   0.34581   0.00000  Uiso   1.00
C155   C     0.89233   0.24822   0.33456   0.00000  Uiso   1.00
C156   C     0.54792   0.14886   0.30772   0.00000  Uiso   1.00
C157   C     0.48254   0.12610   0.40309   0.00000  Uiso   1.00
C158   C     0.38417   0.16142   0.41804   0.00000  Uiso   1.00
C159   C     0.65048   0.09403   0.14230   0.00000  Uiso   1.00
C160   C     0.67129   0.02516   0.09859   0.00000  Uiso   1.00
C161   C     0.65923   0.01430   0.97427   0.00000  Uiso   1.00
H162   H     0.57545   0.26463   0.07133   0.00000  Uiso   1.00
H163   H     0.74198   0.34320   0.12740   0.00000  Uiso   1.00
H164   H     0.39334   0.28364   0.18467   0.00000  Uiso   1.00
H165   H     0.58207   0.18272   0.88021   0.00000  Uiso   1.00
H166   H     0.94059   0.40559   0.22387   0.00000  Uiso   1.00
H167   H     0.20545   0.28001   0.34459   0.00000  Uiso   1.00
H168   H     0.60341   0.06718   0.70259   0.00000  Uiso   1.00
H169   H     0.68331   0.07415   0.33537   0.00000  Uiso   1.00
H170   H     0.85577   0.14227   0.40593   0.00000  Uiso   1.00
H171   H     0.50713   0.08272   0.46320   0.00000  Uiso   1.00
H172   H     0.69585   0.98179   0.15875   0.00000  Uiso   1.00
H173   H     0.03294   0.24252   0.44994   0.00000  Uiso   1.00
H174   H     0.29780   0.11693   0.57066   0.00000  Uiso   1.00
H175   H     0.69576   0.90411   0.92866   0.00000  Uiso   1.00
O176   O     0.09825   0.37231   0.37859   0.00000  Uiso   1.00
O177   O     0.13377   0.20754   0.53695   0.00000  Uiso   1.00
O178   O     0.65588   0.92832   0.69466   0.00000  Uiso   1.00
N179   N     0.93867   0.35786   0.26737   0.00000  Uiso   1.00
N180   N     0.25137   0.24046   0.38025   0.00000  Uiso   1.00
N181   N     0.62339   0.04148   0.78004   0.00000  Uiso   1.00
N182   N     0.98837   0.27011   0.38902   0.00000  Uiso   1.00
N183   N     0.30106   0.15271   0.50190   0.00000  Uiso   1.00
N184   N     0.67309   0.95373   0.90168   0.00000  Uiso   1.00
