data_job_05078
_audit_creation_date              2018-12-19
_audit_creation_method            'Materials Studio'
_symmetry_space_group_name_H-M    'P1'
_symmetry_Int_Tables_number       1
_symmetry_cell_setting            triclinic
loop_
_symmetry_equiv_pos_as_xyz
  x,y,z
_cell_length_a                    22.8359
_cell_length_b                    16.1108
_cell_length_c                    12.6357
_cell_angle_alpha                 90.0000
_cell_angle_beta                  90.0000
_cell_angle_gamma                 90.0000
loop_
_atom_site_label
_atom_site_type_symbol
_atom_site_fract_x
_atom_site_fract_y
_atom_site_fract_z
_atom_site_U_iso_or_equiv
_atom_site_adp_type
_atom_site_occupancy
C1     C     0.85060   0.99265   0.87593   0.00000  Uiso   1.00
C2     C     0.86946   0.02836   0.76949   0.00000  Uiso   1.00
C3     C     0.91353   0.99711   0.70522   0.00000  Uiso   1.00
C4     C     0.92411   0.03865   0.61087   0.00000  Uiso   1.00
C5     C     0.95830   0.08339   0.44998   0.00000  Uiso   1.00
C6     C     0.78523   0.97493   0.86623   0.00000  Uiso   1.00
C7     C     0.75848   0.89874   0.88331   0.00000  Uiso   1.00
C8     C     0.69814   0.89531   0.87040   0.00000  Uiso   1.00
C9     C     0.60155   0.85710   0.85976   0.00000  Uiso   1.00
C10    C     0.85629   0.06331   0.95557   0.00000  Uiso   1.00
C11    C     0.88927   0.06143   0.04779   0.00000  Uiso   1.00
C12    C     0.88875   0.13241   0.11012   0.00000  Uiso   1.00
C13    C     0.90249   0.23142   0.23820   0.00000  Uiso   1.00
C14    C     0.79102   0.12201   0.82266   0.00000  Uiso   1.00
C15    C     0.83710   0.09863   0.74056   0.00000  Uiso   1.00
C16    C     0.84762   0.14023   0.64629   0.00000  Uiso   1.00
C17    C     0.89170   0.10905   0.58189   0.00000  Uiso   1.00
C18    C     0.75286   0.04519   0.83729   0.00000  Uiso   1.00
C19    C     0.69256   0.04187   0.82437   0.00000  Uiso   1.00
C20    C     0.66572   0.96570   0.84141   0.00000  Uiso   1.00
C21    C     0.82393   0.13357   0.92664   0.00000  Uiso   1.00
C22    C     0.82335   0.20456   0.98885   0.00000  Uiso   1.00
C23    C     0.85633   0.20279   0.08114   0.00000  Uiso   1.00
H24    H     0.87579   0.93795   0.89846   0.00000  Uiso   1.00
H25    H     0.93856   0.94273   0.72764   0.00000  Uiso   1.00
H26    H     0.78353   0.84438   0.90571   0.00000  Uiso   1.00
H27    H     0.91431   0.00705   0.07016   0.00000  Uiso   1.00
H28    H     0.99387   0.97900   0.52547   0.00000  Uiso   1.00
H29    H     0.66697   0.77164   0.90097   0.00000  Uiso   1.00
H30    H     0.94273   0.11465   0.24775   0.00000  Uiso   1.00
H31    H     0.76583   0.17672   0.80014   0.00000  Uiso   1.00
H32    H     0.82257   0.19460   0.62392   0.00000  Uiso   1.00
H33    H     0.66753   0.09625   0.80198   0.00000  Uiso   1.00
H34    H     0.79831   0.25892   0.96643   0.00000  Uiso   1.00
H35    H     0.89972   0.18343   0.44128   0.00000  Uiso   1.00
H36    H     0.57282   0.97606   0.81679   0.00000  Uiso   1.00
H37    H     0.84858   0.31908   0.16356   0.00000  Uiso   1.00
O38    O     0.98609   0.08865   0.36921   0.00000  Uiso   1.00
O39    O     0.55721   0.81661   0.86187   0.00000  Uiso   1.00
O40    O     0.91901   0.26663   0.31683   0.00000  Uiso   1.00
N41    N     0.96393   0.02467   0.52985   0.00000  Uiso   1.00
N42    N     0.65830   0.83079   0.88090   0.00000  Uiso   1.00
N43    N     0.91611   0.15147   0.20513   0.00000  Uiso   1.00
N44    N     0.91327   0.13467   0.48455   0.00000  Uiso   1.00
N45    N     0.60764   0.94079   0.83560   0.00000  Uiso   1.00
N46    N     0.86545   0.26147   0.15983   0.00000  Uiso   1.00
C47    C     0.11963   0.29583   0.12902   0.00000  Uiso   1.00
C48    C     0.10078   0.32762   0.23747   0.00000  Uiso   1.00
C49    C     0.05988   0.29038   0.30338   0.00000  Uiso   1.00
C50    C     0.04871   0.32913   0.39943   0.00000  Uiso   1.00
C51    C     0.01509   0.36731   0.56343   0.00000  Uiso   1.00
C52    C     0.18595   0.28564   0.13444   0.00000  Uiso   1.00
C53    C     0.21666   0.21310   0.11370   0.00000  Uiso   1.00
C54    C     0.27719   0.21652   0.12300   0.00000  Uiso   1.00
C55    C     0.37581   0.18955   0.12697   0.00000  Uiso   1.00
C56    C     0.10841   0.36676   0.05174   0.00000  Uiso   1.00
C57    C     0.07394   0.36243   0.96145   0.00000  Uiso   1.00
C58    C     0.06921   0.43414   0.90111   0.00000  Uiso   1.00
C59    C     0.04743   0.53312   0.77667   0.00000  Uiso   1.00
C60    C     0.17253   0.43087   0.18239   0.00000  Uiso   1.00
C61    C     0.12951   0.40097   0.26646   0.00000  Uiso   1.00
C62    C     0.11840   0.43979   0.36243   0.00000  Uiso   1.00
C63    C     0.07749   0.40261   0.42847   0.00000  Uiso   1.00
C64    C     0.21468   0.35899   0.16342   0.00000  Uiso   1.00
C65    C     0.27519   0.36251   0.17275   0.00000  Uiso   1.00
C66    C     0.30598   0.29000   0.15204   0.00000  Uiso   1.00
C67    C     0.13714   0.44011   0.08073   0.00000  Uiso   1.00
C68    C     0.13247   0.51184   0.02050   0.00000  Uiso   1.00
C69    C     0.09799   0.50762   0.93015   0.00000  Uiso   1.00
H70    H     0.09726   0.23872   0.10645   0.00000  Uiso   1.00
H71    H     0.03765   0.23361   0.28092   0.00000  Uiso   1.00
H72    H     0.19441   0.15635   0.09126   0.00000  Uiso   1.00
H73    H     0.05171   0.30566   0.93904   0.00000  Uiso   1.00
H74    H     0.98425   0.26027   0.48715   0.00000  Uiso   1.00
H75    H     0.31479   0.09738   0.08721   0.00000  Uiso   1.00
H76    H     0.01388   0.41222   0.76622   0.00000  Uiso   1.00
H77    H     0.19490   0.48798   0.20496   0.00000  Uiso   1.00
H78    H     0.14064   0.49655   0.38484   0.00000  Uiso   1.00
H79    H     0.29741   0.41929   0.19518   0.00000  Uiso   1.00
H80    H     0.15471   0.56859   0.04296   0.00000  Uiso   1.00
H81    H     0.06785   0.47368   0.57150   0.00000  Uiso   1.00
H82    H     0.39839   0.31079   0.17155   0.00000  Uiso   1.00
H83    H     0.09748   0.62563   0.85057   0.00000  Uiso   1.00
O84    O     0.98862   0.36810   0.64589   0.00000  Uiso   1.00
O85    O     0.42227   0.15440   0.12116   0.00000  Uiso   1.00
O86    O     0.02748   0.56746   0.70004   0.00000  Uiso   1.00
N87    N     0.01136   0.30933   0.48231   0.00000  Uiso   1.00
N88    N     0.32040   0.15703   0.10840   0.00000  Uiso   1.00
N89    N     0.03908   0.45137   0.80829   0.00000  Uiso   1.00
N90    N     0.05635   0.42417   0.52769   0.00000  Uiso   1.00
N91    N     0.36538   0.27187   0.15378   0.00000  Uiso   1.00
N92    N     0.08407   0.56621   0.85367   0.00000  Uiso   1.00
C93    C     0.14940   0.00735   0.37593   0.00000  Uiso   1.00
C94    C     0.13054   0.97164   0.26949   0.00000  Uiso   1.00
C95    C     0.08647   0.00289   0.20522   0.00000  Uiso   1.00
C96    C     0.07589   0.96135   0.11087   0.00000  Uiso   1.00
C97    C     0.04170   0.91661   0.94998   0.00000  Uiso   1.00
C98    C     0.21477   0.02507   0.36623   0.00000  Uiso   1.00
C99    C     0.24152   0.10126   0.38331   0.00000  Uiso   1.00
C100   C     0.30186   0.10469   0.37040   0.00000  Uiso   1.00
C101   C     0.39845   0.14290   0.35976   0.00000  Uiso   1.00
C102   C     0.14371   0.93669   0.45557   0.00000  Uiso   1.00
C103   C     0.11073   0.93857   0.54779   0.00000  Uiso   1.00
C104   C     0.11125   0.86759   0.61012   0.00000  Uiso   1.00
C105   C     0.09751   0.76858   0.73820   0.00000  Uiso   1.00
C106   C     0.20898   0.87799   0.32266   0.00000  Uiso   1.00
C107   C     0.16290   0.90137   0.24056   0.00000  Uiso   1.00
C108   C     0.15238   0.85977   0.14629   0.00000  Uiso   1.00
C109   C     0.10830   0.89095   0.08189   0.00000  Uiso   1.00
C110   C     0.24714   0.95481   0.33729   0.00000  Uiso   1.00
C111   C     0.30744   0.95813   0.32437   0.00000  Uiso   1.00
C112   C     0.33428   0.03430   0.34141   0.00000  Uiso   1.00
C113   C     0.17607   0.86643   0.42664   0.00000  Uiso   1.00
C114   C     0.17665   0.79544   0.48885   0.00000  Uiso   1.00
C115   C     0.14367   0.79721   0.58114   0.00000  Uiso   1.00
H116   H     0.12421   0.06205   0.39846   0.00000  Uiso   1.00
H117   H     0.06144   0.05727   0.22764   0.00000  Uiso   1.00
H118   H     0.21647   0.15562   0.40571   0.00000  Uiso   1.00
H119   H     0.08569   0.99295   0.57016   0.00000  Uiso   1.00
H120   H     0.00613   0.02100   0.02547   0.00000  Uiso   1.00
H121   H     0.33303   0.22836   0.40097   0.00000  Uiso   1.00
H122   H     0.05727   0.88535   0.74775   0.00000  Uiso   1.00
H123   H     0.23417   0.82328   0.30014   0.00000  Uiso   1.00
H124   H     0.17743   0.80540   0.12392   0.00000  Uiso   1.00
H125   H     0.33247   0.90375   0.30198   0.00000  Uiso   1.00
H126   H     0.20169   0.74108   0.46643   0.00000  Uiso   1.00
H127   H     0.10028   0.81657   0.94128   0.00000  Uiso   1.00
H128   H     0.42718   0.02394   0.31679   0.00000  Uiso   1.00
H129   H     0.15142   0.68092   0.66356   0.00000  Uiso   1.00
O130   O     0.01391   0.91135   0.86921   0.00000  Uiso   1.00
O131   O     0.44279   0.18339   0.36187   0.00000  Uiso   1.00
O132   O     0.08099   0.73337   0.81683   0.00000  Uiso   1.00
N133   N     0.03607   0.97533   0.02985   0.00000  Uiso   1.00
N134   N     0.34170   0.16921   0.38090   0.00000  Uiso   1.00
N135   N     0.08389   0.84853   0.70513   0.00000  Uiso   1.00
N136   N     0.08673   0.86533   0.98455   0.00000  Uiso   1.00
N137   N     0.39236   0.05921   0.33560   0.00000  Uiso   1.00
N138   N     0.13455   0.73853   0.65983   0.00000  Uiso   1.00
C139   C     0.88037   0.70417   0.62902   0.00000  Uiso   1.00
C140   C     0.89922   0.67238   0.73747   0.00000  Uiso   1.00
C141   C     0.94012   0.70962   0.80338   0.00000  Uiso   1.00
C142   C     0.95129   0.67087   0.89943   0.00000  Uiso   1.00
C143   C     0.98491   0.63269   0.06343   0.00000  Uiso   1.00
C144   C     0.81405   0.71436   0.63444   0.00000  Uiso   1.00
C145   C     0.78334   0.78690   0.61370   0.00000  Uiso   1.00
C146   C     0.72281   0.78348   0.62300   0.00000  Uiso   1.00
C147   C     0.62419   0.81045   0.62697   0.00000  Uiso   1.00
C148   C     0.89159   0.63324   0.55174   0.00000  Uiso   1.00
C149   C     0.92606   0.63757   0.46145   0.00000  Uiso   1.00
C150   C     0.93079   0.56586   0.40111   0.00000  Uiso   1.00
C151   C     0.95257   0.46688   0.27667   0.00000  Uiso   1.00
C152   C     0.82747   0.56913   0.68239   0.00000  Uiso   1.00
C153   C     0.87049   0.59903   0.76646   0.00000  Uiso   1.00
C154   C     0.88160   0.56021   0.86243   0.00000  Uiso   1.00
C155   C     0.92251   0.59739   0.92847   0.00000  Uiso   1.00
C156   C     0.78532   0.64101   0.66342   0.00000  Uiso   1.00
C157   C     0.72481   0.63749   0.67275   0.00000  Uiso   1.00
C158   C     0.69402   0.71000   0.65204   0.00000  Uiso   1.00
C159   C     0.86286   0.55989   0.58073   0.00000  Uiso   1.00
C160   C     0.86753   0.48816   0.52050   0.00000  Uiso   1.00
C161   C     0.90201   0.49238   0.43015   0.00000  Uiso   1.00
H162   H     0.90274   0.76128   0.60645   0.00000  Uiso   1.00
H163   H     0.96235   0.76639   0.78092   0.00000  Uiso   1.00
H164   H     0.80559   0.84365   0.59126   0.00000  Uiso   1.00
H165   H     0.94829   0.69434   0.43904   0.00000  Uiso   1.00
H166   H     0.01575   0.73973   0.98715   0.00000  Uiso   1.00
H167   H     0.68521   0.90262   0.58721   0.00000  Uiso   1.00
H168   H     0.98612   0.58778   0.26622   0.00000  Uiso   1.00
H169   H     0.80510   0.51202   0.70496   0.00000  Uiso   1.00
H170   H     0.85936   0.50345   0.88484   0.00000  Uiso   1.00
H171   H     0.70259   0.58071   0.69518   0.00000  Uiso   1.00
H172   H     0.84529   0.43141   0.54296   0.00000  Uiso   1.00
H173   H     0.93215   0.52632   0.07150   0.00000  Uiso   1.00
H174   H     0.60161   0.68921   0.67155   0.00000  Uiso   1.00
H175   H     0.90252   0.37437   0.35057   0.00000  Uiso   1.00
O176   O     0.01138   0.63190   0.14589   0.00000  Uiso   1.00
O177   O     0.57773   0.84560   0.62116   0.00000  Uiso   1.00
O178   O     0.97252   0.43254   0.20004   0.00000  Uiso   1.00
N179   N     0.98864   0.69067   0.98231   0.00000  Uiso   1.00
N180   N     0.67960   0.84297   0.60840   0.00000  Uiso   1.00
N181   N     0.96092   0.54863   0.30829   0.00000  Uiso   1.00
N182   N     0.94365   0.57583   0.02769   0.00000  Uiso   1.00
N183   N     0.63462   0.72813   0.65378   0.00000  Uiso   1.00
N184   N     0.91593   0.43379   0.35367   0.00000  Uiso   1.00
C185   C     0.35060   0.00735   0.87593   0.00000  Uiso   1.00
C186   C     0.36946   0.97164   0.76949   0.00000  Uiso   1.00
C187   C     0.41353   0.00289   0.70522   0.00000  Uiso   1.00
C188   C     0.42411   0.96135   0.61087   0.00000  Uiso   1.00
C189   C     0.45830   0.91661   0.44998   0.00000  Uiso   1.00
C190   C     0.28523   0.02507   0.86623   0.00000  Uiso   1.00
C191   C     0.25848   0.10126   0.88331   0.00000  Uiso   1.00
C192   C     0.19814   0.10469   0.87040   0.00000  Uiso   1.00
C193   C     0.10155   0.14290   0.85976   0.00000  Uiso   1.00
C194   C     0.35629   0.93669   0.95557   0.00000  Uiso   1.00
C195   C     0.38927   0.93857   0.04779   0.00000  Uiso   1.00
C196   C     0.38875   0.86759   0.11012   0.00000  Uiso   1.00
C197   C     0.40249   0.76858   0.23820   0.00000  Uiso   1.00
C198   C     0.29102   0.87799   0.82266   0.00000  Uiso   1.00
C199   C     0.33710   0.90137   0.74056   0.00000  Uiso   1.00
C200   C     0.34762   0.85977   0.64629   0.00000  Uiso   1.00
C201   C     0.39170   0.89095   0.58189   0.00000  Uiso   1.00
C202   C     0.25286   0.95481   0.83729   0.00000  Uiso   1.00
C203   C     0.19256   0.95813   0.82437   0.00000  Uiso   1.00
C204   C     0.16572   0.03430   0.84141   0.00000  Uiso   1.00
C205   C     0.32393   0.86643   0.92664   0.00000  Uiso   1.00
C206   C     0.32335   0.79544   0.98885   0.00000  Uiso   1.00
C207   C     0.35633   0.79721   0.08114   0.00000  Uiso   1.00
H208   H     0.37579   0.06205   0.89846   0.00000  Uiso   1.00
H209   H     0.43856   0.05727   0.72764   0.00000  Uiso   1.00
H210   H     0.28353   0.15562   0.90571   0.00000  Uiso   1.00
H211   H     0.41431   0.99295   0.07016   0.00000  Uiso   1.00
H212   H     0.49387   0.02100   0.52547   0.00000  Uiso   1.00
H213   H     0.16697   0.22836   0.90097   0.00000  Uiso   1.00
H214   H     0.44273   0.88535   0.24775   0.00000  Uiso   1.00
H215   H     0.26583   0.82328   0.80014   0.00000  Uiso   1.00
H216   H     0.32257   0.80540   0.62392   0.00000  Uiso   1.00
H217   H     0.16753   0.90375   0.80198   0.00000  Uiso   1.00
H218   H     0.29831   0.74108   0.96643   0.00000  Uiso   1.00
H219   H     0.39972   0.81657   0.44128   0.00000  Uiso   1.00
H220   H     0.07282   0.02394   0.81679   0.00000  Uiso   1.00
H221   H     0.34858   0.68092   0.16356   0.00000  Uiso   1.00
O222   O     0.48609   0.91135   0.36921   0.00000  Uiso   1.00
O223   O     0.05721   0.18339   0.86187   0.00000  Uiso   1.00
O224   O     0.41901   0.73337   0.31683   0.00000  Uiso   1.00
N225   N     0.46393   0.97533   0.52985   0.00000  Uiso   1.00
N226   N     0.15830   0.16921   0.88090   0.00000  Uiso   1.00
N227   N     0.41611   0.84853   0.20513   0.00000  Uiso   1.00
N228   N     0.41327   0.86533   0.48455   0.00000  Uiso   1.00
N229   N     0.10764   0.05921   0.83560   0.00000  Uiso   1.00
N230   N     0.36545   0.73853   0.15983   0.00000  Uiso   1.00
C231   C     0.61963   0.70417   0.12902   0.00000  Uiso   1.00
C232   C     0.60078   0.67238   0.23747   0.00000  Uiso   1.00
C233   C     0.55988   0.70962   0.30338   0.00000  Uiso   1.00
C234   C     0.54871   0.67087   0.39943   0.00000  Uiso   1.00
C235   C     0.51509   0.63269   0.56343   0.00000  Uiso   1.00
C236   C     0.68595   0.71436   0.13444   0.00000  Uiso   1.00
C237   C     0.71666   0.78690   0.11370   0.00000  Uiso   1.00
C238   C     0.77719   0.78348   0.12300   0.00000  Uiso   1.00
C239   C     0.87581   0.81045   0.12697   0.00000  Uiso   1.00
C240   C     0.60841   0.63324   0.05174   0.00000  Uiso   1.00
C241   C     0.57394   0.63757   0.96145   0.00000  Uiso   1.00
C242   C     0.56921   0.56586   0.90111   0.00000  Uiso   1.00
C243   C     0.54743   0.46688   0.77667   0.00000  Uiso   1.00
C244   C     0.67253   0.56913   0.18239   0.00000  Uiso   1.00
C245   C     0.62951   0.59903   0.26646   0.00000  Uiso   1.00
C246   C     0.61840   0.56021   0.36243   0.00000  Uiso   1.00
C247   C     0.57749   0.59739   0.42847   0.00000  Uiso   1.00
C248   C     0.71468   0.64101   0.16342   0.00000  Uiso   1.00
C249   C     0.77519   0.63749   0.17275   0.00000  Uiso   1.00
C250   C     0.80598   0.71000   0.15204   0.00000  Uiso   1.00
C251   C     0.63714   0.55989   0.08073   0.00000  Uiso   1.00
C252   C     0.63247   0.48816   0.02050   0.00000  Uiso   1.00
C253   C     0.59799   0.49238   0.93015   0.00000  Uiso   1.00
H254   H     0.59726   0.76128   0.10645   0.00000  Uiso   1.00
H255   H     0.53765   0.76639   0.28092   0.00000  Uiso   1.00
H256   H     0.69441   0.84365   0.09126   0.00000  Uiso   1.00
H257   H     0.55171   0.69434   0.93904   0.00000  Uiso   1.00
H258   H     0.48425   0.73973   0.48715   0.00000  Uiso   1.00
H259   H     0.81479   0.90262   0.08721   0.00000  Uiso   1.00
H260   H     0.51388   0.58778   0.76622   0.00000  Uiso   1.00
H261   H     0.69490   0.51202   0.20496   0.00000  Uiso   1.00
H262   H     0.64064   0.50345   0.38484   0.00000  Uiso   1.00
H263   H     0.79741   0.58071   0.19518   0.00000  Uiso   1.00
H264   H     0.65471   0.43141   0.04296   0.00000  Uiso   1.00
H265   H     0.56785   0.52632   0.57150   0.00000  Uiso   1.00
H266   H     0.89839   0.68921   0.17155   0.00000  Uiso   1.00
H267   H     0.59748   0.37437   0.85057   0.00000  Uiso   1.00
O268   O     0.48862   0.63190   0.64589   0.00000  Uiso   1.00
O269   O     0.92227   0.84560   0.12116   0.00000  Uiso   1.00
O270   O     0.52748   0.43254   0.70004   0.00000  Uiso   1.00
N271   N     0.51136   0.69067   0.48231   0.00000  Uiso   1.00
N272   N     0.82040   0.84297   0.10840   0.00000  Uiso   1.00
N273   N     0.53908   0.54863   0.80829   0.00000  Uiso   1.00
N274   N     0.55635   0.57583   0.52769   0.00000  Uiso   1.00
N275   N     0.86538   0.72813   0.15378   0.00000  Uiso   1.00
N276   N     0.58407   0.43379   0.85367   0.00000  Uiso   1.00
C277   C     0.64940   0.99265   0.37593   0.00000  Uiso   1.00
C278   C     0.63054   0.02836   0.26949   0.00000  Uiso   1.00
C279   C     0.58647   0.99711   0.20522   0.00000  Uiso   1.00
C280   C     0.57589   0.03865   0.11087   0.00000  Uiso   1.00
C281   C     0.54170   0.08339   0.94998   0.00000  Uiso   1.00
C282   C     0.71477   0.97493   0.36623   0.00000  Uiso   1.00
C283   C     0.74152   0.89874   0.38331   0.00000  Uiso   1.00
C284   C     0.80186   0.89531   0.37040   0.00000  Uiso   1.00
C285   C     0.89845   0.85710   0.35976   0.00000  Uiso   1.00
C286   C     0.64371   0.06331   0.45557   0.00000  Uiso   1.00
C287   C     0.61073   0.06143   0.54779   0.00000  Uiso   1.00
C288   C     0.61125   0.13241   0.61012   0.00000  Uiso   1.00
C289   C     0.59751   0.23142   0.73820   0.00000  Uiso   1.00
C290   C     0.70898   0.12201   0.32266   0.00000  Uiso   1.00
C291   C     0.66290   0.09863   0.24056   0.00000  Uiso   1.00
C292   C     0.65238   0.14023   0.14629   0.00000  Uiso   1.00
C293   C     0.60830   0.10905   0.08189   0.00000  Uiso   1.00
C294   C     0.74714   0.04519   0.33729   0.00000  Uiso   1.00
C295   C     0.80744   0.04187   0.32437   0.00000  Uiso   1.00
C296   C     0.83428   0.96570   0.34141   0.00000  Uiso   1.00
C297   C     0.67607   0.13357   0.42664   0.00000  Uiso   1.00
C298   C     0.67665   0.20456   0.48885   0.00000  Uiso   1.00
C299   C     0.64367   0.20279   0.58114   0.00000  Uiso   1.00
H300   H     0.62421   0.93795   0.39846   0.00000  Uiso   1.00
H301   H     0.56144   0.94273   0.22764   0.00000  Uiso   1.00
H302   H     0.71647   0.84438   0.40571   0.00000  Uiso   1.00
H303   H     0.58569   0.00705   0.57016   0.00000  Uiso   1.00
H304   H     0.50613   0.97900   0.02547   0.00000  Uiso   1.00
H305   H     0.83303   0.77164   0.40097   0.00000  Uiso   1.00
H306   H     0.55727   0.11465   0.74775   0.00000  Uiso   1.00
H307   H     0.73417   0.17672   0.30014   0.00000  Uiso   1.00
H308   H     0.67743   0.19460   0.12392   0.00000  Uiso   1.00
H309   H     0.83247   0.09625   0.30198   0.00000  Uiso   1.00
H310   H     0.70169   0.25892   0.46643   0.00000  Uiso   1.00
H311   H     0.60028   0.18343   0.94128   0.00000  Uiso   1.00
H312   H     0.92718   0.97606   0.31679   0.00000  Uiso   1.00
H313   H     0.65142   0.31908   0.66356   0.00000  Uiso   1.00
O314   O     0.51391   0.08865   0.86921   0.00000  Uiso   1.00
O315   O     0.94279   0.81661   0.36187   0.00000  Uiso   1.00
O316   O     0.58099   0.26663   0.81683   0.00000  Uiso   1.00
N317   N     0.53607   0.02467   0.02985   0.00000  Uiso   1.00
N318   N     0.84170   0.83079   0.38090   0.00000  Uiso   1.00
N319   N     0.58389   0.15147   0.70513   0.00000  Uiso   1.00
N320   N     0.58673   0.13467   0.98455   0.00000  Uiso   1.00
N321   N     0.89236   0.94079   0.33560   0.00000  Uiso   1.00
N322   N     0.63455   0.26147   0.65983   0.00000  Uiso   1.00
C323   C     0.38037   0.29583   0.62902   0.00000  Uiso   1.00
C324   C     0.39922   0.32762   0.73747   0.00000  Uiso   1.00
C325   C     0.44012   0.29038   0.80338   0.00000  Uiso   1.00
C326   C     0.45129   0.32913   0.89943   0.00000  Uiso   1.00
C327   C     0.48491   0.36731   0.06343   0.00000  Uiso   1.00
C328   C     0.31405   0.28564   0.63444   0.00000  Uiso   1.00
C329   C     0.28334   0.21310   0.61370   0.00000  Uiso   1.00
C330   C     0.22281   0.21652   0.62300   0.00000  Uiso   1.00
C331   C     0.12419   0.18955   0.62697   0.00000  Uiso   1.00
C332   C     0.39159   0.36676   0.55174   0.00000  Uiso   1.00
C333   C     0.42606   0.36243   0.46145   0.00000  Uiso   1.00
C334   C     0.43079   0.43414   0.40111   0.00000  Uiso   1.00
C335   C     0.45257   0.53312   0.27667   0.00000  Uiso   1.00
C336   C     0.32747   0.43087   0.68239   0.00000  Uiso   1.00
C337   C     0.37049   0.40097   0.76646   0.00000  Uiso   1.00
C338   C     0.38160   0.43979   0.86243   0.00000  Uiso   1.00
C339   C     0.42251   0.40261   0.92847   0.00000  Uiso   1.00
C340   C     0.28532   0.35899   0.66342   0.00000  Uiso   1.00
C341   C     0.22481   0.36251   0.67275   0.00000  Uiso   1.00
C342   C     0.19402   0.29000   0.65204   0.00000  Uiso   1.00
C343   C     0.36286   0.44011   0.58073   0.00000  Uiso   1.00
C344   C     0.36753   0.51184   0.52050   0.00000  Uiso   1.00
C345   C     0.40201   0.50762   0.43015   0.00000  Uiso   1.00
H346   H     0.40274   0.23872   0.60645   0.00000  Uiso   1.00
H347   H     0.46235   0.23361   0.78092   0.00000  Uiso   1.00
H348   H     0.30559   0.15635   0.59126   0.00000  Uiso   1.00
H349   H     0.44829   0.30566   0.43904   0.00000  Uiso   1.00
H350   H     0.51575   0.26027   0.98715   0.00000  Uiso   1.00
H351   H     0.18521   0.09738   0.58721   0.00000  Uiso   1.00
H352   H     0.48612   0.41222   0.26622   0.00000  Uiso   1.00
H353   H     0.30510   0.48798   0.70496   0.00000  Uiso   1.00
H354   H     0.35936   0.49655   0.88484   0.00000  Uiso   1.00
H355   H     0.20259   0.41929   0.69518   0.00000  Uiso   1.00
H356   H     0.34529   0.56859   0.54296   0.00000  Uiso   1.00
H357   H     0.43215   0.47368   0.07150   0.00000  Uiso   1.00
H358   H     0.10161   0.31079   0.67155   0.00000  Uiso   1.00
H359   H     0.40252   0.62563   0.35057   0.00000  Uiso   1.00
O360   O     0.51138   0.36810   0.14589   0.00000  Uiso   1.00
O361   O     0.07773   0.15440   0.62116   0.00000  Uiso   1.00
O362   O     0.47252   0.56746   0.20004   0.00000  Uiso   1.00
N363   N     0.48864   0.30933   0.98231   0.00000  Uiso   1.00
N364   N     0.17960   0.15703   0.60840   0.00000  Uiso   1.00
N365   N     0.46092   0.45137   0.30829   0.00000  Uiso   1.00
N366   N     0.44365   0.42417   0.02769   0.00000  Uiso   1.00
N367   N     0.13462   0.27187   0.65378   0.00000  Uiso   1.00
N368   N     0.41593   0.56621   0.35367   0.00000  Uiso   1.00
