data_job_05571
_audit_creation_date              2018-12-19
_audit_creation_method            'Materials Studio'
_symmetry_space_group_name_H-M    'P1'
_symmetry_Int_Tables_number       1
_symmetry_cell_setting            triclinic
loop_
_symmetry_equiv_pos_as_xyz
  x,y,z
_cell_length_a                    20.0647
_cell_length_b                    12.4446
_cell_length_c                    24.4213
_cell_angle_alpha                 90.0000
_cell_angle_beta                  90.0000
_cell_angle_gamma                 90.0000
loop_
_atom_site_label
_atom_site_type_symbol
_atom_site_fract_x
_atom_site_fract_y
_atom_site_fract_z
_atom_site_U_iso_or_equiv
_atom_site_adp_type
_atom_site_occupancy
C1     C     0.44876   0.69205   0.36791   0.00000  Uiso   1.00
C2     C     0.41584   0.66414   0.31345   0.00000  Uiso   1.00
C3     C     0.42173   0.56706   0.28592   0.00000  Uiso   1.00
C4     C     0.38773   0.55736   0.23665   0.00000  Uiso   1.00
C5     C     0.34249   0.50120   0.15527   0.00000  Uiso   1.00
C6     C     0.48948   0.79351   0.35756   0.00000  Uiso   1.00
C7     C     0.55728   0.80520   0.36712   0.00000  Uiso   1.00
C8     C     0.58526   0.90443   0.35499   0.00000  Uiso   1.00
C9     C     0.65433   0.04914   0.34212   0.00000  Uiso   1.00
C10    C     0.39243   0.72503   0.40630   0.00000  Uiso   1.00
C11    C     0.37863   0.67915   0.45684   0.00000  Uiso   1.00
C12    C     0.32491   0.72073   0.48575   0.00000  Uiso   1.00
C13    C     0.24330   0.75911   0.54855   0.00000  Uiso   1.00
C14    C     0.37791   0.84748   0.32938   0.00000  Uiso   1.00
C15    C     0.37736   0.74857   0.29253   0.00000  Uiso   1.00
C16    C     0.34334   0.73902   0.24329   0.00000  Uiso   1.00
C17    C     0.34917   0.64193   0.21569   0.00000  Uiso   1.00
C18    C     0.45100   0.87793   0.33664   0.00000  Uiso   1.00
C19    C     0.47889   0.97717   0.32449   0.00000  Uiso   1.00
C20    C     0.54671   0.98900   0.33402   0.00000  Uiso   1.00
C21    C     0.35394   0.80945   0.38537   0.00000  Uiso   1.00
C22    C     0.30024   0.85111   0.41421   0.00000  Uiso   1.00
C23    C     0.28636   0.80531   0.46478   0.00000  Uiso   1.00
H24    H     0.47873   0.62633   0.38420   0.00000  Uiso   1.00
H25    H     0.45152   0.50174   0.30212   0.00000  Uiso   1.00
H26    H     0.58704   0.73986   0.38332   0.00000  Uiso   1.00
H27    H     0.40842   0.61383   0.47302   0.00000  Uiso   1.00
H28    H     0.40440   0.40086   0.20189   0.00000  Uiso   1.00
H29    H     0.69016   0.90295   0.37311   0.00000  Uiso   1.00
H30    H     0.31350   0.63718   0.56227   0.00000  Uiso   1.00
H31    H     0.34795   0.91321   0.31309   0.00000  Uiso   1.00
H32    H     0.31356   0.80436   0.22711   0.00000  Uiso   1.00
H33    H     0.44909   0.04248   0.30830   0.00000  Uiso   1.00
H34    H     0.27047   0.91644   0.39800   0.00000  Uiso   1.00
H35    H     0.29243   0.64648   0.14100   0.00000  Uiso   1.00
H36    H     0.57819   0.14857   0.31222   0.00000  Uiso   1.00
H37    H     0.20153   0.88280   0.50138   0.00000  Uiso   1.00
O38    O     0.32817   0.44690   0.11616   0.00000  Uiso   1.00
O39    O     0.70307   0.10563   0.34080   0.00000  Uiso   1.00
O40    O     0.20890   0.75694   0.58897   0.00000  Uiso   1.00
N41    N     0.38276   0.47360   0.19936   0.00000  Uiso   1.00
N42    N     0.64992   0.94302   0.35943   0.00000  Uiso   1.00
N43    N     0.29779   0.69456   0.53629   0.00000  Uiso   1.00
N44    N     0.32251   0.60576   0.16660   0.00000  Uiso   1.00
N45    N     0.58967   0.07518   0.32667   0.00000  Uiso   1.00
N46    N     0.23754   0.82673   0.50353   0.00000  Uiso   1.00
C47    C     0.05124   0.30795   0.36791   0.00000  Uiso   1.00
C48    C     0.08416   0.33586   0.31345   0.00000  Uiso   1.00
C49    C     0.07827   0.43294   0.28592   0.00000  Uiso   1.00
C50    C     0.11227   0.44264   0.23665   0.00000  Uiso   1.00
C51    C     0.15751   0.49880   0.15527   0.00000  Uiso   1.00
C52    C     0.01052   0.20649   0.35756   0.00000  Uiso   1.00
C53    C     0.94272   0.19480   0.36712   0.00000  Uiso   1.00
C54    C     0.91474   0.09557   0.35499   0.00000  Uiso   1.00
C55    C     0.84567   0.95086   0.34212   0.00000  Uiso   1.00
C56    C     0.10757   0.27497   0.40630   0.00000  Uiso   1.00
C57    C     0.12137   0.32085   0.45684   0.00000  Uiso   1.00
C58    C     0.17509   0.27927   0.48575   0.00000  Uiso   1.00
C59    C     0.25670   0.24089   0.54855   0.00000  Uiso   1.00
C60    C     0.12209   0.15252   0.32938   0.00000  Uiso   1.00
C61    C     0.12264   0.25143   0.29253   0.00000  Uiso   1.00
C62    C     0.15666   0.26098   0.24329   0.00000  Uiso   1.00
C63    C     0.15083   0.35807   0.21569   0.00000  Uiso   1.00
C64    C     0.04900   0.12207   0.33664   0.00000  Uiso   1.00
C65    C     0.02111   0.02283   0.32449   0.00000  Uiso   1.00
C66    C     0.95329   0.01100   0.33402   0.00000  Uiso   1.00
C67    C     0.14606   0.19055   0.38537   0.00000  Uiso   1.00
C68    C     0.19976   0.14889   0.41421   0.00000  Uiso   1.00
C69    C     0.21364   0.19469   0.46478   0.00000  Uiso   1.00
H70    H     0.02127   0.37367   0.38420   0.00000  Uiso   1.00
H71    H     0.04848   0.49826   0.30212   0.00000  Uiso   1.00
H72    H     0.91296   0.26014   0.38332   0.00000  Uiso   1.00
H73    H     0.09158   0.38617   0.47302   0.00000  Uiso   1.00
H74    H     0.09560   0.59914   0.20189   0.00000  Uiso   1.00
H75    H     0.80984   0.09705   0.37311   0.00000  Uiso   1.00
H76    H     0.18650   0.36282   0.56227   0.00000  Uiso   1.00
H77    H     0.15205   0.08679   0.31309   0.00000  Uiso   1.00
H78    H     0.18644   0.19564   0.22711   0.00000  Uiso   1.00
H79    H     0.05091   0.95752   0.30830   0.00000  Uiso   1.00
H80    H     0.22953   0.08356   0.39800   0.00000  Uiso   1.00
H81    H     0.20757   0.35352   0.14100   0.00000  Uiso   1.00
H82    H     0.92181   0.85143   0.31222   0.00000  Uiso   1.00
H83    H     0.29847   0.11720   0.50138   0.00000  Uiso   1.00
O84    O     0.17183   0.55310   0.11616   0.00000  Uiso   1.00
O85    O     0.79693   0.89437   0.34080   0.00000  Uiso   1.00
O86    O     0.29110   0.24306   0.58897   0.00000  Uiso   1.00
N87    N     0.11724   0.52640   0.19936   0.00000  Uiso   1.00
N88    N     0.85008   0.05698   0.35943   0.00000  Uiso   1.00
N89    N     0.20221   0.30544   0.53629   0.00000  Uiso   1.00
N90    N     0.17749   0.39424   0.16660   0.00000  Uiso   1.00
N91    N     0.91033   0.92482   0.32667   0.00000  Uiso   1.00
N92    N     0.26246   0.17327   0.50353   0.00000  Uiso   1.00
C93    C     0.55124   0.69205   0.13209   0.00000  Uiso   1.00
C94    C     0.58416   0.66414   0.18655   0.00000  Uiso   1.00
C95    C     0.57827   0.56706   0.21408   0.00000  Uiso   1.00
C96    C     0.61227   0.55736   0.26335   0.00000  Uiso   1.00
C97    C     0.65751   0.50120   0.34473   0.00000  Uiso   1.00
C98    C     0.51052   0.79351   0.14244   0.00000  Uiso   1.00
C99    C     0.44272   0.80520   0.13288   0.00000  Uiso   1.00
C100   C     0.41474   0.90443   0.14501   0.00000  Uiso   1.00
C101   C     0.34567   0.04914   0.15788   0.00000  Uiso   1.00
C102   C     0.60757   0.72503   0.09370   0.00000  Uiso   1.00
C103   C     0.62137   0.67915   0.04316   0.00000  Uiso   1.00
C104   C     0.67509   0.72073   0.01425   0.00000  Uiso   1.00
C105   C     0.75670   0.75911   0.95145   0.00000  Uiso   1.00
C106   C     0.62209   0.84748   0.17062   0.00000  Uiso   1.00
C107   C     0.62264   0.74857   0.20747   0.00000  Uiso   1.00
C108   C     0.65666   0.73902   0.25671   0.00000  Uiso   1.00
C109   C     0.65083   0.64193   0.28431   0.00000  Uiso   1.00
C110   C     0.54900   0.87793   0.16336   0.00000  Uiso   1.00
C111   C     0.52111   0.97717   0.17551   0.00000  Uiso   1.00
C112   C     0.45329   0.98900   0.16598   0.00000  Uiso   1.00
C113   C     0.64606   0.80945   0.11463   0.00000  Uiso   1.00
C114   C     0.69976   0.85111   0.08579   0.00000  Uiso   1.00
C115   C     0.71364   0.80531   0.03522   0.00000  Uiso   1.00
H116   H     0.52127   0.62633   0.11580   0.00000  Uiso   1.00
H117   H     0.54848   0.50174   0.19788   0.00000  Uiso   1.00
H118   H     0.41296   0.73986   0.11668   0.00000  Uiso   1.00
H119   H     0.59158   0.61383   0.02698   0.00000  Uiso   1.00
H120   H     0.59560   0.40086   0.29811   0.00000  Uiso   1.00
H121   H     0.30984   0.90295   0.12689   0.00000  Uiso   1.00
H122   H     0.68650   0.63718   0.93773   0.00000  Uiso   1.00
H123   H     0.65205   0.91321   0.18691   0.00000  Uiso   1.00
H124   H     0.68644   0.80436   0.27289   0.00000  Uiso   1.00
H125   H     0.55091   0.04248   0.19170   0.00000  Uiso   1.00
H126   H     0.72953   0.91644   0.10200   0.00000  Uiso   1.00
H127   H     0.70757   0.64648   0.35900   0.00000  Uiso   1.00
H128   H     0.42181   0.14857   0.18778   0.00000  Uiso   1.00
H129   H     0.79847   0.88280   0.99862   0.00000  Uiso   1.00
O130   O     0.67183   0.44690   0.38384   0.00000  Uiso   1.00
O131   O     0.29693   0.10563   0.15920   0.00000  Uiso   1.00
O132   O     0.79110   0.75694   0.91103   0.00000  Uiso   1.00
N133   N     0.61724   0.47360   0.30064   0.00000  Uiso   1.00
N134   N     0.35008   0.94302   0.14057   0.00000  Uiso   1.00
N135   N     0.70221   0.69456   0.96371   0.00000  Uiso   1.00
N136   N     0.67749   0.60576   0.33340   0.00000  Uiso   1.00
N137   N     0.41033   0.07518   0.17333   0.00000  Uiso   1.00
N138   N     0.76246   0.82673   0.99647   0.00000  Uiso   1.00
C139   C     0.94876   0.30795   0.13209   0.00000  Uiso   1.00
C140   C     0.91584   0.33586   0.18655   0.00000  Uiso   1.00
C141   C     0.92173   0.43294   0.21408   0.00000  Uiso   1.00
C142   C     0.88773   0.44264   0.26335   0.00000  Uiso   1.00
C143   C     0.84249   0.49880   0.34473   0.00000  Uiso   1.00
C144   C     0.98948   0.20649   0.14244   0.00000  Uiso   1.00
C145   C     0.05728   0.19480   0.13288   0.00000  Uiso   1.00
C146   C     0.08526   0.09557   0.14501   0.00000  Uiso   1.00
C147   C     0.15433   0.95086   0.15788   0.00000  Uiso   1.00
C148   C     0.89243   0.27497   0.09370   0.00000  Uiso   1.00
C149   C     0.87863   0.32085   0.04316   0.00000  Uiso   1.00
C150   C     0.82491   0.27927   0.01425   0.00000  Uiso   1.00
C151   C     0.74330   0.24089   0.95145   0.00000  Uiso   1.00
C152   C     0.87791   0.15252   0.17062   0.00000  Uiso   1.00
C153   C     0.87736   0.25143   0.20747   0.00000  Uiso   1.00
C154   C     0.84334   0.26098   0.25671   0.00000  Uiso   1.00
C155   C     0.84917   0.35807   0.28431   0.00000  Uiso   1.00
C156   C     0.95100   0.12207   0.16336   0.00000  Uiso   1.00
C157   C     0.97889   0.02283   0.17551   0.00000  Uiso   1.00
C158   C     0.04671   0.01100   0.16598   0.00000  Uiso   1.00
C159   C     0.85394   0.19055   0.11463   0.00000  Uiso   1.00
C160   C     0.80024   0.14889   0.08579   0.00000  Uiso   1.00
C161   C     0.78636   0.19469   0.03522   0.00000  Uiso   1.00
H162   H     0.97873   0.37367   0.11580   0.00000  Uiso   1.00
H163   H     0.95152   0.49826   0.19788   0.00000  Uiso   1.00
H164   H     0.08704   0.26014   0.11668   0.00000  Uiso   1.00
H165   H     0.90842   0.38617   0.02698   0.00000  Uiso   1.00
H166   H     0.90440   0.59914   0.29811   0.00000  Uiso   1.00
H167   H     0.19016   0.09705   0.12689   0.00000  Uiso   1.00
H168   H     0.81350   0.36282   0.93773   0.00000  Uiso   1.00
H169   H     0.84795   0.08679   0.18691   0.00000  Uiso   1.00
H170   H     0.81356   0.19564   0.27289   0.00000  Uiso   1.00
H171   H     0.94909   0.95752   0.19170   0.00000  Uiso   1.00
H172   H     0.77047   0.08356   0.10200   0.00000  Uiso   1.00
H173   H     0.79243   0.35352   0.35900   0.00000  Uiso   1.00
H174   H     0.07819   0.85143   0.18778   0.00000  Uiso   1.00
H175   H     0.70153   0.11720   0.99862   0.00000  Uiso   1.00
O176   O     0.82817   0.55310   0.38384   0.00000  Uiso   1.00
O177   O     0.20307   0.89437   0.15920   0.00000  Uiso   1.00
O178   O     0.70890   0.24306   0.91103   0.00000  Uiso   1.00
N179   N     0.88276   0.52640   0.30064   0.00000  Uiso   1.00
N180   N     0.14992   0.05698   0.14057   0.00000  Uiso   1.00
N181   N     0.79779   0.30544   0.96371   0.00000  Uiso   1.00
N182   N     0.82251   0.39424   0.33340   0.00000  Uiso   1.00
N183   N     0.08967   0.92482   0.17333   0.00000  Uiso   1.00
N184   N     0.73754   0.17327   0.99647   0.00000  Uiso   1.00
C185   C     0.55124   0.30795   0.63209   0.00000  Uiso   1.00
C186   C     0.58416   0.33586   0.68655   0.00000  Uiso   1.00
C187   C     0.57827   0.43294   0.71408   0.00000  Uiso   1.00
C188   C     0.61227   0.44264   0.76335   0.00000  Uiso   1.00
C189   C     0.65751   0.49880   0.84473   0.00000  Uiso   1.00
C190   C     0.51052   0.20649   0.64244   0.00000  Uiso   1.00
C191   C     0.44272   0.19480   0.63288   0.00000  Uiso   1.00
C192   C     0.41474   0.09557   0.64501   0.00000  Uiso   1.00
C193   C     0.34567   0.95086   0.65788   0.00000  Uiso   1.00
C194   C     0.60757   0.27497   0.59370   0.00000  Uiso   1.00
C195   C     0.62137   0.32085   0.54316   0.00000  Uiso   1.00
C196   C     0.67509   0.27927   0.51425   0.00000  Uiso   1.00
C197   C     0.75670   0.24089   0.45145   0.00000  Uiso   1.00
C198   C     0.62209   0.15252   0.67062   0.00000  Uiso   1.00
C199   C     0.62264   0.25143   0.70747   0.00000  Uiso   1.00
C200   C     0.65666   0.26098   0.75671   0.00000  Uiso   1.00
C201   C     0.65083   0.35807   0.78431   0.00000  Uiso   1.00
C202   C     0.54900   0.12207   0.66336   0.00000  Uiso   1.00
C203   C     0.52111   0.02283   0.67551   0.00000  Uiso   1.00
C204   C     0.45329   0.01100   0.66598   0.00000  Uiso   1.00
C205   C     0.64606   0.19055   0.61463   0.00000  Uiso   1.00
C206   C     0.69976   0.14889   0.58579   0.00000  Uiso   1.00
C207   C     0.71364   0.19469   0.53522   0.00000  Uiso   1.00
H208   H     0.52127   0.37367   0.61580   0.00000  Uiso   1.00
H209   H     0.54848   0.49826   0.69788   0.00000  Uiso   1.00
H210   H     0.41296   0.26014   0.61668   0.00000  Uiso   1.00
H211   H     0.59158   0.38617   0.52698   0.00000  Uiso   1.00
H212   H     0.59560   0.59914   0.79811   0.00000  Uiso   1.00
H213   H     0.30984   0.09705   0.62689   0.00000  Uiso   1.00
H214   H     0.68650   0.36282   0.43773   0.00000  Uiso   1.00
H215   H     0.65205   0.08679   0.68691   0.00000  Uiso   1.00
H216   H     0.68644   0.19564   0.77289   0.00000  Uiso   1.00
H217   H     0.55091   0.95752   0.69170   0.00000  Uiso   1.00
H218   H     0.72953   0.08356   0.60200   0.00000  Uiso   1.00
H219   H     0.70757   0.35352   0.85900   0.00000  Uiso   1.00
H220   H     0.42181   0.85143   0.68778   0.00000  Uiso   1.00
H221   H     0.79847   0.11720   0.49862   0.00000  Uiso   1.00
O222   O     0.67183   0.55310   0.88384   0.00000  Uiso   1.00
O223   O     0.29693   0.89437   0.65920   0.00000  Uiso   1.00
O224   O     0.79110   0.24306   0.41103   0.00000  Uiso   1.00
N225   N     0.61724   0.52640   0.80064   0.00000  Uiso   1.00
N226   N     0.35008   0.05698   0.64057   0.00000  Uiso   1.00
N227   N     0.70221   0.30544   0.46371   0.00000  Uiso   1.00
N228   N     0.67749   0.39424   0.83340   0.00000  Uiso   1.00
N229   N     0.41033   0.92482   0.67333   0.00000  Uiso   1.00
N230   N     0.76246   0.17327   0.49647   0.00000  Uiso   1.00
C231   C     0.94876   0.69205   0.63209   0.00000  Uiso   1.00
C232   C     0.91584   0.66414   0.68655   0.00000  Uiso   1.00
C233   C     0.92173   0.56706   0.71408   0.00000  Uiso   1.00
C234   C     0.88773   0.55736   0.76335   0.00000  Uiso   1.00
C235   C     0.84249   0.50120   0.84473   0.00000  Uiso   1.00
C236   C     0.98948   0.79351   0.64244   0.00000  Uiso   1.00
C237   C     0.05728   0.80520   0.63288   0.00000  Uiso   1.00
C238   C     0.08526   0.90443   0.64501   0.00000  Uiso   1.00
C239   C     0.15433   0.04914   0.65788   0.00000  Uiso   1.00
C240   C     0.89243   0.72503   0.59370   0.00000  Uiso   1.00
C241   C     0.87863   0.67915   0.54316   0.00000  Uiso   1.00
C242   C     0.82491   0.72073   0.51425   0.00000  Uiso   1.00
C243   C     0.74330   0.75911   0.45145   0.00000  Uiso   1.00
C244   C     0.87791   0.84748   0.67062   0.00000  Uiso   1.00
C245   C     0.87736   0.74857   0.70747   0.00000  Uiso   1.00
C246   C     0.84334   0.73902   0.75671   0.00000  Uiso   1.00
C247   C     0.84917   0.64193   0.78431   0.00000  Uiso   1.00
C248   C     0.95100   0.87793   0.66336   0.00000  Uiso   1.00
C249   C     0.97889   0.97717   0.67551   0.00000  Uiso   1.00
C250   C     0.04671   0.98900   0.66598   0.00000  Uiso   1.00
C251   C     0.85394   0.80945   0.61463   0.00000  Uiso   1.00
C252   C     0.80024   0.85111   0.58579   0.00000  Uiso   1.00
C253   C     0.78636   0.80531   0.53522   0.00000  Uiso   1.00
H254   H     0.97873   0.62633   0.61580   0.00000  Uiso   1.00
H255   H     0.95152   0.50174   0.69788   0.00000  Uiso   1.00
H256   H     0.08704   0.73986   0.61668   0.00000  Uiso   1.00
H257   H     0.90842   0.61383   0.52698   0.00000  Uiso   1.00
H258   H     0.90440   0.40086   0.79811   0.00000  Uiso   1.00
H259   H     0.19016   0.90295   0.62689   0.00000  Uiso   1.00
H260   H     0.81350   0.63718   0.43773   0.00000  Uiso   1.00
H261   H     0.84795   0.91321   0.68691   0.00000  Uiso   1.00
H262   H     0.81356   0.80436   0.77289   0.00000  Uiso   1.00
H263   H     0.94909   0.04248   0.69170   0.00000  Uiso   1.00
H264   H     0.77047   0.91644   0.60200   0.00000  Uiso   1.00
H265   H     0.79243   0.64648   0.85900   0.00000  Uiso   1.00
H266   H     0.07819   0.14857   0.68778   0.00000  Uiso   1.00
H267   H     0.70153   0.88280   0.49862   0.00000  Uiso   1.00
O268   O     0.82817   0.44690   0.88384   0.00000  Uiso   1.00
O269   O     0.20307   0.10563   0.65920   0.00000  Uiso   1.00
O270   O     0.70890   0.75694   0.41103   0.00000  Uiso   1.00
N271   N     0.88276   0.47360   0.80064   0.00000  Uiso   1.00
N272   N     0.14992   0.94302   0.64057   0.00000  Uiso   1.00
N273   N     0.79779   0.69456   0.46371   0.00000  Uiso   1.00
N274   N     0.82251   0.60576   0.83340   0.00000  Uiso   1.00
N275   N     0.08967   0.07518   0.67333   0.00000  Uiso   1.00
N276   N     0.73754   0.82673   0.49647   0.00000  Uiso   1.00
C277   C     0.44876   0.30795   0.86791   0.00000  Uiso   1.00
C278   C     0.41584   0.33586   0.81345   0.00000  Uiso   1.00
C279   C     0.42173   0.43294   0.78592   0.00000  Uiso   1.00
C280   C     0.38773   0.44264   0.73665   0.00000  Uiso   1.00
C281   C     0.34249   0.49880   0.65527   0.00000  Uiso   1.00
C282   C     0.48948   0.20649   0.85756   0.00000  Uiso   1.00
C283   C     0.55728   0.19480   0.86712   0.00000  Uiso   1.00
C284   C     0.58526   0.09557   0.85499   0.00000  Uiso   1.00
C285   C     0.65433   0.95086   0.84212   0.00000  Uiso   1.00
C286   C     0.39243   0.27497   0.90630   0.00000  Uiso   1.00
C287   C     0.37863   0.32085   0.95684   0.00000  Uiso   1.00
C288   C     0.32491   0.27927   0.98575   0.00000  Uiso   1.00
C289   C     0.24330   0.24089   0.04855   0.00000  Uiso   1.00
C290   C     0.37791   0.15252   0.82938   0.00000  Uiso   1.00
C291   C     0.37736   0.25143   0.79253   0.00000  Uiso   1.00
C292   C     0.34334   0.26098   0.74329   0.00000  Uiso   1.00
C293   C     0.34917   0.35807   0.71569   0.00000  Uiso   1.00
C294   C     0.45100   0.12207   0.83664   0.00000  Uiso   1.00
C295   C     0.47889   0.02283   0.82449   0.00000  Uiso   1.00
C296   C     0.54671   0.01100   0.83402   0.00000  Uiso   1.00
C297   C     0.35394   0.19055   0.88537   0.00000  Uiso   1.00
C298   C     0.30024   0.14889   0.91421   0.00000  Uiso   1.00
C299   C     0.28636   0.19469   0.96478   0.00000  Uiso   1.00
H300   H     0.47873   0.37367   0.88420   0.00000  Uiso   1.00
H301   H     0.45152   0.49826   0.80212   0.00000  Uiso   1.00
H302   H     0.58704   0.26014   0.88332   0.00000  Uiso   1.00
H303   H     0.40842   0.38617   0.97302   0.00000  Uiso   1.00
H304   H     0.40440   0.59914   0.70189   0.00000  Uiso   1.00
H305   H     0.69016   0.09705   0.87311   0.00000  Uiso   1.00
H306   H     0.31350   0.36282   0.06227   0.00000  Uiso   1.00
H307   H     0.34795   0.08679   0.81309   0.00000  Uiso   1.00
H308   H     0.31356   0.19564   0.72711   0.00000  Uiso   1.00
H309   H     0.44909   0.95752   0.80830   0.00000  Uiso   1.00
H310   H     0.27047   0.08356   0.89800   0.00000  Uiso   1.00
H311   H     0.29243   0.35352   0.64100   0.00000  Uiso   1.00
H312   H     0.57819   0.85143   0.81222   0.00000  Uiso   1.00
H313   H     0.20153   0.11720   0.00138   0.00000  Uiso   1.00
O314   O     0.32817   0.55310   0.61616   0.00000  Uiso   1.00
O315   O     0.70307   0.89437   0.84080   0.00000  Uiso   1.00
O316   O     0.20890   0.24306   0.08897   0.00000  Uiso   1.00
N317   N     0.38276   0.52640   0.69936   0.00000  Uiso   1.00
N318   N     0.64992   0.05698   0.85943   0.00000  Uiso   1.00
N319   N     0.29779   0.30544   0.03629   0.00000  Uiso   1.00
N320   N     0.32251   0.39424   0.66660   0.00000  Uiso   1.00
N321   N     0.58967   0.92482   0.82667   0.00000  Uiso   1.00
N322   N     0.23754   0.17327   0.00353   0.00000  Uiso   1.00
C323   C     0.05124   0.69205   0.86791   0.00000  Uiso   1.00
C324   C     0.08416   0.66414   0.81345   0.00000  Uiso   1.00
C325   C     0.07827   0.56706   0.78592   0.00000  Uiso   1.00
C326   C     0.11227   0.55736   0.73665   0.00000  Uiso   1.00
C327   C     0.15751   0.50120   0.65527   0.00000  Uiso   1.00
C328   C     0.01052   0.79351   0.85756   0.00000  Uiso   1.00
C329   C     0.94272   0.80520   0.86712   0.00000  Uiso   1.00
C330   C     0.91474   0.90443   0.85499   0.00000  Uiso   1.00
C331   C     0.84567   0.04914   0.84212   0.00000  Uiso   1.00
C332   C     0.10757   0.72503   0.90630   0.00000  Uiso   1.00
C333   C     0.12137   0.67915   0.95684   0.00000  Uiso   1.00
C334   C     0.17509   0.72073   0.98575   0.00000  Uiso   1.00
C335   C     0.25670   0.75911   0.04855   0.00000  Uiso   1.00
C336   C     0.12209   0.84748   0.82938   0.00000  Uiso   1.00
C337   C     0.12264   0.74857   0.79253   0.00000  Uiso   1.00
C338   C     0.15666   0.73902   0.74329   0.00000  Uiso   1.00
C339   C     0.15083   0.64193   0.71569   0.00000  Uiso   1.00
C340   C     0.04900   0.87793   0.83664   0.00000  Uiso   1.00
C341   C     0.02111   0.97717   0.82449   0.00000  Uiso   1.00
C342   C     0.95329   0.98900   0.83402   0.00000  Uiso   1.00
C343   C     0.14606   0.80945   0.88537   0.00000  Uiso   1.00
C344   C     0.19976   0.85111   0.91421   0.00000  Uiso   1.00
C345   C     0.21364   0.80531   0.96478   0.00000  Uiso   1.00
H346   H     0.02127   0.62633   0.88420   0.00000  Uiso   1.00
H347   H     0.04848   0.50174   0.80212   0.00000  Uiso   1.00
H348   H     0.91296   0.73986   0.88332   0.00000  Uiso   1.00
H349   H     0.09158   0.61383   0.97302   0.00000  Uiso   1.00
H350   H     0.09560   0.40086   0.70189   0.00000  Uiso   1.00
H351   H     0.80984   0.90295   0.87311   0.00000  Uiso   1.00
H352   H     0.18650   0.63718   0.06227   0.00000  Uiso   1.00
H353   H     0.15205   0.91321   0.81309   0.00000  Uiso   1.00
H354   H     0.18644   0.80436   0.72711   0.00000  Uiso   1.00
H355   H     0.05091   0.04248   0.80830   0.00000  Uiso   1.00
H356   H     0.22953   0.91644   0.89800   0.00000  Uiso   1.00
H357   H     0.20757   0.64648   0.64100   0.00000  Uiso   1.00
H358   H     0.92181   0.14857   0.81222   0.00000  Uiso   1.00
H359   H     0.29847   0.88280   0.00138   0.00000  Uiso   1.00
O360   O     0.17183   0.44690   0.61616   0.00000  Uiso   1.00
O361   O     0.79693   0.10563   0.84080   0.00000  Uiso   1.00
O362   O     0.29110   0.75694   0.08897   0.00000  Uiso   1.00
N363   N     0.11724   0.47360   0.69936   0.00000  Uiso   1.00
N364   N     0.85008   0.94302   0.85943   0.00000  Uiso   1.00
N365   N     0.20221   0.69456   0.03629   0.00000  Uiso   1.00
N366   N     0.17749   0.60576   0.66660   0.00000  Uiso   1.00
N367   N     0.91033   0.07518   0.82667   0.00000  Uiso   1.00
N368   N     0.26246   0.82673   0.00353   0.00000  Uiso   1.00
