data_job_00317
_audit_creation_date              2018-12-19
_audit_creation_method            'Materials Studio'
_symmetry_space_group_name_H-M    'P1'
_symmetry_Int_Tables_number       1
_symmetry_cell_setting            triclinic
loop_
_symmetry_equiv_pos_as_xyz
  x,y,z
_cell_length_a                    20.0943
_cell_length_b                    23.8547
_cell_length_c                    10.1636
_cell_angle_alpha                 90.0000
_cell_angle_beta                  90.0000
_cell_angle_gamma                 90.0000
loop_
_atom_site_label
_atom_site_type_symbol
_atom_site_fract_x
_atom_site_fract_y
_atom_site_fract_z
_atom_site_U_iso_or_equiv
_atom_site_adp_type
_atom_site_occupancy
C1     C     0.03616   0.67939   0.34618   0.00000  Uiso   1.00
C2     C     0.06791   0.63597   0.25571   0.00000  Uiso   1.00
C3     C     0.07759   0.64184   0.12122   0.00000  Uiso   1.00
C4     C     0.10750   0.59733   0.05600   0.00000  Uiso   1.00
C5     C     0.15379   0.53729   0.90532   0.00000  Uiso   1.00
C6     C     0.97807   0.64985   0.41335   0.00000  Uiso   1.00
C7     C     0.91223   0.66739   0.41142   0.00000  Uiso   1.00
C8     C     0.86651   0.63457   0.47892   0.00000  Uiso   1.00
C9     C     0.77334   0.59610   0.57306   0.00000  Uiso   1.00
C10    C     0.08709   0.69104   0.45400   0.00000  Uiso   1.00
C11    C     0.11290   0.74322   0.48628   0.00000  Uiso   1.00
C12    C     0.15895   0.74508   0.58803   0.00000  Uiso   1.00
C13    C     0.23505   0.77056   0.74528   0.00000  Uiso   1.00
C14    C     0.07204   0.58991   0.46952   0.00000  Uiso   1.00
C15    C     0.08739   0.58737   0.32271   0.00000  Uiso   1.00
C16    C     0.11729   0.54284   0.25768   0.00000  Uiso   1.00
C17    C     0.12702   0.54864   0.12311   0.00000  Uiso   1.00
C18    C     0.99756   0.60124   0.48034   0.00000  Uiso   1.00
C19    C     0.95192   0.56839   0.54787   0.00000  Uiso   1.00
C20    C     0.88603   0.58588   0.54604   0.00000  Uiso   1.00
C21    C     0.10658   0.64243   0.52099   0.00000  Uiso   1.00
C22    C     0.15260   0.64421   0.62272   0.00000  Uiso   1.00
C23    C     0.17847   0.69639   0.65514   0.00000  Uiso   1.00
H24    H     0.02098   0.71723   0.29403   0.00000  Uiso   1.00
H25    H     0.06250   0.67946   0.06941   0.00000  Uiso   1.00
H26    H     0.89716   0.70501   0.35958   0.00000  Uiso   1.00
H27    H     0.09780   0.78082   0.43442   0.00000  Uiso   1.00
H28    H     0.11710   0.61614   0.84991   0.00000  Uiso   1.00
H29    H     0.76848   0.67002   0.46178   0.00000  Uiso   1.00
H30    H     0.19157   0.82989   0.61959   0.00000  Uiso   1.00
H31    H     0.08721   0.55207   0.52168   0.00000  Uiso   1.00
H32    H     0.13237   0.50523   0.30954   0.00000  Uiso   1.00
H33    H     0.96702   0.53078   0.59971   0.00000  Uiso   1.00
H34    H     0.16767   0.60659   0.67454   0.00000  Uiso   1.00
H35    H     0.17380   0.47473   0.04481   0.00000  Uiso   1.00
H36    H     0.82518   0.52862   0.65669   0.00000  Uiso   1.00
H37    H     0.24827   0.68848   0.81449   0.00000  Uiso   1.00
O38    O     0.17394   0.51760   0.80370   0.00000  Uiso   1.00
O39    O     0.71656   0.58830   0.60647   0.00000  Uiso   1.00
O40    O     0.27165   0.79804   0.81350   0.00000  Uiso   1.00
N41    N     0.12426   0.58929   0.92490   0.00000  Uiso   1.00
N42    N     0.79832   0.63967   0.49694   0.00000  Uiso   1.00
N43    N     0.19386   0.78913   0.64451   0.00000  Uiso   1.00
N44    N     0.15477   0.51320   0.02977   0.00000  Uiso   1.00
N45    N     0.82883   0.56357   0.60182   0.00000  Uiso   1.00
N46    N     0.22437   0.71304   0.74938   0.00000  Uiso   1.00
C47    C     0.03616   0.17939   0.84618   0.00000  Uiso   1.00
C48    C     0.06791   0.13597   0.75571   0.00000  Uiso   1.00
C49    C     0.07759   0.14184   0.62122   0.00000  Uiso   1.00
C50    C     0.10750   0.09733   0.55600   0.00000  Uiso   1.00
C51    C     0.15379   0.03729   0.40532   0.00000  Uiso   1.00
C52    C     0.97807   0.14985   0.91335   0.00000  Uiso   1.00
C53    C     0.91223   0.16739   0.91142   0.00000  Uiso   1.00
C54    C     0.86651   0.13457   0.97892   0.00000  Uiso   1.00
C55    C     0.77334   0.09610   0.07306   0.00000  Uiso   1.00
C56    C     0.08709   0.19104   0.95400   0.00000  Uiso   1.00
C57    C     0.11290   0.24322   0.98628   0.00000  Uiso   1.00
C58    C     0.15895   0.24508   0.08803   0.00000  Uiso   1.00
C59    C     0.23505   0.27056   0.24528   0.00000  Uiso   1.00
C60    C     0.07204   0.08991   0.96952   0.00000  Uiso   1.00
C61    C     0.08739   0.08737   0.82271   0.00000  Uiso   1.00
C62    C     0.11729   0.04284   0.75768   0.00000  Uiso   1.00
C63    C     0.12702   0.04864   0.62311   0.00000  Uiso   1.00
C64    C     0.99756   0.10124   0.98034   0.00000  Uiso   1.00
C65    C     0.95192   0.06839   0.04787   0.00000  Uiso   1.00
C66    C     0.88603   0.08588   0.04604   0.00000  Uiso   1.00
C67    C     0.10658   0.14243   0.02099   0.00000  Uiso   1.00
C68    C     0.15260   0.14421   0.12272   0.00000  Uiso   1.00
C69    C     0.17847   0.19639   0.15514   0.00000  Uiso   1.00
H70    H     0.02098   0.21723   0.79403   0.00000  Uiso   1.00
H71    H     0.06250   0.17946   0.56941   0.00000  Uiso   1.00
H72    H     0.89716   0.20501   0.85958   0.00000  Uiso   1.00
H73    H     0.09780   0.28082   0.93442   0.00000  Uiso   1.00
H74    H     0.11710   0.11614   0.34991   0.00000  Uiso   1.00
H75    H     0.76848   0.17002   0.96178   0.00000  Uiso   1.00
H76    H     0.19157   0.32989   0.11959   0.00000  Uiso   1.00
H77    H     0.08721   0.05207   0.02168   0.00000  Uiso   1.00
H78    H     0.13237   0.00523   0.80954   0.00000  Uiso   1.00
H79    H     0.96702   0.03078   0.09971   0.00000  Uiso   1.00
H80    H     0.16767   0.10659   0.17454   0.00000  Uiso   1.00
H81    H     0.17380   0.97473   0.54481   0.00000  Uiso   1.00
H82    H     0.82518   0.02862   0.15669   0.00000  Uiso   1.00
H83    H     0.24827   0.18848   0.31449   0.00000  Uiso   1.00
O84    O     0.17394   0.01760   0.30370   0.00000  Uiso   1.00
O85    O     0.71656   0.08830   0.10647   0.00000  Uiso   1.00
O86    O     0.27165   0.29804   0.31350   0.00000  Uiso   1.00
N87    N     0.12426   0.08929   0.42490   0.00000  Uiso   1.00
N88    N     0.79832   0.13967   0.99694   0.00000  Uiso   1.00
N89    N     0.19386   0.28913   0.14451   0.00000  Uiso   1.00
N90    N     0.15477   0.01320   0.52977   0.00000  Uiso   1.00
N91    N     0.82883   0.06357   0.10182   0.00000  Uiso   1.00
N92    N     0.22437   0.21304   0.24938   0.00000  Uiso   1.00
C93    C     0.96384   0.32061   0.34618   0.00000  Uiso   1.00
C94    C     0.93209   0.36403   0.25571   0.00000  Uiso   1.00
C95    C     0.92241   0.35816   0.12122   0.00000  Uiso   1.00
C96    C     0.89250   0.40267   0.05600   0.00000  Uiso   1.00
C97    C     0.84621   0.46271   0.90532   0.00000  Uiso   1.00
C98    C     0.02193   0.35015   0.41335   0.00000  Uiso   1.00
C99    C     0.08777   0.33261   0.41142   0.00000  Uiso   1.00
C100   C     0.13349   0.36543   0.47892   0.00000  Uiso   1.00
C101   C     0.22666   0.40390   0.57306   0.00000  Uiso   1.00
C102   C     0.91291   0.30896   0.45400   0.00000  Uiso   1.00
C103   C     0.88710   0.25678   0.48628   0.00000  Uiso   1.00
C104   C     0.84105   0.25492   0.58803   0.00000  Uiso   1.00
C105   C     0.76495   0.22944   0.74528   0.00000  Uiso   1.00
C106   C     0.92796   0.41009   0.46952   0.00000  Uiso   1.00
C107   C     0.91261   0.41263   0.32271   0.00000  Uiso   1.00
C108   C     0.88271   0.45716   0.25768   0.00000  Uiso   1.00
C109   C     0.87298   0.45136   0.12311   0.00000  Uiso   1.00
C110   C     0.00244   0.39876   0.48034   0.00000  Uiso   1.00
C111   C     0.04808   0.43161   0.54787   0.00000  Uiso   1.00
C112   C     0.11397   0.41412   0.54604   0.00000  Uiso   1.00
C113   C     0.89342   0.35757   0.52099   0.00000  Uiso   1.00
C114   C     0.84740   0.35579   0.62272   0.00000  Uiso   1.00
C115   C     0.82153   0.30361   0.65514   0.00000  Uiso   1.00
H116   H     0.97902   0.28277   0.29403   0.00000  Uiso   1.00
H117   H     0.93750   0.32054   0.06941   0.00000  Uiso   1.00
H118   H     0.10284   0.29499   0.35958   0.00000  Uiso   1.00
H119   H     0.90220   0.21918   0.43442   0.00000  Uiso   1.00
H120   H     0.88290   0.38386   0.84991   0.00000  Uiso   1.00
H121   H     0.23152   0.32998   0.46178   0.00000  Uiso   1.00
H122   H     0.80843   0.17011   0.61959   0.00000  Uiso   1.00
H123   H     0.91279   0.44793   0.52168   0.00000  Uiso   1.00
H124   H     0.86763   0.49477   0.30954   0.00000  Uiso   1.00
H125   H     0.03298   0.46922   0.59971   0.00000  Uiso   1.00
H126   H     0.83233   0.39341   0.67454   0.00000  Uiso   1.00
H127   H     0.82620   0.52527   0.04481   0.00000  Uiso   1.00
H128   H     0.17482   0.47138   0.65669   0.00000  Uiso   1.00
H129   H     0.75173   0.31152   0.81449   0.00000  Uiso   1.00
O130   O     0.82606   0.48240   0.80370   0.00000  Uiso   1.00
O131   O     0.28344   0.41170   0.60647   0.00000  Uiso   1.00
O132   O     0.72835   0.20196   0.81350   0.00000  Uiso   1.00
N133   N     0.87574   0.41071   0.92490   0.00000  Uiso   1.00
N134   N     0.20168   0.36033   0.49694   0.00000  Uiso   1.00
N135   N     0.80614   0.21087   0.64451   0.00000  Uiso   1.00
N136   N     0.84523   0.48680   0.02977   0.00000  Uiso   1.00
N137   N     0.17117   0.43643   0.60182   0.00000  Uiso   1.00
N138   N     0.77563   0.28696   0.74938   0.00000  Uiso   1.00
C139   C     0.96384   0.82061   0.84618   0.00000  Uiso   1.00
C140   C     0.93209   0.86403   0.75571   0.00000  Uiso   1.00
C141   C     0.92241   0.85816   0.62122   0.00000  Uiso   1.00
C142   C     0.89250   0.90267   0.55600   0.00000  Uiso   1.00
C143   C     0.84621   0.96271   0.40532   0.00000  Uiso   1.00
C144   C     0.02193   0.85015   0.91335   0.00000  Uiso   1.00
C145   C     0.08777   0.83261   0.91142   0.00000  Uiso   1.00
C146   C     0.13349   0.86543   0.97892   0.00000  Uiso   1.00
C147   C     0.22666   0.90390   0.07306   0.00000  Uiso   1.00
C148   C     0.91291   0.80896   0.95400   0.00000  Uiso   1.00
C149   C     0.88710   0.75678   0.98628   0.00000  Uiso   1.00
C150   C     0.84105   0.75492   0.08803   0.00000  Uiso   1.00
C151   C     0.76495   0.72944   0.24528   0.00000  Uiso   1.00
C152   C     0.92796   0.91009   0.96952   0.00000  Uiso   1.00
C153   C     0.91261   0.91263   0.82271   0.00000  Uiso   1.00
C154   C     0.88271   0.95716   0.75768   0.00000  Uiso   1.00
C155   C     0.87298   0.95136   0.62311   0.00000  Uiso   1.00
C156   C     0.00244   0.89876   0.98034   0.00000  Uiso   1.00
C157   C     0.04808   0.93161   0.04787   0.00000  Uiso   1.00
C158   C     0.11397   0.91412   0.04604   0.00000  Uiso   1.00
C159   C     0.89342   0.85757   0.02099   0.00000  Uiso   1.00
C160   C     0.84740   0.85579   0.12272   0.00000  Uiso   1.00
C161   C     0.82153   0.80361   0.15514   0.00000  Uiso   1.00
H162   H     0.97902   0.78277   0.79403   0.00000  Uiso   1.00
H163   H     0.93750   0.82054   0.56941   0.00000  Uiso   1.00
H164   H     0.10284   0.79499   0.85958   0.00000  Uiso   1.00
H165   H     0.90220   0.71918   0.93442   0.00000  Uiso   1.00
H166   H     0.88290   0.88386   0.34991   0.00000  Uiso   1.00
H167   H     0.23152   0.82998   0.96178   0.00000  Uiso   1.00
H168   H     0.80843   0.67011   0.11959   0.00000  Uiso   1.00
H169   H     0.91279   0.94793   0.02168   0.00000  Uiso   1.00
H170   H     0.86763   0.99477   0.80954   0.00000  Uiso   1.00
H171   H     0.03298   0.96922   0.09971   0.00000  Uiso   1.00
H172   H     0.83233   0.89341   0.17454   0.00000  Uiso   1.00
H173   H     0.82620   0.02527   0.54481   0.00000  Uiso   1.00
H174   H     0.17482   0.97138   0.15669   0.00000  Uiso   1.00
H175   H     0.75173   0.81152   0.31449   0.00000  Uiso   1.00
O176   O     0.82606   0.98240   0.30370   0.00000  Uiso   1.00
O177   O     0.28344   0.91170   0.10647   0.00000  Uiso   1.00
O178   O     0.72835   0.70196   0.31350   0.00000  Uiso   1.00
N179   N     0.87574   0.91071   0.42490   0.00000  Uiso   1.00
N180   N     0.20168   0.86033   0.99694   0.00000  Uiso   1.00
N181   N     0.80614   0.71087   0.14451   0.00000  Uiso   1.00
N182   N     0.84523   0.98680   0.52977   0.00000  Uiso   1.00
N183   N     0.17117   0.93643   0.10182   0.00000  Uiso   1.00
N184   N     0.77563   0.78696   0.24938   0.00000  Uiso   1.00
C185   C     0.53616   0.82061   0.34618   0.00000  Uiso   1.00
C186   C     0.56791   0.86403   0.25571   0.00000  Uiso   1.00
C187   C     0.57759   0.85816   0.12122   0.00000  Uiso   1.00
C188   C     0.60750   0.90267   0.05600   0.00000  Uiso   1.00
C189   C     0.65379   0.96271   0.90532   0.00000  Uiso   1.00
C190   C     0.47807   0.85015   0.41335   0.00000  Uiso   1.00
C191   C     0.41223   0.83261   0.41142   0.00000  Uiso   1.00
C192   C     0.36651   0.86543   0.47892   0.00000  Uiso   1.00
C193   C     0.27334   0.90390   0.57306   0.00000  Uiso   1.00
C194   C     0.58709   0.80896   0.45400   0.00000  Uiso   1.00
C195   C     0.61290   0.75678   0.48628   0.00000  Uiso   1.00
C196   C     0.65895   0.75492   0.58803   0.00000  Uiso   1.00
C197   C     0.73505   0.72944   0.74528   0.00000  Uiso   1.00
C198   C     0.57204   0.91009   0.46952   0.00000  Uiso   1.00
C199   C     0.58739   0.91263   0.32271   0.00000  Uiso   1.00
C200   C     0.61729   0.95716   0.25768   0.00000  Uiso   1.00
C201   C     0.62702   0.95136   0.12311   0.00000  Uiso   1.00
C202   C     0.49756   0.89876   0.48034   0.00000  Uiso   1.00
C203   C     0.45192   0.93161   0.54787   0.00000  Uiso   1.00
C204   C     0.38603   0.91412   0.54604   0.00000  Uiso   1.00
C205   C     0.60658   0.85757   0.52099   0.00000  Uiso   1.00
C206   C     0.65260   0.85579   0.62272   0.00000  Uiso   1.00
C207   C     0.67847   0.80361   0.65514   0.00000  Uiso   1.00
H208   H     0.52098   0.78277   0.29403   0.00000  Uiso   1.00
H209   H     0.56250   0.82054   0.06941   0.00000  Uiso   1.00
H210   H     0.39716   0.79499   0.35958   0.00000  Uiso   1.00
H211   H     0.59780   0.71918   0.43442   0.00000  Uiso   1.00
H212   H     0.61710   0.88386   0.84991   0.00000  Uiso   1.00
H213   H     0.26848   0.82998   0.46178   0.00000  Uiso   1.00
H214   H     0.69157   0.67011   0.61959   0.00000  Uiso   1.00
H215   H     0.58721   0.94793   0.52168   0.00000  Uiso   1.00
H216   H     0.63237   0.99477   0.30954   0.00000  Uiso   1.00
H217   H     0.46702   0.96922   0.59971   0.00000  Uiso   1.00
H218   H     0.66767   0.89341   0.67454   0.00000  Uiso   1.00
H219   H     0.67380   0.02527   0.04481   0.00000  Uiso   1.00
H220   H     0.32518   0.97138   0.65669   0.00000  Uiso   1.00
H221   H     0.74827   0.81152   0.81449   0.00000  Uiso   1.00
O222   O     0.67394   0.98240   0.80370   0.00000  Uiso   1.00
O223   O     0.21656   0.91170   0.60647   0.00000  Uiso   1.00
O224   O     0.77165   0.70196   0.81350   0.00000  Uiso   1.00
N225   N     0.62426   0.91071   0.92490   0.00000  Uiso   1.00
N226   N     0.29832   0.86033   0.49694   0.00000  Uiso   1.00
N227   N     0.69386   0.71087   0.64451   0.00000  Uiso   1.00
N228   N     0.65477   0.98680   0.02977   0.00000  Uiso   1.00
N229   N     0.32883   0.93643   0.60182   0.00000  Uiso   1.00
N230   N     0.72437   0.78696   0.74938   0.00000  Uiso   1.00
C231   C     0.53616   0.32061   0.84618   0.00000  Uiso   1.00
C232   C     0.56791   0.36403   0.75571   0.00000  Uiso   1.00
C233   C     0.57759   0.35816   0.62122   0.00000  Uiso   1.00
C234   C     0.60750   0.40267   0.55600   0.00000  Uiso   1.00
C235   C     0.65379   0.46271   0.40532   0.00000  Uiso   1.00
C236   C     0.47807   0.35015   0.91335   0.00000  Uiso   1.00
C237   C     0.41223   0.33261   0.91142   0.00000  Uiso   1.00
C238   C     0.36651   0.36543   0.97892   0.00000  Uiso   1.00
C239   C     0.27334   0.40390   0.07306   0.00000  Uiso   1.00
C240   C     0.58709   0.30896   0.95400   0.00000  Uiso   1.00
C241   C     0.61290   0.25678   0.98628   0.00000  Uiso   1.00
C242   C     0.65895   0.25492   0.08803   0.00000  Uiso   1.00
C243   C     0.73505   0.22944   0.24528   0.00000  Uiso   1.00
C244   C     0.57204   0.41009   0.96952   0.00000  Uiso   1.00
C245   C     0.58739   0.41263   0.82271   0.00000  Uiso   1.00
C246   C     0.61729   0.45716   0.75768   0.00000  Uiso   1.00
C247   C     0.62702   0.45136   0.62311   0.00000  Uiso   1.00
C248   C     0.49756   0.39876   0.98034   0.00000  Uiso   1.00
C249   C     0.45192   0.43161   0.04787   0.00000  Uiso   1.00
C250   C     0.38603   0.41412   0.04604   0.00000  Uiso   1.00
C251   C     0.60658   0.35757   0.02099   0.00000  Uiso   1.00
C252   C     0.65260   0.35579   0.12272   0.00000  Uiso   1.00
C253   C     0.67847   0.30361   0.15514   0.00000  Uiso   1.00
H254   H     0.52098   0.28277   0.79403   0.00000  Uiso   1.00
H255   H     0.56250   0.32054   0.56941   0.00000  Uiso   1.00
H256   H     0.39716   0.29499   0.85958   0.00000  Uiso   1.00
H257   H     0.59780   0.21918   0.93442   0.00000  Uiso   1.00
H258   H     0.61710   0.38386   0.34991   0.00000  Uiso   1.00
H259   H     0.26848   0.32998   0.96178   0.00000  Uiso   1.00
H260   H     0.69157   0.17011   0.11959   0.00000  Uiso   1.00
H261   H     0.58721   0.44793   0.02168   0.00000  Uiso   1.00
H262   H     0.63237   0.49477   0.80954   0.00000  Uiso   1.00
H263   H     0.46702   0.46922   0.09971   0.00000  Uiso   1.00
H264   H     0.66767   0.39341   0.17454   0.00000  Uiso   1.00
H265   H     0.67380   0.52527   0.54481   0.00000  Uiso   1.00
H266   H     0.32518   0.47138   0.15669   0.00000  Uiso   1.00
H267   H     0.74827   0.31152   0.31449   0.00000  Uiso   1.00
O268   O     0.67394   0.48240   0.30370   0.00000  Uiso   1.00
O269   O     0.21656   0.41170   0.10647   0.00000  Uiso   1.00
O270   O     0.77165   0.20196   0.31350   0.00000  Uiso   1.00
N271   N     0.62426   0.41071   0.42490   0.00000  Uiso   1.00
N272   N     0.29832   0.36033   0.99694   0.00000  Uiso   1.00
N273   N     0.69386   0.21087   0.14451   0.00000  Uiso   1.00
N274   N     0.65477   0.48680   0.52977   0.00000  Uiso   1.00
N275   N     0.32883   0.43643   0.10182   0.00000  Uiso   1.00
N276   N     0.72437   0.28696   0.24938   0.00000  Uiso   1.00
C277   C     0.46384   0.17939   0.34618   0.00000  Uiso   1.00
C278   C     0.43209   0.13597   0.25571   0.00000  Uiso   1.00
C279   C     0.42241   0.14184   0.12122   0.00000  Uiso   1.00
C280   C     0.39250   0.09733   0.05600   0.00000  Uiso   1.00
C281   C     0.34621   0.03729   0.90532   0.00000  Uiso   1.00
C282   C     0.52193   0.14985   0.41335   0.00000  Uiso   1.00
C283   C     0.58777   0.16739   0.41142   0.00000  Uiso   1.00
C284   C     0.63349   0.13457   0.47892   0.00000  Uiso   1.00
C285   C     0.72666   0.09610   0.57306   0.00000  Uiso   1.00
C286   C     0.41291   0.19104   0.45400   0.00000  Uiso   1.00
C287   C     0.38710   0.24322   0.48628   0.00000  Uiso   1.00
C288   C     0.34105   0.24508   0.58803   0.00000  Uiso   1.00
C289   C     0.26495   0.27056   0.74528   0.00000  Uiso   1.00
C290   C     0.42796   0.08991   0.46952   0.00000  Uiso   1.00
C291   C     0.41261   0.08737   0.32271   0.00000  Uiso   1.00
C292   C     0.38271   0.04284   0.25768   0.00000  Uiso   1.00
C293   C     0.37298   0.04864   0.12311   0.00000  Uiso   1.00
C294   C     0.50244   0.10124   0.48034   0.00000  Uiso   1.00
C295   C     0.54808   0.06839   0.54787   0.00000  Uiso   1.00
C296   C     0.61397   0.08588   0.54604   0.00000  Uiso   1.00
C297   C     0.39342   0.14243   0.52099   0.00000  Uiso   1.00
C298   C     0.34740   0.14421   0.62272   0.00000  Uiso   1.00
C299   C     0.32153   0.19639   0.65514   0.00000  Uiso   1.00
H300   H     0.47902   0.21723   0.29403   0.00000  Uiso   1.00
H301   H     0.43750   0.17946   0.06941   0.00000  Uiso   1.00
H302   H     0.60284   0.20501   0.35958   0.00000  Uiso   1.00
H303   H     0.40220   0.28082   0.43442   0.00000  Uiso   1.00
H304   H     0.38290   0.11614   0.84991   0.00000  Uiso   1.00
H305   H     0.73152   0.17002   0.46178   0.00000  Uiso   1.00
H306   H     0.30843   0.32989   0.61959   0.00000  Uiso   1.00
H307   H     0.41279   0.05207   0.52168   0.00000  Uiso   1.00
H308   H     0.36763   0.00523   0.30954   0.00000  Uiso   1.00
H309   H     0.53298   0.03078   0.59971   0.00000  Uiso   1.00
H310   H     0.33233   0.10659   0.67454   0.00000  Uiso   1.00
H311   H     0.32620   0.97473   0.04481   0.00000  Uiso   1.00
H312   H     0.67482   0.02862   0.65669   0.00000  Uiso   1.00
H313   H     0.25173   0.18848   0.81449   0.00000  Uiso   1.00
O314   O     0.32606   0.01760   0.80370   0.00000  Uiso   1.00
O315   O     0.78344   0.08830   0.60647   0.00000  Uiso   1.00
O316   O     0.22835   0.29804   0.81350   0.00000  Uiso   1.00
N317   N     0.37574   0.08929   0.92490   0.00000  Uiso   1.00
N318   N     0.70168   0.13967   0.49694   0.00000  Uiso   1.00
N319   N     0.30614   0.28913   0.64451   0.00000  Uiso   1.00
N320   N     0.34523   0.01320   0.02977   0.00000  Uiso   1.00
N321   N     0.67117   0.06357   0.60182   0.00000  Uiso   1.00
N322   N     0.27563   0.21304   0.74938   0.00000  Uiso   1.00
C323   C     0.46384   0.67939   0.84618   0.00000  Uiso   1.00
C324   C     0.43209   0.63597   0.75571   0.00000  Uiso   1.00
C325   C     0.42241   0.64184   0.62122   0.00000  Uiso   1.00
C326   C     0.39250   0.59733   0.55600   0.00000  Uiso   1.00
C327   C     0.34621   0.53729   0.40532   0.00000  Uiso   1.00
C328   C     0.52193   0.64985   0.91335   0.00000  Uiso   1.00
C329   C     0.58777   0.66739   0.91142   0.00000  Uiso   1.00
C330   C     0.63349   0.63457   0.97892   0.00000  Uiso   1.00
C331   C     0.72666   0.59610   0.07306   0.00000  Uiso   1.00
C332   C     0.41291   0.69104   0.95400   0.00000  Uiso   1.00
C333   C     0.38710   0.74322   0.98628   0.00000  Uiso   1.00
C334   C     0.34105   0.74508   0.08803   0.00000  Uiso   1.00
C335   C     0.26495   0.77056   0.24528   0.00000  Uiso   1.00
C336   C     0.42796   0.58991   0.96952   0.00000  Uiso   1.00
C337   C     0.41261   0.58737   0.82271   0.00000  Uiso   1.00
C338   C     0.38271   0.54284   0.75768   0.00000  Uiso   1.00
C339   C     0.37298   0.54864   0.62311   0.00000  Uiso   1.00
C340   C     0.50244   0.60124   0.98034   0.00000  Uiso   1.00
C341   C     0.54808   0.56839   0.04787   0.00000  Uiso   1.00
C342   C     0.61397   0.58588   0.04604   0.00000  Uiso   1.00
C343   C     0.39342   0.64243   0.02099   0.00000  Uiso   1.00
C344   C     0.34740   0.64421   0.12272   0.00000  Uiso   1.00
C345   C     0.32153   0.69639   0.15514   0.00000  Uiso   1.00
H346   H     0.47902   0.71723   0.79403   0.00000  Uiso   1.00
H347   H     0.43750   0.67946   0.56941   0.00000  Uiso   1.00
H348   H     0.60284   0.70501   0.85958   0.00000  Uiso   1.00
H349   H     0.40220   0.78082   0.93442   0.00000  Uiso   1.00
H350   H     0.38290   0.61614   0.34991   0.00000  Uiso   1.00
H351   H     0.73152   0.67002   0.96178   0.00000  Uiso   1.00
H352   H     0.30843   0.82989   0.11959   0.00000  Uiso   1.00
H353   H     0.41279   0.55207   0.02168   0.00000  Uiso   1.00
H354   H     0.36763   0.50523   0.80954   0.00000  Uiso   1.00
H355   H     0.53298   0.53078   0.09971   0.00000  Uiso   1.00
H356   H     0.33233   0.60659   0.17454   0.00000  Uiso   1.00
H357   H     0.32620   0.47473   0.54481   0.00000  Uiso   1.00
H358   H     0.67482   0.52862   0.15669   0.00000  Uiso   1.00
H359   H     0.25173   0.68848   0.31449   0.00000  Uiso   1.00
O360   O     0.32606   0.51760   0.30370   0.00000  Uiso   1.00
O361   O     0.78344   0.58830   0.10647   0.00000  Uiso   1.00
O362   O     0.22835   0.79804   0.31350   0.00000  Uiso   1.00
N363   N     0.37574   0.58929   0.42490   0.00000  Uiso   1.00
N364   N     0.70168   0.63967   0.99694   0.00000  Uiso   1.00
N365   N     0.30614   0.78913   0.14451   0.00000  Uiso   1.00
N366   N     0.34523   0.51320   0.52977   0.00000  Uiso   1.00
N367   N     0.67117   0.56357   0.10182   0.00000  Uiso   1.00
N368   N     0.27563   0.71304   0.24938   0.00000  Uiso   1.00
