data_job_05699
_audit_creation_date              2018-12-19
_audit_creation_method            'Materials Studio'
_symmetry_space_group_name_H-M    'P1'
_symmetry_Int_Tables_number       1
_symmetry_cell_setting            triclinic
loop_
_symmetry_equiv_pos_as_xyz
  x,y,z
_cell_length_a                    21.9184
_cell_length_b                    14.5879
_cell_length_c                    9.4459
_cell_angle_alpha                 90.0000
_cell_angle_beta                  85.2969
_cell_angle_gamma                 90.0000
loop_
_atom_site_label
_atom_site_type_symbol
_atom_site_fract_x
_atom_site_fract_y
_atom_site_fract_z
_atom_site_U_iso_or_equiv
_atom_site_adp_type
_atom_site_occupancy
C1     C     0.22446   0.90066   0.83582   0.00000  Uiso   1.00
C2     C     0.17305   0.86886   0.74806   0.00000  Uiso   1.00
C3     C     0.15566   0.77855   0.72858   0.00000  Uiso   1.00
C4     C     0.10755   0.76369   0.64448   0.00000  Uiso   1.00
C5     C     0.03225   0.70321   0.51762   0.00000  Uiso   1.00
C6     C     0.26763   0.95727   0.73569   0.00000  Uiso   1.00
C7     C     0.32978   0.94131   0.70583   0.00000  Uiso   1.00
C8     C     0.36128   0.00088   0.61134   0.00000  Uiso   1.00
C9     C     0.43284   0.07771   0.46536   0.00000  Uiso   1.00
C10    C     0.19531   0.96782   0.94511   0.00000  Uiso   1.00
C11    C     0.19666   0.96074   0.09133   0.00000  Uiso   1.00
C12    C     0.16729   0.02922   0.17316   0.00000  Uiso   1.00
C13    C     0.12657   0.12242   0.35233   0.00000  Uiso   1.00
C14    C     0.16991   0.03485   0.72112   0.00000  Uiso   1.00
C15    C     0.14342   0.94175   0.68575   0.00000  Uiso   1.00
C16    C     0.09532   0.92702   0.60167   0.00000  Uiso   1.00
C17    C     0.07787   0.83671   0.58207   0.00000  Uiso   1.00
C18    C     0.23801   0.03015   0.67338   0.00000  Uiso   1.00
C19    C     0.26943   0.08977   0.57892   0.00000  Uiso   1.00
C20    C     0.33161   0.07390   0.54892   0.00000  Uiso   1.00
C21    C     0.16569   0.04071   0.88281   0.00000  Uiso   1.00
C22    C     0.13631   0.10921   0.96442   0.00000  Uiso   1.00
C23    C     0.13762   0.10223   0.11074   0.00000  Uiso   1.00
H24    H     0.24752   0.84392   0.88432   0.00000  Uiso   1.00
H25    H     0.17861   0.72216   0.77680   0.00000  Uiso   1.00
H26    H     0.35269   0.88490   0.75407   0.00000  Uiso   1.00
H27    H     0.21960   0.90433   0.13951   0.00000  Uiso   1.00
H28    H     0.08915   0.61932   0.63007   0.00000  Uiso   1.00
H29    H     0.45622   0.96248   0.58218   0.00000  Uiso   1.00
H30    H     0.17556   0.00345   0.39496   0.00000  Uiso   1.00
H31    H     0.14685   0.09160   0.67261   0.00000  Uiso   1.00
H32    H     0.07240   0.98343   0.55347   0.00000  Uiso   1.00
H33    H     0.24649   0.14617   0.53073   0.00000  Uiso   1.00
H34    H     0.11339   0.16560   0.91617   0.00000  Uiso   1.00
H35    H     0.00295   0.83137   0.44880   0.00000  Uiso   1.00
H36    H     0.37003   0.17454   0.40091   0.00000  Uiso   1.00
H37    H     0.08937   0.21550   0.21368   0.00000  Uiso   1.00
O38    O     0.99891   0.64972   0.46484   0.00000  Uiso   1.00
O39    O     0.48049   0.09994   0.40203   0.00000  Uiso   1.00
O40    O     0.11228   0.15369   0.46837   0.00000  Uiso   1.00
N41    N     0.07907   0.68407   0.60379   0.00000  Uiso   1.00
N42    N     0.42226   0.00490   0.55899   0.00000  Uiso   1.00
N43    N     0.15988   0.04321   0.31887   0.00000  Uiso   1.00
N44    N     0.03269   0.79818   0.50625   0.00000  Uiso   1.00
N45    N     0.37588   0.11900   0.46145   0.00000  Uiso   1.00
N46    N     0.11350   0.15732   0.22133   0.00000  Uiso   1.00
C47    C     0.77554   0.40066   0.66418   0.00000  Uiso   1.00
C48    C     0.82695   0.36886   0.75194   0.00000  Uiso   1.00
C49    C     0.84434   0.27855   0.77142   0.00000  Uiso   1.00
C50    C     0.89245   0.26369   0.85552   0.00000  Uiso   1.00
C51    C     0.96775   0.20321   0.98238   0.00000  Uiso   1.00
C52    C     0.73237   0.45727   0.76431   0.00000  Uiso   1.00
C53    C     0.67022   0.44131   0.79417   0.00000  Uiso   1.00
C54    C     0.63872   0.50088   0.88866   0.00000  Uiso   1.00
C55    C     0.56716   0.57771   0.03464   0.00000  Uiso   1.00
C56    C     0.80469   0.46782   0.55489   0.00000  Uiso   1.00
C57    C     0.80334   0.46074   0.40867   0.00000  Uiso   1.00
C58    C     0.83271   0.52922   0.32684   0.00000  Uiso   1.00
C59    C     0.87343   0.62242   0.14767   0.00000  Uiso   1.00
C60    C     0.83009   0.53485   0.77888   0.00000  Uiso   1.00
C61    C     0.85658   0.44175   0.81425   0.00000  Uiso   1.00
C62    C     0.90468   0.42702   0.89833   0.00000  Uiso   1.00
C63    C     0.92213   0.33671   0.91793   0.00000  Uiso   1.00
C64    C     0.76199   0.53015   0.82662   0.00000  Uiso   1.00
C65    C     0.73057   0.58977   0.92108   0.00000  Uiso   1.00
C66    C     0.66839   0.57390   0.95108   0.00000  Uiso   1.00
C67    C     0.83431   0.54071   0.61719   0.00000  Uiso   1.00
C68    C     0.86369   0.60921   0.53558   0.00000  Uiso   1.00
C69    C     0.86238   0.60223   0.38926   0.00000  Uiso   1.00
H70    H     0.75248   0.34392   0.61568   0.00000  Uiso   1.00
H71    H     0.82139   0.22216   0.72320   0.00000  Uiso   1.00
H72    H     0.64731   0.38490   0.74593   0.00000  Uiso   1.00
H73    H     0.78040   0.40433   0.36049   0.00000  Uiso   1.00
H74    H     0.91085   0.11932   0.86993   0.00000  Uiso   1.00
H75    H     0.54378   0.46248   0.91782   0.00000  Uiso   1.00
H76    H     0.82444   0.50345   0.10504   0.00000  Uiso   1.00
H77    H     0.85315   0.59160   0.82739   0.00000  Uiso   1.00
H78    H     0.92760   0.48343   0.94653   0.00000  Uiso   1.00
H79    H     0.75351   0.64617   0.96927   0.00000  Uiso   1.00
H80    H     0.88661   0.66560   0.58383   0.00000  Uiso   1.00
H81    H     0.99705   0.33137   0.05120   0.00000  Uiso   1.00
H82    H     0.62997   0.67454   0.09909   0.00000  Uiso   1.00
H83    H     0.91063   0.71550   0.28632   0.00000  Uiso   1.00
O84    O     0.00109   0.14972   0.03516   0.00000  Uiso   1.00
O85    O     0.51951   0.59994   0.09797   0.00000  Uiso   1.00
O86    O     0.88772   0.65369   0.03163   0.00000  Uiso   1.00
N87    N     0.92093   0.18407   0.89621   0.00000  Uiso   1.00
N88    N     0.57774   0.50490   0.94101   0.00000  Uiso   1.00
N89    N     0.84012   0.54321   0.18113   0.00000  Uiso   1.00
N90    N     0.96731   0.29818   0.99375   0.00000  Uiso   1.00
N91    N     0.62412   0.61900   0.03855   0.00000  Uiso   1.00
N92    N     0.88650   0.65732   0.27867   0.00000  Uiso   1.00
C93    C     0.77554   0.09934   0.16418   0.00000  Uiso   1.00
C94    C     0.82695   0.13114   0.25194   0.00000  Uiso   1.00
C95    C     0.84434   0.22145   0.27142   0.00000  Uiso   1.00
C96    C     0.89245   0.23631   0.35552   0.00000  Uiso   1.00
C97    C     0.96775   0.29679   0.48238   0.00000  Uiso   1.00
C98    C     0.73237   0.04273   0.26431   0.00000  Uiso   1.00
C99    C     0.67022   0.05869   0.29417   0.00000  Uiso   1.00
C100   C     0.63872   0.99912   0.38866   0.00000  Uiso   1.00
C101   C     0.56716   0.92229   0.53464   0.00000  Uiso   1.00
C102   C     0.80469   0.03218   0.05489   0.00000  Uiso   1.00
C103   C     0.80334   0.03926   0.90867   0.00000  Uiso   1.00
C104   C     0.83271   0.97078   0.82684   0.00000  Uiso   1.00
C105   C     0.87343   0.87758   0.64767   0.00000  Uiso   1.00
C106   C     0.83009   0.96515   0.27888   0.00000  Uiso   1.00
C107   C     0.85658   0.05825   0.31425   0.00000  Uiso   1.00
C108   C     0.90468   0.07298   0.39833   0.00000  Uiso   1.00
C109   C     0.92213   0.16329   0.41793   0.00000  Uiso   1.00
C110   C     0.76199   0.96985   0.32662   0.00000  Uiso   1.00
C111   C     0.73057   0.91023   0.42108   0.00000  Uiso   1.00
C112   C     0.66839   0.92610   0.45108   0.00000  Uiso   1.00
C113   C     0.83431   0.95929   0.11719   0.00000  Uiso   1.00
C114   C     0.86369   0.89079   0.03558   0.00000  Uiso   1.00
C115   C     0.86238   0.89777   0.88926   0.00000  Uiso   1.00
H116   H     0.75248   0.15608   0.11568   0.00000  Uiso   1.00
H117   H     0.82139   0.27784   0.22320   0.00000  Uiso   1.00
H118   H     0.64731   0.11510   0.24593   0.00000  Uiso   1.00
H119   H     0.78040   0.09567   0.86049   0.00000  Uiso   1.00
H120   H     0.91085   0.38068   0.36993   0.00000  Uiso   1.00
H121   H     0.54378   0.03752   0.41782   0.00000  Uiso   1.00
H122   H     0.82444   0.99655   0.60504   0.00000  Uiso   1.00
H123   H     0.85315   0.90840   0.32739   0.00000  Uiso   1.00
H124   H     0.92760   0.01657   0.44653   0.00000  Uiso   1.00
H125   H     0.75351   0.85383   0.46927   0.00000  Uiso   1.00
H126   H     0.88661   0.83440   0.08383   0.00000  Uiso   1.00
H127   H     0.99705   0.16863   0.55120   0.00000  Uiso   1.00
H128   H     0.62997   0.82546   0.59909   0.00000  Uiso   1.00
H129   H     0.91063   0.78450   0.78632   0.00000  Uiso   1.00
O130   O     0.00109   0.35028   0.53516   0.00000  Uiso   1.00
O131   O     0.51951   0.90006   0.59797   0.00000  Uiso   1.00
O132   O     0.88772   0.84631   0.53163   0.00000  Uiso   1.00
N133   N     0.92093   0.31593   0.39621   0.00000  Uiso   1.00
N134   N     0.57774   0.99510   0.44101   0.00000  Uiso   1.00
N135   N     0.84012   0.95679   0.68113   0.00000  Uiso   1.00
N136   N     0.96731   0.20182   0.49375   0.00000  Uiso   1.00
N137   N     0.62412   0.88100   0.53855   0.00000  Uiso   1.00
N138   N     0.88650   0.84268   0.77867   0.00000  Uiso   1.00
C139   C     0.22446   0.59934   0.33582   0.00000  Uiso   1.00
C140   C     0.17305   0.63114   0.24806   0.00000  Uiso   1.00
C141   C     0.15566   0.72145   0.22858   0.00000  Uiso   1.00
C142   C     0.10755   0.73631   0.14448   0.00000  Uiso   1.00
C143   C     0.03225   0.79679   0.01762   0.00000  Uiso   1.00
C144   C     0.26763   0.54273   0.23569   0.00000  Uiso   1.00
C145   C     0.32978   0.55869   0.20583   0.00000  Uiso   1.00
C146   C     0.36128   0.49912   0.11134   0.00000  Uiso   1.00
C147   C     0.43284   0.42229   0.96536   0.00000  Uiso   1.00
C148   C     0.19531   0.53218   0.44511   0.00000  Uiso   1.00
C149   C     0.19666   0.53926   0.59133   0.00000  Uiso   1.00
C150   C     0.16729   0.47078   0.67316   0.00000  Uiso   1.00
C151   C     0.12657   0.37758   0.85233   0.00000  Uiso   1.00
C152   C     0.16991   0.46515   0.22112   0.00000  Uiso   1.00
C153   C     0.14342   0.55825   0.18575   0.00000  Uiso   1.00
C154   C     0.09532   0.57298   0.10167   0.00000  Uiso   1.00
C155   C     0.07787   0.66329   0.08207   0.00000  Uiso   1.00
C156   C     0.23801   0.46985   0.17338   0.00000  Uiso   1.00
C157   C     0.26943   0.41023   0.07892   0.00000  Uiso   1.00
C158   C     0.33161   0.42610   0.04892   0.00000  Uiso   1.00
C159   C     0.16569   0.45929   0.38281   0.00000  Uiso   1.00
C160   C     0.13631   0.39079   0.46442   0.00000  Uiso   1.00
C161   C     0.13762   0.39777   0.61074   0.00000  Uiso   1.00
H162   H     0.24752   0.65608   0.38432   0.00000  Uiso   1.00
H163   H     0.17861   0.77784   0.27680   0.00000  Uiso   1.00
H164   H     0.35269   0.61510   0.25407   0.00000  Uiso   1.00
H165   H     0.21960   0.59567   0.63951   0.00000  Uiso   1.00
H166   H     0.08915   0.88068   0.13007   0.00000  Uiso   1.00
H167   H     0.45622   0.53752   0.08218   0.00000  Uiso   1.00
H168   H     0.17556   0.49655   0.89496   0.00000  Uiso   1.00
H169   H     0.14685   0.40840   0.17261   0.00000  Uiso   1.00
H170   H     0.07240   0.51657   0.05347   0.00000  Uiso   1.00
H171   H     0.24649   0.35383   0.03073   0.00000  Uiso   1.00
H172   H     0.11339   0.33440   0.41617   0.00000  Uiso   1.00
H173   H     0.00295   0.66863   0.94880   0.00000  Uiso   1.00
H174   H     0.37003   0.32546   0.90091   0.00000  Uiso   1.00
H175   H     0.08937   0.28450   0.71368   0.00000  Uiso   1.00
O176   O     0.99891   0.85028   0.96484   0.00000  Uiso   1.00
O177   O     0.48049   0.40006   0.90203   0.00000  Uiso   1.00
O178   O     0.11228   0.34631   0.96837   0.00000  Uiso   1.00
N179   N     0.07907   0.81593   0.10379   0.00000  Uiso   1.00
N180   N     0.42226   0.49510   0.05899   0.00000  Uiso   1.00
N181   N     0.15988   0.45679   0.81887   0.00000  Uiso   1.00
N182   N     0.03269   0.70182   0.00625   0.00000  Uiso   1.00
N183   N     0.37588   0.38100   0.96145   0.00000  Uiso   1.00
N184   N     0.11350   0.34268   0.72133   0.00000  Uiso   1.00
