data_job_03845
_audit_creation_date              2018-12-19
_audit_creation_method            'Materials Studio'
_symmetry_space_group_name_H-M    'P1'
_symmetry_Int_Tables_number       1
_symmetry_cell_setting            triclinic
loop_
_symmetry_equiv_pos_as_xyz
  x,y,z
_cell_length_a                    12.2030
_cell_length_b                    12.2030
_cell_length_c                    69.5241
_cell_angle_alpha                 90.0000
_cell_angle_beta                  90.0000
_cell_angle_gamma                 120.0000
loop_
_atom_site_label
_atom_site_type_symbol
_atom_site_fract_x
_atom_site_fract_y
_atom_site_fract_z
_atom_site_U_iso_or_equiv
_atom_site_adp_type
_atom_site_occupancy
C1     C     0.30212   0.90865   0.38564   0.00000  Uiso   1.00
C2     C     0.32477   0.04003   0.38062   0.00000  Uiso   1.00
C3     C     0.40175   0.15047   0.39072   0.00000  Uiso   1.00
C4     C     0.40994   0.26107   0.38381   0.00000  Uiso   1.00
C5     C     0.45517   0.46506   0.37852   0.00000  Uiso   1.00
C6     C     0.15929   0.82446   0.38781   0.00000  Uiso   1.00
C7     C     0.09715   0.75364   0.40395   0.00000  Uiso   1.00
C8     C     0.96603   0.68277   0.40309   0.00000  Uiso   1.00
C9     C     0.75436   0.55200   0.40895   0.00000  Uiso   1.00
C10    C     0.33844   0.86148   0.36778   0.00000  Uiso   1.00
C11    C     0.42690   0.82176   0.36708   0.00000  Uiso   1.00
C12    C     0.44660   0.78202   0.34935   0.00000  Uiso   1.00
C13    C     0.51309   0.70875   0.32411   0.00000  Uiso   1.00
C14    C     0.17977   0.90869   0.35541   0.00000  Uiso   1.00
C15    C     0.25831   0.04004   0.36420   0.00000  Uiso   1.00
C16    C     0.26639   0.15051   0.35727   0.00000  Uiso   1.00
C17    C     0.34337   0.26110   0.36736   0.00000  Uiso   1.00
C18    C     0.09283   0.82448   0.37139   0.00000  Uiso   1.00
C19    C     0.96178   0.75368   0.37050   0.00000  Uiso   1.00
C20    C     0.89945   0.68278   0.38664   0.00000  Uiso   1.00
C21    C     0.27199   0.86150   0.35135   0.00000  Uiso   1.00
C22    C     0.29154   0.82181   0.33363   0.00000  Uiso   1.00
C23    C     0.38002   0.78204   0.33290   0.00000  Uiso   1.00
H24    H     0.35385   0.90863   0.39842   0.00000  Uiso   1.00
H25    H     0.45316   0.15041   0.40343   0.00000  Uiso   1.00
H26    H     0.14860   0.75364   0.41665   0.00000  Uiso   1.00
H27    H     0.47831   0.82175   0.37979   0.00000  Uiso   1.00
H28    H     0.53391   0.41848   0.40174   0.00000  Uiso   1.00
H29    H     0.89175   0.58182   0.42962   0.00000  Uiso   1.00
H30    H     0.58700   0.72545   0.35188   0.00000  Uiso   1.00
H31    H     0.12802   0.90870   0.34262   0.00000  Uiso   1.00
H32    H     0.21495   0.15050   0.34456   0.00000  Uiso   1.00
H33    H     0.91039   0.75372   0.35779   0.00000  Uiso   1.00
H34    H     0.24010   0.82184   0.32092   0.00000  Uiso   1.00
H35    H     0.34057   0.41855   0.35396   0.00000  Uiso   1.00
H36    H     0.69840   0.58188   0.38185   0.00000  Uiso   1.00
H37    H     0.39366   0.72552   0.30411   0.00000  Uiso   1.00
O38    O     0.49846   0.57756   0.38014   0.00000  Uiso   1.00
O39    O     0.65597   0.47988   0.41672   0.00000  Uiso   1.00
O40    O     0.56813   0.66834   0.31473   0.00000  Uiso   1.00
N41    N     0.47650   0.38531   0.39022   0.00000  Uiso   1.00
N42    N     0.87611   0.60310   0.41630   0.00000  Uiso   1.00
N43    N     0.52609   0.73736   0.34362   0.00000  Uiso   1.00
N44    N     0.37246   0.38535   0.36452   0.00000  Uiso   1.00
N45    N     0.77207   0.60314   0.39059   0.00000  Uiso   1.00
N46    N     0.42206   0.73740   0.31791   0.00000  Uiso   1.00
C47    C     0.09135   0.39347   0.05231   0.00000  Uiso   1.00
C48    C     0.95997   0.28474   0.04728   0.00000  Uiso   1.00
C49    C     0.84953   0.25128   0.05739   0.00000  Uiso   1.00
C50    C     0.73893   0.14887   0.05048   0.00000  Uiso   1.00
C51    C     0.53494   0.99011   0.04518   0.00000  Uiso   1.00
C52    C     0.17554   0.33483   0.05447   0.00000  Uiso   1.00
C53    C     0.24636   0.34351   0.07061   0.00000  Uiso   1.00
C54    C     0.31723   0.28327   0.06975   0.00000  Uiso   1.00
C55    C     0.44800   0.20236   0.07562   0.00000  Uiso   1.00
C56    C     0.13852   0.47696   0.03444   0.00000  Uiso   1.00
C57    C     0.17824   0.60515   0.03374   0.00000  Uiso   1.00
C58    C     0.21798   0.66458   0.01602   0.00000  Uiso   1.00
C59    C     0.29125   0.80434   0.99078   0.00000  Uiso   1.00
C60    C     0.09131   0.27108   0.02207   0.00000  Uiso   1.00
C61    C     0.95996   0.21826   0.03086   0.00000  Uiso   1.00
C62    C     0.84949   0.11587   0.02394   0.00000  Uiso   1.00
C63    C     0.73890   0.08227   0.03403   0.00000  Uiso   1.00
C64    C     0.17552   0.26836   0.03805   0.00000  Uiso   1.00
C65    C     0.24632   0.20810   0.03717   0.00000  Uiso   1.00
C66    C     0.31722   0.21667   0.05330   0.00000  Uiso   1.00
C67    C     0.13850   0.41048   0.01802   0.00000  Uiso   1.00
C68    C     0.17819   0.46973   0.00029   0.00000  Uiso   1.00
C69    C     0.21796   0.59798   0.99957   0.00000  Uiso   1.00
H70    H     0.09137   0.44522   0.06509   0.00000  Uiso   1.00
H71    H     0.84959   0.30275   0.07009   0.00000  Uiso   1.00
H72    H     0.24636   0.39497   0.08332   0.00000  Uiso   1.00
H73    H     0.17825   0.65656   0.04645   0.00000  Uiso   1.00
H74    H     0.58152   0.11544   0.06840   0.00000  Uiso   1.00
H75    H     0.41818   0.30993   0.09629   0.00000  Uiso   1.00
H76    H     0.27455   0.86155   0.01855   0.00000  Uiso   1.00
H77    H     0.09130   0.21932   0.00929   0.00000  Uiso   1.00
H78    H     0.84950   0.06445   0.01123   0.00000  Uiso   1.00
H79    H     0.24628   0.15667   0.02446   0.00000  Uiso   1.00
H80    H     0.17816   0.41826   0.98759   0.00000  Uiso   1.00
H81    H     0.58145   0.92202   0.02063   0.00000  Uiso   1.00
H82    H     0.41812   0.11652   0.04851   0.00000  Uiso   1.00
H83    H     0.27448   0.66813   0.97077   0.00000  Uiso   1.00
O84    O     0.42244   0.92090   0.04680   0.00000  Uiso   1.00
O85    O     0.52012   0.17608   0.08339   0.00000  Uiso   1.00
O86    O     0.33166   0.89979   0.98139   0.00000  Uiso   1.00
N87    N     0.61469   0.09119   0.05689   0.00000  Uiso   1.00
N88    N     0.39690   0.27301   0.08296   0.00000  Uiso   1.00
N89    N     0.26264   0.78873   0.01028   0.00000  Uiso   1.00
N90    N     0.61465   0.98711   0.03118   0.00000  Uiso   1.00
N91    N     0.39686   0.16893   0.05726   0.00000  Uiso   1.00
N92    N     0.26260   0.68466   0.98458   0.00000  Uiso   1.00
C93    C     0.60653   0.69788   0.71897   0.00000  Uiso   1.00
C94    C     0.71526   0.67523   0.71395   0.00000  Uiso   1.00
C95    C     0.74872   0.59825   0.72405   0.00000  Uiso   1.00
C96    C     0.85113   0.59006   0.71714   0.00000  Uiso   1.00
C97    C     0.00989   0.54483   0.71185   0.00000  Uiso   1.00
C98    C     0.66517   0.84071   0.72114   0.00000  Uiso   1.00
C99    C     0.65649   0.90285   0.73728   0.00000  Uiso   1.00
C100   C     0.71673   0.03397   0.73642   0.00000  Uiso   1.00
C101   C     0.79764   0.24564   0.74228   0.00000  Uiso   1.00
C102   C     0.52304   0.66156   0.70111   0.00000  Uiso   1.00
C103   C     0.39485   0.57310   0.70041   0.00000  Uiso   1.00
C104   C     0.33542   0.55340   0.68269   0.00000  Uiso   1.00
C105   C     0.19566   0.48691   0.65745   0.00000  Uiso   1.00
C106   C     0.72892   0.82023   0.68874   0.00000  Uiso   1.00
C107   C     0.78174   0.74169   0.69753   0.00000  Uiso   1.00
C108   C     0.88413   0.73361   0.69060   0.00000  Uiso   1.00
C109   C     0.91773   0.65663   0.70069   0.00000  Uiso   1.00
C110   C     0.73164   0.90717   0.70472   0.00000  Uiso   1.00
C111   C     0.79190   0.03822   0.70383   0.00000  Uiso   1.00
C112   C     0.78333   0.10055   0.71997   0.00000  Uiso   1.00
C113   C     0.58952   0.72801   0.68469   0.00000  Uiso   1.00
C114   C     0.53027   0.70846   0.66696   0.00000  Uiso   1.00
C115   C     0.40202   0.61998   0.66624   0.00000  Uiso   1.00
H116   H     0.55478   0.64615   0.73176   0.00000  Uiso   1.00
H117   H     0.69725   0.54684   0.73676   0.00000  Uiso   1.00
H118   H     0.60503   0.85140   0.74999   0.00000  Uiso   1.00
H119   H     0.34344   0.52169   0.71312   0.00000  Uiso   1.00
H120   H     0.88456   0.46609   0.73507   0.00000  Uiso   1.00
H121   H     0.69007   0.10825   0.76296   0.00000  Uiso   1.00
H122   H     0.13845   0.41300   0.68522   0.00000  Uiso   1.00
H123   H     0.78068   0.87198   0.67596   0.00000  Uiso   1.00
H124   H     0.93555   0.78505   0.67790   0.00000  Uiso   1.00
H125   H     0.84333   0.08961   0.69112   0.00000  Uiso   1.00
H126   H     0.58174   0.75990   0.65426   0.00000  Uiso   1.00
H127   H     0.07798   0.65943   0.68730   0.00000  Uiso   1.00
H128   H     0.88348   0.30160   0.71518   0.00000  Uiso   1.00
H129   H     0.33187   0.60634   0.63744   0.00000  Uiso   1.00
O130   O     0.07910   0.50154   0.71347   0.00000  Uiso   1.00
O131   O     0.82392   0.34403   0.75005   0.00000  Uiso   1.00
O132   O     0.10021   0.43187   0.64806   0.00000  Uiso   1.00
N133   N     0.90881   0.52350   0.72356   0.00000  Uiso   1.00
N134   N     0.72699   0.12389   0.74963   0.00000  Uiso   1.00
N135   N     0.21127   0.47391   0.67695   0.00000  Uiso   1.00
N136   N     0.01289   0.62754   0.69785   0.00000  Uiso   1.00
N137   N     0.83107   0.22793   0.72392   0.00000  Uiso   1.00
N138   N     0.31534   0.57794   0.65124   0.00000  Uiso   1.00
C139   C     0.69788   0.09135   0.88564   0.00000  Uiso   1.00
C140   C     0.67523   0.95997   0.88062   0.00000  Uiso   1.00
C141   C     0.59825   0.84953   0.89072   0.00000  Uiso   1.00
C142   C     0.59006   0.73893   0.88381   0.00000  Uiso   1.00
C143   C     0.54483   0.53494   0.87852   0.00000  Uiso   1.00
C144   C     0.84071   0.17554   0.88781   0.00000  Uiso   1.00
C145   C     0.90285   0.24636   0.90395   0.00000  Uiso   1.00
C146   C     0.03397   0.31723   0.90309   0.00000  Uiso   1.00
C147   C     0.24564   0.44800   0.90895   0.00000  Uiso   1.00
C148   C     0.66156   0.13852   0.86778   0.00000  Uiso   1.00
C149   C     0.57310   0.17824   0.86708   0.00000  Uiso   1.00
C150   C     0.55340   0.21798   0.84935   0.00000  Uiso   1.00
C151   C     0.48691   0.29125   0.82411   0.00000  Uiso   1.00
C152   C     0.82023   0.09131   0.85541   0.00000  Uiso   1.00
C153   C     0.74169   0.95996   0.86420   0.00000  Uiso   1.00
C154   C     0.73361   0.84949   0.85727   0.00000  Uiso   1.00
C155   C     0.65663   0.73890   0.86736   0.00000  Uiso   1.00
C156   C     0.90717   0.17552   0.87139   0.00000  Uiso   1.00
C157   C     0.03822   0.24632   0.87050   0.00000  Uiso   1.00
C158   C     0.10055   0.31722   0.88664   0.00000  Uiso   1.00
C159   C     0.72801   0.13850   0.85135   0.00000  Uiso   1.00
C160   C     0.70846   0.17819   0.83363   0.00000  Uiso   1.00
C161   C     0.61998   0.21796   0.83290   0.00000  Uiso   1.00
H162   H     0.64615   0.09137   0.89842   0.00000  Uiso   1.00
H163   H     0.54684   0.84959   0.90343   0.00000  Uiso   1.00
H164   H     0.85140   0.24636   0.91665   0.00000  Uiso   1.00
H165   H     0.52169   0.17825   0.87979   0.00000  Uiso   1.00
H166   H     0.46609   0.58152   0.90174   0.00000  Uiso   1.00
H167   H     0.10825   0.41818   0.92962   0.00000  Uiso   1.00
H168   H     0.41300   0.27455   0.85188   0.00000  Uiso   1.00
H169   H     0.87198   0.09130   0.84262   0.00000  Uiso   1.00
H170   H     0.78505   0.84950   0.84456   0.00000  Uiso   1.00
H171   H     0.08961   0.24628   0.85779   0.00000  Uiso   1.00
H172   H     0.75990   0.17816   0.82092   0.00000  Uiso   1.00
H173   H     0.65943   0.58145   0.85396   0.00000  Uiso   1.00
H174   H     0.30160   0.41812   0.88185   0.00000  Uiso   1.00
H175   H     0.60634   0.27448   0.80411   0.00000  Uiso   1.00
O176   O     0.50154   0.42244   0.88014   0.00000  Uiso   1.00
O177   O     0.34403   0.52012   0.91672   0.00000  Uiso   1.00
O178   O     0.43187   0.33166   0.81473   0.00000  Uiso   1.00
N179   N     0.52350   0.61469   0.89022   0.00000  Uiso   1.00
N180   N     0.12389   0.39690   0.91630   0.00000  Uiso   1.00
N181   N     0.47391   0.26264   0.84362   0.00000  Uiso   1.00
N182   N     0.62754   0.61465   0.86452   0.00000  Uiso   1.00
N183   N     0.22793   0.39686   0.89059   0.00000  Uiso   1.00
N184   N     0.57794   0.26260   0.81791   0.00000  Uiso   1.00
C185   C     0.90865   0.60653   0.55231   0.00000  Uiso   1.00
C186   C     0.04003   0.71526   0.54728   0.00000  Uiso   1.00
C187   C     0.15047   0.74872   0.55739   0.00000  Uiso   1.00
C188   C     0.26107   0.85113   0.55048   0.00000  Uiso   1.00
C189   C     0.46506   0.00989   0.54518   0.00000  Uiso   1.00
C190   C     0.82446   0.66517   0.55447   0.00000  Uiso   1.00
C191   C     0.75364   0.65649   0.57061   0.00000  Uiso   1.00
C192   C     0.68277   0.71673   0.56975   0.00000  Uiso   1.00
C193   C     0.55200   0.79764   0.57562   0.00000  Uiso   1.00
C194   C     0.86148   0.52304   0.53444   0.00000  Uiso   1.00
C195   C     0.82176   0.39485   0.53374   0.00000  Uiso   1.00
C196   C     0.78202   0.33542   0.51602   0.00000  Uiso   1.00
C197   C     0.70875   0.19566   0.49078   0.00000  Uiso   1.00
C198   C     0.90869   0.72892   0.52207   0.00000  Uiso   1.00
C199   C     0.04004   0.78174   0.53086   0.00000  Uiso   1.00
C200   C     0.15051   0.88413   0.52394   0.00000  Uiso   1.00
C201   C     0.26110   0.91773   0.53403   0.00000  Uiso   1.00
C202   C     0.82448   0.73164   0.53805   0.00000  Uiso   1.00
C203   C     0.75368   0.79190   0.53717   0.00000  Uiso   1.00
C204   C     0.68278   0.78333   0.55330   0.00000  Uiso   1.00
C205   C     0.86150   0.58952   0.51802   0.00000  Uiso   1.00
C206   C     0.82181   0.53027   0.50029   0.00000  Uiso   1.00
C207   C     0.78204   0.40202   0.49957   0.00000  Uiso   1.00
H208   H     0.90863   0.55478   0.56509   0.00000  Uiso   1.00
H209   H     0.15041   0.69725   0.57009   0.00000  Uiso   1.00
H210   H     0.75364   0.60503   0.58332   0.00000  Uiso   1.00
H211   H     0.82175   0.34344   0.54645   0.00000  Uiso   1.00
H212   H     0.41848   0.88456   0.56840   0.00000  Uiso   1.00
H213   H     0.58182   0.69007   0.59629   0.00000  Uiso   1.00
H214   H     0.72545   0.13845   0.51855   0.00000  Uiso   1.00
H215   H     0.90870   0.78068   0.50929   0.00000  Uiso   1.00
H216   H     0.15050   0.93555   0.51123   0.00000  Uiso   1.00
H217   H     0.75372   0.84333   0.52446   0.00000  Uiso   1.00
H218   H     0.82184   0.58174   0.48759   0.00000  Uiso   1.00
H219   H     0.41855   0.07798   0.52063   0.00000  Uiso   1.00
H220   H     0.58188   0.88348   0.54851   0.00000  Uiso   1.00
H221   H     0.72552   0.33187   0.47077   0.00000  Uiso   1.00
O222   O     0.57756   0.07910   0.54680   0.00000  Uiso   1.00
O223   O     0.47988   0.82392   0.58339   0.00000  Uiso   1.00
O224   O     0.66834   0.10021   0.48139   0.00000  Uiso   1.00
N225   N     0.38531   0.90881   0.55689   0.00000  Uiso   1.00
N226   N     0.60310   0.72699   0.58296   0.00000  Uiso   1.00
N227   N     0.73736   0.21127   0.51028   0.00000  Uiso   1.00
N228   N     0.38535   0.01289   0.53118   0.00000  Uiso   1.00
N229   N     0.60314   0.83107   0.55726   0.00000  Uiso   1.00
N230   N     0.73740   0.31534   0.48458   0.00000  Uiso   1.00
C231   C     0.39347   0.30212   0.21897   0.00000  Uiso   1.00
C232   C     0.28474   0.32477   0.21395   0.00000  Uiso   1.00
C233   C     0.25128   0.40175   0.22405   0.00000  Uiso   1.00
C234   C     0.14887   0.40994   0.21714   0.00000  Uiso   1.00
C235   C     0.99011   0.45517   0.21185   0.00000  Uiso   1.00
C236   C     0.33483   0.15929   0.22114   0.00000  Uiso   1.00
C237   C     0.34351   0.09715   0.23728   0.00000  Uiso   1.00
C238   C     0.28327   0.96603   0.23642   0.00000  Uiso   1.00
C239   C     0.20236   0.75436   0.24228   0.00000  Uiso   1.00
C240   C     0.47696   0.33844   0.20111   0.00000  Uiso   1.00
C241   C     0.60515   0.42690   0.20041   0.00000  Uiso   1.00
C242   C     0.66458   0.44660   0.18269   0.00000  Uiso   1.00
C243   C     0.80434   0.51309   0.15745   0.00000  Uiso   1.00
C244   C     0.27108   0.17977   0.18874   0.00000  Uiso   1.00
C245   C     0.21826   0.25831   0.19753   0.00000  Uiso   1.00
C246   C     0.11587   0.26639   0.19060   0.00000  Uiso   1.00
C247   C     0.08227   0.34337   0.20069   0.00000  Uiso   1.00
C248   C     0.26836   0.09283   0.20472   0.00000  Uiso   1.00
C249   C     0.20810   0.96178   0.20383   0.00000  Uiso   1.00
C250   C     0.21667   0.89945   0.21997   0.00000  Uiso   1.00
C251   C     0.41048   0.27199   0.18469   0.00000  Uiso   1.00
C252   C     0.46973   0.29154   0.16696   0.00000  Uiso   1.00
C253   C     0.59798   0.38002   0.16624   0.00000  Uiso   1.00
H254   H     0.44522   0.35385   0.23176   0.00000  Uiso   1.00
H255   H     0.30275   0.45316   0.23676   0.00000  Uiso   1.00
H256   H     0.39497   0.14860   0.24999   0.00000  Uiso   1.00
H257   H     0.65656   0.47831   0.21312   0.00000  Uiso   1.00
H258   H     0.11544   0.53391   0.23507   0.00000  Uiso   1.00
H259   H     0.30993   0.89175   0.26296   0.00000  Uiso   1.00
H260   H     0.86155   0.58700   0.18522   0.00000  Uiso   1.00
H261   H     0.21932   0.12802   0.17596   0.00000  Uiso   1.00
H262   H     0.06445   0.21495   0.17790   0.00000  Uiso   1.00
H263   H     0.15667   0.91039   0.19112   0.00000  Uiso   1.00
H264   H     0.41826   0.24010   0.15426   0.00000  Uiso   1.00
H265   H     0.92202   0.34057   0.18730   0.00000  Uiso   1.00
H266   H     0.11652   0.69840   0.21518   0.00000  Uiso   1.00
H267   H     0.66813   0.39366   0.13744   0.00000  Uiso   1.00
O268   O     0.92090   0.49846   0.21347   0.00000  Uiso   1.00
O269   O     0.17608   0.65597   0.25005   0.00000  Uiso   1.00
O270   O     0.89979   0.56813   0.14806   0.00000  Uiso   1.00
N271   N     0.09119   0.47650   0.22356   0.00000  Uiso   1.00
N272   N     0.27301   0.87611   0.24963   0.00000  Uiso   1.00
N273   N     0.78873   0.52609   0.17695   0.00000  Uiso   1.00
N274   N     0.98711   0.37246   0.19785   0.00000  Uiso   1.00
N275   N     0.16893   0.77207   0.22392   0.00000  Uiso   1.00
N276   N     0.68466   0.42206   0.15124   0.00000  Uiso   1.00
C277   C     0.90865   0.30212   0.28103   0.00000  Uiso   1.00
C278   C     0.04003   0.32477   0.28605   0.00000  Uiso   1.00
C279   C     0.15047   0.40175   0.27595   0.00000  Uiso   1.00
C280   C     0.26107   0.40994   0.28286   0.00000  Uiso   1.00
C281   C     0.46506   0.45517   0.28815   0.00000  Uiso   1.00
C282   C     0.82446   0.15929   0.27886   0.00000  Uiso   1.00
C283   C     0.75364   0.09715   0.26272   0.00000  Uiso   1.00
C284   C     0.68277   0.96603   0.26358   0.00000  Uiso   1.00
C285   C     0.55200   0.75436   0.25772   0.00000  Uiso   1.00
C286   C     0.86148   0.33844   0.29889   0.00000  Uiso   1.00
C287   C     0.82176   0.42690   0.29959   0.00000  Uiso   1.00
C288   C     0.78202   0.44660   0.31731   0.00000  Uiso   1.00
C289   C     0.70875   0.51309   0.34255   0.00000  Uiso   1.00
C290   C     0.90869   0.17977   0.31126   0.00000  Uiso   1.00
C291   C     0.04004   0.25831   0.30247   0.00000  Uiso   1.00
C292   C     0.15051   0.26639   0.30940   0.00000  Uiso   1.00
C293   C     0.26110   0.34337   0.29931   0.00000  Uiso   1.00
C294   C     0.82448   0.09283   0.29528   0.00000  Uiso   1.00
C295   C     0.75368   0.96178   0.29617   0.00000  Uiso   1.00
C296   C     0.68278   0.89945   0.28003   0.00000  Uiso   1.00
C297   C     0.86150   0.27199   0.31531   0.00000  Uiso   1.00
C298   C     0.82181   0.29154   0.33304   0.00000  Uiso   1.00
C299   C     0.78204   0.38002   0.33376   0.00000  Uiso   1.00
H300   H     0.90863   0.35385   0.26824   0.00000  Uiso   1.00
H301   H     0.15041   0.45316   0.26324   0.00000  Uiso   1.00
H302   H     0.75364   0.14860   0.25001   0.00000  Uiso   1.00
H303   H     0.82175   0.47831   0.28688   0.00000  Uiso   1.00
H304   H     0.41848   0.53391   0.26493   0.00000  Uiso   1.00
H305   H     0.58182   0.89175   0.23704   0.00000  Uiso   1.00
H306   H     0.72545   0.58700   0.31478   0.00000  Uiso   1.00
H307   H     0.90870   0.12802   0.32404   0.00000  Uiso   1.00
H308   H     0.15050   0.21495   0.32210   0.00000  Uiso   1.00
H309   H     0.75372   0.91039   0.30888   0.00000  Uiso   1.00
H310   H     0.82184   0.24010   0.34574   0.00000  Uiso   1.00
H311   H     0.41855   0.34057   0.31270   0.00000  Uiso   1.00
H312   H     0.58188   0.69840   0.28482   0.00000  Uiso   1.00
H313   H     0.72552   0.39366   0.36256   0.00000  Uiso   1.00
O314   O     0.57756   0.49846   0.28653   0.00000  Uiso   1.00
O315   O     0.47988   0.65597   0.24995   0.00000  Uiso   1.00
O316   O     0.66834   0.56813   0.35194   0.00000  Uiso   1.00
N317   N     0.38531   0.47650   0.27644   0.00000  Uiso   1.00
N318   N     0.60310   0.87611   0.25037   0.00000  Uiso   1.00
N319   N     0.73736   0.52609   0.32305   0.00000  Uiso   1.00
N320   N     0.38535   0.37246   0.30215   0.00000  Uiso   1.00
N321   N     0.60314   0.77207   0.27608   0.00000  Uiso   1.00
N322   N     0.73740   0.42206   0.34876   0.00000  Uiso   1.00
C323   C     0.39347   0.09135   0.61436   0.00000  Uiso   1.00
C324   C     0.28474   0.95997   0.61938   0.00000  Uiso   1.00
C325   C     0.25128   0.84953   0.60928   0.00000  Uiso   1.00
C326   C     0.14887   0.73893   0.61619   0.00000  Uiso   1.00
C327   C     0.99011   0.53494   0.62148   0.00000  Uiso   1.00
C328   C     0.33483   0.17554   0.61219   0.00000  Uiso   1.00
C329   C     0.34351   0.24636   0.59605   0.00000  Uiso   1.00
C330   C     0.28327   0.31723   0.59691   0.00000  Uiso   1.00
C331   C     0.20236   0.44800   0.59105   0.00000  Uiso   1.00
C332   C     0.47696   0.13852   0.63222   0.00000  Uiso   1.00
C333   C     0.60515   0.17824   0.63292   0.00000  Uiso   1.00
C334   C     0.66458   0.21798   0.65065   0.00000  Uiso   1.00
C335   C     0.80434   0.29125   0.67589   0.00000  Uiso   1.00
C336   C     0.27108   0.09131   0.64459   0.00000  Uiso   1.00
C337   C     0.21826   0.95996   0.63580   0.00000  Uiso   1.00
C338   C     0.11587   0.84949   0.64273   0.00000  Uiso   1.00
C339   C     0.08227   0.73890   0.63264   0.00000  Uiso   1.00
C340   C     0.26836   0.17552   0.62861   0.00000  Uiso   1.00
C341   C     0.20810   0.24632   0.62950   0.00000  Uiso   1.00
C342   C     0.21667   0.31722   0.61336   0.00000  Uiso   1.00
C343   C     0.41048   0.13850   0.64865   0.00000  Uiso   1.00
C344   C     0.46973   0.17819   0.66637   0.00000  Uiso   1.00
C345   C     0.59798   0.21796   0.66710   0.00000  Uiso   1.00
H346   H     0.44522   0.09137   0.60158   0.00000  Uiso   1.00
H347   H     0.30275   0.84959   0.59657   0.00000  Uiso   1.00
H348   H     0.39497   0.24636   0.58335   0.00000  Uiso   1.00
H349   H     0.65656   0.17825   0.62021   0.00000  Uiso   1.00
H350   H     0.11544   0.58152   0.59826   0.00000  Uiso   1.00
H351   H     0.30993   0.41818   0.57038   0.00000  Uiso   1.00
H352   H     0.86155   0.27455   0.64812   0.00000  Uiso   1.00
H353   H     0.21932   0.09130   0.65738   0.00000  Uiso   1.00
H354   H     0.06445   0.84950   0.65544   0.00000  Uiso   1.00
H355   H     0.15667   0.24628   0.64221   0.00000  Uiso   1.00
H356   H     0.41826   0.17816   0.67908   0.00000  Uiso   1.00
H357   H     0.92202   0.58145   0.64604   0.00000  Uiso   1.00
H358   H     0.11652   0.41812   0.61815   0.00000  Uiso   1.00
H359   H     0.66813   0.27448   0.69589   0.00000  Uiso   1.00
O360   O     0.92090   0.42244   0.61986   0.00000  Uiso   1.00
O361   O     0.17608   0.52012   0.58328   0.00000  Uiso   1.00
O362   O     0.89979   0.33166   0.68527   0.00000  Uiso   1.00
N363   N     0.09119   0.61469   0.60978   0.00000  Uiso   1.00
N364   N     0.27301   0.39690   0.58370   0.00000  Uiso   1.00
N365   N     0.78873   0.26264   0.65638   0.00000  Uiso   1.00
N366   N     0.98711   0.61465   0.63548   0.00000  Uiso   1.00
N367   N     0.16893   0.39686   0.60941   0.00000  Uiso   1.00
N368   N     0.68466   0.26260   0.68209   0.00000  Uiso   1.00
C369   C     0.69788   0.60653   0.94769   0.00000  Uiso   1.00
C370   C     0.67523   0.71526   0.95272   0.00000  Uiso   1.00
C371   C     0.59825   0.74872   0.94261   0.00000  Uiso   1.00
C372   C     0.59006   0.85113   0.94952   0.00000  Uiso   1.00
C373   C     0.54483   0.00989   0.95482   0.00000  Uiso   1.00
C374   C     0.84071   0.66517   0.94553   0.00000  Uiso   1.00
C375   C     0.90285   0.65649   0.92939   0.00000  Uiso   1.00
C376   C     0.03397   0.71673   0.93025   0.00000  Uiso   1.00
C377   C     0.24564   0.79764   0.92438   0.00000  Uiso   1.00
C378   C     0.66156   0.52304   0.96556   0.00000  Uiso   1.00
C379   C     0.57310   0.39485   0.96626   0.00000  Uiso   1.00
C380   C     0.55340   0.33542   0.98398   0.00000  Uiso   1.00
C381   C     0.48691   0.19566   0.00922   0.00000  Uiso   1.00
C382   C     0.82023   0.72892   0.97793   0.00000  Uiso   1.00
C383   C     0.74169   0.78174   0.96914   0.00000  Uiso   1.00
C384   C     0.73361   0.88413   0.97606   0.00000  Uiso   1.00
C385   C     0.65663   0.91773   0.96597   0.00000  Uiso   1.00
C386   C     0.90717   0.73164   0.96195   0.00000  Uiso   1.00
C387   C     0.03822   0.79190   0.96283   0.00000  Uiso   1.00
C388   C     0.10055   0.78333   0.94670   0.00000  Uiso   1.00
C389   C     0.72801   0.58952   0.98198   0.00000  Uiso   1.00
C390   C     0.70846   0.53027   0.99971   0.00000  Uiso   1.00
C391   C     0.61998   0.40202   0.00043   0.00000  Uiso   1.00
H392   H     0.64615   0.55478   0.93491   0.00000  Uiso   1.00
H393   H     0.54684   0.69725   0.92991   0.00000  Uiso   1.00
H394   H     0.85140   0.60503   0.91668   0.00000  Uiso   1.00
H395   H     0.52169   0.34344   0.95355   0.00000  Uiso   1.00
H396   H     0.46609   0.88456   0.93160   0.00000  Uiso   1.00
H397   H     0.10825   0.69007   0.90371   0.00000  Uiso   1.00
H398   H     0.41300   0.13845   0.98145   0.00000  Uiso   1.00
H399   H     0.87198   0.78068   0.99071   0.00000  Uiso   1.00
H400   H     0.78505   0.93555   0.98877   0.00000  Uiso   1.00
H401   H     0.08961   0.84333   0.97554   0.00000  Uiso   1.00
H402   H     0.75990   0.58174   0.01241   0.00000  Uiso   1.00
H403   H     0.65943   0.07798   0.97937   0.00000  Uiso   1.00
H404   H     0.30160   0.88348   0.95149   0.00000  Uiso   1.00
H405   H     0.60634   0.33187   0.02923   0.00000  Uiso   1.00
O406   O     0.50154   0.07910   0.95320   0.00000  Uiso   1.00
O407   O     0.34403   0.82392   0.91661   0.00000  Uiso   1.00
O408   O     0.43187   0.10021   0.01861   0.00000  Uiso   1.00
N409   N     0.52350   0.90881   0.94311   0.00000  Uiso   1.00
N410   N     0.12389   0.72699   0.91704   0.00000  Uiso   1.00
N411   N     0.47391   0.21127   0.98972   0.00000  Uiso   1.00
N412   N     0.62754   0.01289   0.96882   0.00000  Uiso   1.00
N413   N     0.22793   0.83107   0.94274   0.00000  Uiso   1.00
N414   N     0.57794   0.31534   0.01542   0.00000  Uiso   1.00
C415   C     0.09135   0.69788   0.78103   0.00000  Uiso   1.00
C416   C     0.95997   0.67523   0.78605   0.00000  Uiso   1.00
C417   C     0.84953   0.59825   0.77595   0.00000  Uiso   1.00
C418   C     0.73893   0.59006   0.78286   0.00000  Uiso   1.00
C419   C     0.53494   0.54483   0.78815   0.00000  Uiso   1.00
C420   C     0.17554   0.84071   0.77886   0.00000  Uiso   1.00
C421   C     0.24636   0.90285   0.76272   0.00000  Uiso   1.00
C422   C     0.31723   0.03397   0.76358   0.00000  Uiso   1.00
C423   C     0.44800   0.24564   0.75772   0.00000  Uiso   1.00
C424   C     0.13852   0.66156   0.79889   0.00000  Uiso   1.00
C425   C     0.17824   0.57310   0.79959   0.00000  Uiso   1.00
C426   C     0.21798   0.55340   0.81731   0.00000  Uiso   1.00
C427   C     0.29125   0.48691   0.84255   0.00000  Uiso   1.00
C428   C     0.09131   0.82023   0.81126   0.00000  Uiso   1.00
C429   C     0.95996   0.74169   0.80247   0.00000  Uiso   1.00
C430   C     0.84949   0.73361   0.80940   0.00000  Uiso   1.00
C431   C     0.73890   0.65663   0.79931   0.00000  Uiso   1.00
C432   C     0.17552   0.90717   0.79528   0.00000  Uiso   1.00
C433   C     0.24632   0.03822   0.79617   0.00000  Uiso   1.00
C434   C     0.31722   0.10055   0.78003   0.00000  Uiso   1.00
C435   C     0.13850   0.72801   0.81531   0.00000  Uiso   1.00
C436   C     0.17819   0.70846   0.83304   0.00000  Uiso   1.00
C437   C     0.21796   0.61998   0.83376   0.00000  Uiso   1.00
H438   H     0.09137   0.64615   0.76824   0.00000  Uiso   1.00
H439   H     0.84959   0.54684   0.76324   0.00000  Uiso   1.00
H440   H     0.24636   0.85140   0.75001   0.00000  Uiso   1.00
H441   H     0.17825   0.52169   0.78688   0.00000  Uiso   1.00
H442   H     0.58152   0.46609   0.76493   0.00000  Uiso   1.00
H443   H     0.41818   0.10825   0.73704   0.00000  Uiso   1.00
H444   H     0.27455   0.41300   0.81478   0.00000  Uiso   1.00
H445   H     0.09130   0.87198   0.82404   0.00000  Uiso   1.00
H446   H     0.84950   0.78505   0.82210   0.00000  Uiso   1.00
H447   H     0.24628   0.08961   0.80888   0.00000  Uiso   1.00
H448   H     0.17816   0.75990   0.84574   0.00000  Uiso   1.00
H449   H     0.58145   0.65943   0.81270   0.00000  Uiso   1.00
H450   H     0.41812   0.30160   0.78482   0.00000  Uiso   1.00
H451   H     0.27448   0.60634   0.86256   0.00000  Uiso   1.00
O452   O     0.42244   0.50154   0.78653   0.00000  Uiso   1.00
O453   O     0.52012   0.34403   0.74995   0.00000  Uiso   1.00
O454   O     0.33166   0.43187   0.85194   0.00000  Uiso   1.00
N455   N     0.61469   0.52350   0.77644   0.00000  Uiso   1.00
N456   N     0.39690   0.12389   0.75037   0.00000  Uiso   1.00
N457   N     0.26264   0.47391   0.82305   0.00000  Uiso   1.00
N458   N     0.61465   0.62754   0.80215   0.00000  Uiso   1.00
N459   N     0.39686   0.22793   0.77608   0.00000  Uiso   1.00
N460   N     0.26260   0.57794   0.84876   0.00000  Uiso   1.00
C461   C     0.60653   0.90865   0.11436   0.00000  Uiso   1.00
C462   C     0.71526   0.04003   0.11938   0.00000  Uiso   1.00
C463   C     0.74872   0.15047   0.10928   0.00000  Uiso   1.00
C464   C     0.85113   0.26107   0.11619   0.00000  Uiso   1.00
C465   C     0.00989   0.46506   0.12148   0.00000  Uiso   1.00
C466   C     0.66517   0.82446   0.11219   0.00000  Uiso   1.00
C467   C     0.65649   0.75364   0.09605   0.00000  Uiso   1.00
C468   C     0.71673   0.68277   0.09691   0.00000  Uiso   1.00
C469   C     0.79764   0.55200   0.09105   0.00000  Uiso   1.00
C470   C     0.52304   0.86148   0.13222   0.00000  Uiso   1.00
C471   C     0.39485   0.82176   0.13292   0.00000  Uiso   1.00
C472   C     0.33542   0.78202   0.15065   0.00000  Uiso   1.00
C473   C     0.19566   0.70875   0.17589   0.00000  Uiso   1.00
C474   C     0.72892   0.90869   0.14459   0.00000  Uiso   1.00
C475   C     0.78174   0.04004   0.13580   0.00000  Uiso   1.00
C476   C     0.88413   0.15051   0.14273   0.00000  Uiso   1.00
C477   C     0.91773   0.26110   0.13264   0.00000  Uiso   1.00
C478   C     0.73164   0.82448   0.12861   0.00000  Uiso   1.00
C479   C     0.79190   0.75368   0.12950   0.00000  Uiso   1.00
C480   C     0.78333   0.68278   0.11336   0.00000  Uiso   1.00
C481   C     0.58952   0.86150   0.14865   0.00000  Uiso   1.00
C482   C     0.53027   0.82181   0.16637   0.00000  Uiso   1.00
C483   C     0.40202   0.78204   0.16710   0.00000  Uiso   1.00
H484   H     0.55478   0.90863   0.10158   0.00000  Uiso   1.00
H485   H     0.69725   0.15041   0.09657   0.00000  Uiso   1.00
H486   H     0.60503   0.75364   0.08335   0.00000  Uiso   1.00
H487   H     0.34344   0.82175   0.12021   0.00000  Uiso   1.00
H488   H     0.88456   0.41848   0.09826   0.00000  Uiso   1.00
H489   H     0.69007   0.58182   0.07038   0.00000  Uiso   1.00
H490   H     0.13845   0.72545   0.14812   0.00000  Uiso   1.00
H491   H     0.78068   0.90870   0.15738   0.00000  Uiso   1.00
H492   H     0.93555   0.15050   0.15544   0.00000  Uiso   1.00
H493   H     0.84333   0.75372   0.14221   0.00000  Uiso   1.00
H494   H     0.58174   0.82184   0.17908   0.00000  Uiso   1.00
H495   H     0.07798   0.41855   0.14604   0.00000  Uiso   1.00
H496   H     0.88348   0.58188   0.11815   0.00000  Uiso   1.00
H497   H     0.33187   0.72552   0.19589   0.00000  Uiso   1.00
O498   O     0.07910   0.57756   0.11986   0.00000  Uiso   1.00
O499   O     0.82392   0.47988   0.08328   0.00000  Uiso   1.00
O500   O     0.10021   0.66834   0.18527   0.00000  Uiso   1.00
N501   N     0.90881   0.38531   0.10978   0.00000  Uiso   1.00
N502   N     0.72699   0.60310   0.08370   0.00000  Uiso   1.00
N503   N     0.21127   0.73736   0.15638   0.00000  Uiso   1.00
N504   N     0.01289   0.38535   0.13548   0.00000  Uiso   1.00
N505   N     0.83107   0.60314   0.10941   0.00000  Uiso   1.00
N506   N     0.31534   0.73740   0.18209   0.00000  Uiso   1.00
C507   C     0.30212   0.39347   0.44769   0.00000  Uiso   1.00
C508   C     0.32477   0.28474   0.45272   0.00000  Uiso   1.00
C509   C     0.40175   0.25128   0.44261   0.00000  Uiso   1.00
C510   C     0.40994   0.14887   0.44952   0.00000  Uiso   1.00
C511   C     0.45517   0.99011   0.45482   0.00000  Uiso   1.00
C512   C     0.15929   0.33483   0.44553   0.00000  Uiso   1.00
C513   C     0.09715   0.34351   0.42939   0.00000  Uiso   1.00
C514   C     0.96603   0.28327   0.43025   0.00000  Uiso   1.00
C515   C     0.75436   0.20236   0.42438   0.00000  Uiso   1.00
C516   C     0.33844   0.47696   0.46556   0.00000  Uiso   1.00
C517   C     0.42690   0.60515   0.46626   0.00000  Uiso   1.00
C518   C     0.44660   0.66458   0.48398   0.00000  Uiso   1.00
C519   C     0.51309   0.80434   0.50922   0.00000  Uiso   1.00
C520   C     0.17977   0.27108   0.47793   0.00000  Uiso   1.00
C521   C     0.25831   0.21826   0.46914   0.00000  Uiso   1.00
C522   C     0.26639   0.11587   0.47606   0.00000  Uiso   1.00
C523   C     0.34337   0.08227   0.46597   0.00000  Uiso   1.00
C524   C     0.09283   0.26836   0.46195   0.00000  Uiso   1.00
C525   C     0.96178   0.20810   0.46283   0.00000  Uiso   1.00
C526   C     0.89945   0.21667   0.44670   0.00000  Uiso   1.00
C527   C     0.27199   0.41048   0.48198   0.00000  Uiso   1.00
C528   C     0.29154   0.46973   0.49971   0.00000  Uiso   1.00
C529   C     0.38002   0.59798   0.50043   0.00000  Uiso   1.00
H530   H     0.35385   0.44522   0.43491   0.00000  Uiso   1.00
H531   H     0.45316   0.30275   0.42991   0.00000  Uiso   1.00
H532   H     0.14860   0.39497   0.41668   0.00000  Uiso   1.00
H533   H     0.47831   0.65656   0.45355   0.00000  Uiso   1.00
H534   H     0.53391   0.11544   0.43160   0.00000  Uiso   1.00
H535   H     0.89175   0.30993   0.40371   0.00000  Uiso   1.00
H536   H     0.58700   0.86155   0.48145   0.00000  Uiso   1.00
H537   H     0.12802   0.21932   0.49071   0.00000  Uiso   1.00
H538   H     0.21495   0.06445   0.48877   0.00000  Uiso   1.00
H539   H     0.91039   0.15667   0.47554   0.00000  Uiso   1.00
H540   H     0.24010   0.41826   0.51241   0.00000  Uiso   1.00
H541   H     0.34057   0.92202   0.47937   0.00000  Uiso   1.00
H542   H     0.69840   0.11652   0.45149   0.00000  Uiso   1.00
H543   H     0.39366   0.66813   0.52923   0.00000  Uiso   1.00
O544   O     0.49846   0.92090   0.45320   0.00000  Uiso   1.00
O545   O     0.65597   0.17608   0.41661   0.00000  Uiso   1.00
O546   O     0.56813   0.89979   0.51861   0.00000  Uiso   1.00
N547   N     0.47650   0.09119   0.44311   0.00000  Uiso   1.00
N548   N     0.87611   0.27301   0.41704   0.00000  Uiso   1.00
N549   N     0.52609   0.78873   0.48972   0.00000  Uiso   1.00
N550   N     0.37246   0.98711   0.46882   0.00000  Uiso   1.00
N551   N     0.77207   0.16893   0.44274   0.00000  Uiso   1.00
N552   N     0.42206   0.68466   0.51542   0.00000  Uiso   1.00
