data_job_03478
_audit_creation_date              2018-12-19
_audit_creation_method            'Materials Studio'
_symmetry_space_group_name_H-M    'P1'
_symmetry_Int_Tables_number       1
_symmetry_cell_setting            triclinic
loop_
_symmetry_equiv_pos_as_xyz
  x,y,z
_cell_length_a                    10.6139
_cell_length_b                    32.2210
_cell_length_c                    23.8408
_cell_angle_alpha                 90.0000
_cell_angle_beta                  90.0000
_cell_angle_gamma                 90.0000
loop_
_atom_site_label
_atom_site_type_symbol
_atom_site_fract_x
_atom_site_fract_y
_atom_site_fract_z
_atom_site_U_iso_or_equiv
_atom_site_adp_type
_atom_site_occupancy
C1     C     0.39605   0.39312   0.05913   0.00000  Uiso   1.00
C2     C     0.51949   0.41590   0.04801   0.00000  Uiso   1.00
C3     C     0.53735   0.45850   0.05113   0.00000  Uiso   1.00
C4     C     0.65738   0.47328   0.03942   0.00000  Uiso   1.00
C5     C     0.83406   0.51273   0.02431   0.00000  Uiso   1.00
C6     C     0.36852   0.36803   0.00630   0.00000  Uiso   1.00
C7     C     0.25944   0.37038   0.97436   0.00000  Uiso   1.00
C8     C     0.25238   0.34486   0.92754   0.00000  Uiso   1.00
C9     C     0.19463   0.30997   0.84770   0.00000  Uiso   1.00
C10    C     0.42444   0.36151   0.10501   0.00000  Uiso   1.00
C11    C     0.36236   0.35837   0.15607   0.00000  Uiso   1.00
C12    C     0.40236   0.32735   0.19236   0.00000  Uiso   1.00
C13    C     0.43143   0.28235   0.26578   0.00000  Uiso   1.00
C14    C     0.57746   0.34360   0.03278   0.00000  Uiso   1.00
C15    C     0.61802   0.38900   0.03370   0.00000  Uiso   1.00
C16    C     0.73806   0.40371   0.02199   0.00000  Uiso   1.00
C17    C     0.75609   0.44633   0.02509   0.00000  Uiso   1.00
C18    C     0.46705   0.34113   0.99199   0.00000  Uiso   1.00
C19    C     0.46014   0.31559   0.94521   0.00000  Uiso   1.00
C20    C     0.35109   0.31791   0.91321   0.00000  Uiso   1.00
C21    C     0.52298   0.33461   0.09071   0.00000  Uiso   1.00
C22    C     0.56307   0.30359   0.12692   0.00000  Uiso   1.00
C23    C     0.50106   0.30041   0.17803   0.00000  Uiso   1.00
H24    H     0.31933   0.41406   0.07026   0.00000  Uiso   1.00
H25    H     0.46107   0.47931   0.06220   0.00000  Uiso   1.00
H26    H     0.18320   0.39120   0.98545   0.00000  Uiso   1.00
H27    H     0.28611   0.37919   0.16713   0.00000  Uiso   1.00
H28    H     0.66166   0.53978   0.04693   0.00000  Uiso   1.00
H29    H     0.07573   0.35399   0.88510   0.00000  Uiso   1.00
H30    H     0.29273   0.32867   0.26821   0.00000  Uiso   1.00
H31    H     0.65417   0.32266   0.02164   0.00000  Uiso   1.00
H32    H     0.81429   0.38289   0.01091   0.00000  Uiso   1.00
H33    H     0.53641   0.29478   0.93415   0.00000  Uiso   1.00
H34    H     0.63932   0.28278   0.11584   0.00000  Uiso   1.00
H35    H     0.94834   0.46153   0.00530   0.00000  Uiso   1.00
H36    H     0.36241   0.27573   0.84347   0.00000  Uiso   1.00
H37    H     0.57942   0.25042   0.22658   0.00000  Uiso   1.00
O38    O     0.90428   0.54193   0.01992   0.00000  Uiso   1.00
O39    O     0.13555   0.29817   0.80760   0.00000  Uiso   1.00
O40    O     0.42026   0.26496   0.31024   0.00000  Uiso   1.00
N41    N     0.70716   0.51310   0.03862   0.00000  Uiso   1.00
N42    N     0.15936   0.33940   0.88731   0.00000  Uiso   1.00
N43    N     0.36222   0.31572   0.24548   0.00000  Uiso   1.00
N44    N     0.86143   0.47099   0.01622   0.00000  Uiso   1.00
N45    N     0.31362   0.29729   0.86491   0.00000  Uiso   1.00
N46    N     0.51648   0.27361   0.22308   0.00000  Uiso   1.00
C47    C     0.10395   0.60688   0.55913   0.00000  Uiso   1.00
C48    C     0.98051   0.58410   0.54801   0.00000  Uiso   1.00
C49    C     0.96265   0.54150   0.55113   0.00000  Uiso   1.00
C50    C     0.84262   0.52672   0.53942   0.00000  Uiso   1.00
C51    C     0.66594   0.48727   0.52431   0.00000  Uiso   1.00
C52    C     0.13148   0.63197   0.50630   0.00000  Uiso   1.00
C53    C     0.24056   0.62962   0.47436   0.00000  Uiso   1.00
C54    C     0.24762   0.65514   0.42754   0.00000  Uiso   1.00
C55    C     0.30537   0.69003   0.34770   0.00000  Uiso   1.00
C56    C     0.07556   0.63849   0.60501   0.00000  Uiso   1.00
C57    C     0.13764   0.64163   0.65607   0.00000  Uiso   1.00
C58    C     0.09764   0.67265   0.69236   0.00000  Uiso   1.00
C59    C     0.06857   0.71765   0.76578   0.00000  Uiso   1.00
C60    C     0.92254   0.65640   0.53278   0.00000  Uiso   1.00
C61    C     0.88198   0.61100   0.53370   0.00000  Uiso   1.00
C62    C     0.76194   0.59629   0.52199   0.00000  Uiso   1.00
C63    C     0.74391   0.55367   0.52509   0.00000  Uiso   1.00
C64    C     0.03295   0.65887   0.49199   0.00000  Uiso   1.00
C65    C     0.03986   0.68441   0.44521   0.00000  Uiso   1.00
C66    C     0.14891   0.68209   0.41321   0.00000  Uiso   1.00
C67    C     0.97702   0.66539   0.59071   0.00000  Uiso   1.00
C68    C     0.93693   0.69641   0.62692   0.00000  Uiso   1.00
C69    C     0.99894   0.69959   0.67803   0.00000  Uiso   1.00
H70    H     0.18067   0.58594   0.57026   0.00000  Uiso   1.00
H71    H     0.03893   0.52069   0.56220   0.00000  Uiso   1.00
H72    H     0.31680   0.60880   0.48545   0.00000  Uiso   1.00
H73    H     0.21389   0.62081   0.66713   0.00000  Uiso   1.00
H74    H     0.83834   0.46022   0.54693   0.00000  Uiso   1.00
H75    H     0.42427   0.64601   0.38510   0.00000  Uiso   1.00
H76    H     0.20727   0.67133   0.76821   0.00000  Uiso   1.00
H77    H     0.84583   0.67734   0.52164   0.00000  Uiso   1.00
H78    H     0.68571   0.61711   0.51091   0.00000  Uiso   1.00
H79    H     0.96359   0.70522   0.43415   0.00000  Uiso   1.00
H80    H     0.86068   0.71722   0.61584   0.00000  Uiso   1.00
H81    H     0.55166   0.53847   0.50530   0.00000  Uiso   1.00
H82    H     0.13759   0.72427   0.34347   0.00000  Uiso   1.00
H83    H     0.92058   0.74958   0.72658   0.00000  Uiso   1.00
O84    O     0.59572   0.45807   0.51992   0.00000  Uiso   1.00
O85    O     0.36445   0.70183   0.30760   0.00000  Uiso   1.00
O86    O     0.07974   0.73504   0.81024   0.00000  Uiso   1.00
N87    N     0.79284   0.48690   0.53862   0.00000  Uiso   1.00
N88    N     0.34064   0.66060   0.38731   0.00000  Uiso   1.00
N89    N     0.13778   0.68428   0.74548   0.00000  Uiso   1.00
N90    N     0.63857   0.52901   0.51622   0.00000  Uiso   1.00
N91    N     0.18638   0.70271   0.36491   0.00000  Uiso   1.00
N92    N     0.98352   0.72639   0.72308   0.00000  Uiso   1.00
C93    C     0.60395   0.89312   0.44087   0.00000  Uiso   1.00
C94    C     0.48051   0.91590   0.45199   0.00000  Uiso   1.00
C95    C     0.46265   0.95850   0.44887   0.00000  Uiso   1.00
C96    C     0.34262   0.97328   0.46058   0.00000  Uiso   1.00
C97    C     0.16594   0.01273   0.47569   0.00000  Uiso   1.00
C98    C     0.63148   0.86803   0.49370   0.00000  Uiso   1.00
C99    C     0.74056   0.87038   0.52564   0.00000  Uiso   1.00
C100   C     0.74762   0.84486   0.57246   0.00000  Uiso   1.00
C101   C     0.80537   0.80997   0.65230   0.00000  Uiso   1.00
C102   C     0.57556   0.86151   0.39499   0.00000  Uiso   1.00
C103   C     0.63764   0.85837   0.34393   0.00000  Uiso   1.00
C104   C     0.59764   0.82735   0.30764   0.00000  Uiso   1.00
C105   C     0.56857   0.78235   0.23422   0.00000  Uiso   1.00
C106   C     0.42254   0.84360   0.46722   0.00000  Uiso   1.00
C107   C     0.38198   0.88900   0.46630   0.00000  Uiso   1.00
C108   C     0.26194   0.90371   0.47801   0.00000  Uiso   1.00
C109   C     0.24391   0.94633   0.47491   0.00000  Uiso   1.00
C110   C     0.53295   0.84113   0.50801   0.00000  Uiso   1.00
C111   C     0.53986   0.81559   0.55479   0.00000  Uiso   1.00
C112   C     0.64891   0.81791   0.58679   0.00000  Uiso   1.00
C113   C     0.47702   0.83461   0.40929   0.00000  Uiso   1.00
C114   C     0.43693   0.80359   0.37308   0.00000  Uiso   1.00
C115   C     0.49894   0.80041   0.32197   0.00000  Uiso   1.00
H116   H     0.68067   0.91406   0.42974   0.00000  Uiso   1.00
H117   H     0.53893   0.97931   0.43780   0.00000  Uiso   1.00
H118   H     0.81680   0.89120   0.51455   0.00000  Uiso   1.00
H119   H     0.71389   0.87919   0.33287   0.00000  Uiso   1.00
H120   H     0.33834   0.03978   0.45307   0.00000  Uiso   1.00
H121   H     0.92427   0.85399   0.61490   0.00000  Uiso   1.00
H122   H     0.70727   0.82867   0.23179   0.00000  Uiso   1.00
H123   H     0.34583   0.82266   0.47836   0.00000  Uiso   1.00
H124   H     0.18571   0.88289   0.48909   0.00000  Uiso   1.00
H125   H     0.46359   0.79478   0.56585   0.00000  Uiso   1.00
H126   H     0.36068   0.78278   0.38416   0.00000  Uiso   1.00
H127   H     0.05166   0.96153   0.49470   0.00000  Uiso   1.00
H128   H     0.63759   0.77573   0.65653   0.00000  Uiso   1.00
H129   H     0.42058   0.75042   0.27342   0.00000  Uiso   1.00
O130   O     0.09572   0.04193   0.48008   0.00000  Uiso   1.00
O131   O     0.86445   0.79817   0.69240   0.00000  Uiso   1.00
O132   O     0.57974   0.76496   0.18976   0.00000  Uiso   1.00
N133   N     0.29284   0.01310   0.46138   0.00000  Uiso   1.00
N134   N     0.84064   0.83940   0.61269   0.00000  Uiso   1.00
N135   N     0.63778   0.81572   0.25452   0.00000  Uiso   1.00
N136   N     0.13857   0.97099   0.48378   0.00000  Uiso   1.00
N137   N     0.68638   0.79729   0.63509   0.00000  Uiso   1.00
N138   N     0.48352   0.77361   0.27692   0.00000  Uiso   1.00
C139   C     0.89605   0.10688   0.94087   0.00000  Uiso   1.00
C140   C     0.01949   0.08410   0.95199   0.00000  Uiso   1.00
C141   C     0.03735   0.04150   0.94887   0.00000  Uiso   1.00
C142   C     0.15738   0.02672   0.96058   0.00000  Uiso   1.00
C143   C     0.33406   0.98727   0.97569   0.00000  Uiso   1.00
C144   C     0.86852   0.13197   0.99370   0.00000  Uiso   1.00
C145   C     0.75944   0.12962   0.02564   0.00000  Uiso   1.00
C146   C     0.75238   0.15514   0.07246   0.00000  Uiso   1.00
C147   C     0.69463   0.19003   0.15230   0.00000  Uiso   1.00
C148   C     0.92444   0.13849   0.89499   0.00000  Uiso   1.00
C149   C     0.86236   0.14163   0.84393   0.00000  Uiso   1.00
C150   C     0.90236   0.17265   0.80764   0.00000  Uiso   1.00
C151   C     0.93143   0.21765   0.73422   0.00000  Uiso   1.00
C152   C     0.07746   0.15640   0.96722   0.00000  Uiso   1.00
C153   C     0.11802   0.11100   0.96630   0.00000  Uiso   1.00
C154   C     0.23806   0.09629   0.97801   0.00000  Uiso   1.00
C155   C     0.25609   0.05367   0.97491   0.00000  Uiso   1.00
C156   C     0.96705   0.15887   0.00801   0.00000  Uiso   1.00
C157   C     0.96014   0.18441   0.05479   0.00000  Uiso   1.00
C158   C     0.85109   0.18209   0.08679   0.00000  Uiso   1.00
C159   C     0.02298   0.16539   0.90929   0.00000  Uiso   1.00
C160   C     0.06307   0.19641   0.87308   0.00000  Uiso   1.00
C161   C     0.00106   0.19959   0.82197   0.00000  Uiso   1.00
H162   H     0.81933   0.08594   0.92974   0.00000  Uiso   1.00
H163   H     0.96107   0.02069   0.93780   0.00000  Uiso   1.00
H164   H     0.68320   0.10880   0.01455   0.00000  Uiso   1.00
H165   H     0.78611   0.12081   0.83287   0.00000  Uiso   1.00
H166   H     0.16166   0.96022   0.95307   0.00000  Uiso   1.00
H167   H     0.57573   0.14601   0.11490   0.00000  Uiso   1.00
H168   H     0.79273   0.17133   0.73179   0.00000  Uiso   1.00
H169   H     0.15417   0.17734   0.97836   0.00000  Uiso   1.00
H170   H     0.31429   0.11711   0.98909   0.00000  Uiso   1.00
H171   H     0.03641   0.20522   0.06585   0.00000  Uiso   1.00
H172   H     0.13932   0.21722   0.88416   0.00000  Uiso   1.00
H173   H     0.44834   0.03847   0.99470   0.00000  Uiso   1.00
H174   H     0.86241   0.22427   0.15653   0.00000  Uiso   1.00
H175   H     0.07942   0.24958   0.77342   0.00000  Uiso   1.00
O176   O     0.40428   0.95807   0.98008   0.00000  Uiso   1.00
O177   O     0.63555   0.20183   0.19240   0.00000  Uiso   1.00
O178   O     0.92026   0.23504   0.68976   0.00000  Uiso   1.00
N179   N     0.20716   0.98690   0.96138   0.00000  Uiso   1.00
N180   N     0.65936   0.16060   0.11269   0.00000  Uiso   1.00
N181   N     0.86222   0.18428   0.75452   0.00000  Uiso   1.00
N182   N     0.36143   0.02901   0.98378   0.00000  Uiso   1.00
N183   N     0.81362   0.20271   0.13509   0.00000  Uiso   1.00
N184   N     0.01648   0.22639   0.77692   0.00000  Uiso   1.00
C185   C     0.60395   0.60688   0.94087   0.00000  Uiso   1.00
C186   C     0.48051   0.58410   0.95199   0.00000  Uiso   1.00
C187   C     0.46265   0.54150   0.94887   0.00000  Uiso   1.00
C188   C     0.34262   0.52672   0.96058   0.00000  Uiso   1.00
C189   C     0.16594   0.48727   0.97569   0.00000  Uiso   1.00
C190   C     0.63148   0.63197   0.99370   0.00000  Uiso   1.00
C191   C     0.74056   0.62962   0.02564   0.00000  Uiso   1.00
C192   C     0.74762   0.65514   0.07246   0.00000  Uiso   1.00
C193   C     0.80537   0.69003   0.15230   0.00000  Uiso   1.00
C194   C     0.57556   0.63849   0.89499   0.00000  Uiso   1.00
C195   C     0.63764   0.64163   0.84393   0.00000  Uiso   1.00
C196   C     0.59764   0.67265   0.80764   0.00000  Uiso   1.00
C197   C     0.56857   0.71765   0.73422   0.00000  Uiso   1.00
C198   C     0.42254   0.65640   0.96722   0.00000  Uiso   1.00
C199   C     0.38198   0.61100   0.96630   0.00000  Uiso   1.00
C200   C     0.26194   0.59629   0.97801   0.00000  Uiso   1.00
C201   C     0.24391   0.55367   0.97491   0.00000  Uiso   1.00
C202   C     0.53295   0.65887   0.00801   0.00000  Uiso   1.00
C203   C     0.53986   0.68441   0.05479   0.00000  Uiso   1.00
C204   C     0.64891   0.68209   0.08679   0.00000  Uiso   1.00
C205   C     0.47702   0.66539   0.90929   0.00000  Uiso   1.00
C206   C     0.43693   0.69641   0.87308   0.00000  Uiso   1.00
C207   C     0.49894   0.69959   0.82197   0.00000  Uiso   1.00
H208   H     0.68067   0.58594   0.92974   0.00000  Uiso   1.00
H209   H     0.53893   0.52069   0.93780   0.00000  Uiso   1.00
H210   H     0.81680   0.60880   0.01455   0.00000  Uiso   1.00
H211   H     0.71389   0.62081   0.83287   0.00000  Uiso   1.00
H212   H     0.33834   0.46022   0.95307   0.00000  Uiso   1.00
H213   H     0.92427   0.64601   0.11490   0.00000  Uiso   1.00
H214   H     0.70727   0.67133   0.73179   0.00000  Uiso   1.00
H215   H     0.34583   0.67734   0.97836   0.00000  Uiso   1.00
H216   H     0.18571   0.61711   0.98909   0.00000  Uiso   1.00
H217   H     0.46359   0.70522   0.06585   0.00000  Uiso   1.00
H218   H     0.36068   0.71722   0.88416   0.00000  Uiso   1.00
H219   H     0.05166   0.53847   0.99470   0.00000  Uiso   1.00
H220   H     0.63759   0.72427   0.15653   0.00000  Uiso   1.00
H221   H     0.42058   0.74958   0.77342   0.00000  Uiso   1.00
O222   O     0.09572   0.45807   0.98008   0.00000  Uiso   1.00
O223   O     0.86445   0.70183   0.19240   0.00000  Uiso   1.00
O224   O     0.57974   0.73504   0.68976   0.00000  Uiso   1.00
N225   N     0.29284   0.48690   0.96138   0.00000  Uiso   1.00
N226   N     0.84064   0.66060   0.11269   0.00000  Uiso   1.00
N227   N     0.63778   0.68428   0.75452   0.00000  Uiso   1.00
N228   N     0.13857   0.52901   0.98378   0.00000  Uiso   1.00
N229   N     0.68638   0.70271   0.13509   0.00000  Uiso   1.00
N230   N     0.48352   0.72639   0.77692   0.00000  Uiso   1.00
C231   C     0.89605   0.39312   0.44087   0.00000  Uiso   1.00
C232   C     0.01949   0.41590   0.45199   0.00000  Uiso   1.00
C233   C     0.03735   0.45850   0.44887   0.00000  Uiso   1.00
C234   C     0.15738   0.47328   0.46058   0.00000  Uiso   1.00
C235   C     0.33406   0.51273   0.47569   0.00000  Uiso   1.00
C236   C     0.86852   0.36803   0.49370   0.00000  Uiso   1.00
C237   C     0.75944   0.37038   0.52564   0.00000  Uiso   1.00
C238   C     0.75238   0.34486   0.57246   0.00000  Uiso   1.00
C239   C     0.69463   0.30997   0.65230   0.00000  Uiso   1.00
C240   C     0.92444   0.36151   0.39499   0.00000  Uiso   1.00
C241   C     0.86236   0.35837   0.34393   0.00000  Uiso   1.00
C242   C     0.90236   0.32735   0.30764   0.00000  Uiso   1.00
C243   C     0.93143   0.28235   0.23422   0.00000  Uiso   1.00
C244   C     0.07746   0.34360   0.46722   0.00000  Uiso   1.00
C245   C     0.11802   0.38900   0.46630   0.00000  Uiso   1.00
C246   C     0.23806   0.40371   0.47801   0.00000  Uiso   1.00
C247   C     0.25609   0.44633   0.47491   0.00000  Uiso   1.00
C248   C     0.96705   0.34113   0.50801   0.00000  Uiso   1.00
C249   C     0.96014   0.31559   0.55479   0.00000  Uiso   1.00
C250   C     0.85109   0.31791   0.58679   0.00000  Uiso   1.00
C251   C     0.02298   0.33461   0.40929   0.00000  Uiso   1.00
C252   C     0.06307   0.30359   0.37308   0.00000  Uiso   1.00
C253   C     0.00106   0.30041   0.32197   0.00000  Uiso   1.00
H254   H     0.81933   0.41406   0.42974   0.00000  Uiso   1.00
H255   H     0.96107   0.47931   0.43780   0.00000  Uiso   1.00
H256   H     0.68320   0.39120   0.51455   0.00000  Uiso   1.00
H257   H     0.78611   0.37919   0.33287   0.00000  Uiso   1.00
H258   H     0.16166   0.53978   0.45307   0.00000  Uiso   1.00
H259   H     0.57573   0.35399   0.61490   0.00000  Uiso   1.00
H260   H     0.79273   0.32867   0.23179   0.00000  Uiso   1.00
H261   H     0.15417   0.32266   0.47836   0.00000  Uiso   1.00
H262   H     0.31429   0.38289   0.48909   0.00000  Uiso   1.00
H263   H     0.03641   0.29478   0.56585   0.00000  Uiso   1.00
H264   H     0.13932   0.28278   0.38416   0.00000  Uiso   1.00
H265   H     0.44834   0.46153   0.49470   0.00000  Uiso   1.00
H266   H     0.86241   0.27573   0.65653   0.00000  Uiso   1.00
H267   H     0.07942   0.25042   0.27342   0.00000  Uiso   1.00
O268   O     0.40428   0.54193   0.48008   0.00000  Uiso   1.00
O269   O     0.63555   0.29817   0.69240   0.00000  Uiso   1.00
O270   O     0.92026   0.26496   0.18976   0.00000  Uiso   1.00
N271   N     0.20716   0.51310   0.46138   0.00000  Uiso   1.00
N272   N     0.65936   0.33940   0.61269   0.00000  Uiso   1.00
N273   N     0.86222   0.31572   0.25452   0.00000  Uiso   1.00
N274   N     0.36143   0.47099   0.48378   0.00000  Uiso   1.00
N275   N     0.81362   0.29729   0.63509   0.00000  Uiso   1.00
N276   N     0.01648   0.27361   0.27692   0.00000  Uiso   1.00
C277   C     0.39605   0.10688   0.55913   0.00000  Uiso   1.00
C278   C     0.51949   0.08410   0.54801   0.00000  Uiso   1.00
C279   C     0.53735   0.04150   0.55113   0.00000  Uiso   1.00
C280   C     0.65738   0.02672   0.53942   0.00000  Uiso   1.00
C281   C     0.83406   0.98727   0.52431   0.00000  Uiso   1.00
C282   C     0.36852   0.13197   0.50630   0.00000  Uiso   1.00
C283   C     0.25944   0.12962   0.47436   0.00000  Uiso   1.00
C284   C     0.25238   0.15514   0.42754   0.00000  Uiso   1.00
C285   C     0.19463   0.19003   0.34770   0.00000  Uiso   1.00
C286   C     0.42444   0.13849   0.60501   0.00000  Uiso   1.00
C287   C     0.36236   0.14163   0.65607   0.00000  Uiso   1.00
C288   C     0.40236   0.17265   0.69236   0.00000  Uiso   1.00
C289   C     0.43143   0.21765   0.76578   0.00000  Uiso   1.00
C290   C     0.57746   0.15640   0.53278   0.00000  Uiso   1.00
C291   C     0.61802   0.11100   0.53370   0.00000  Uiso   1.00
C292   C     0.73806   0.09629   0.52199   0.00000  Uiso   1.00
C293   C     0.75609   0.05367   0.52509   0.00000  Uiso   1.00
C294   C     0.46705   0.15887   0.49199   0.00000  Uiso   1.00
C295   C     0.46014   0.18441   0.44521   0.00000  Uiso   1.00
C296   C     0.35109   0.18209   0.41321   0.00000  Uiso   1.00
C297   C     0.52298   0.16539   0.59071   0.00000  Uiso   1.00
C298   C     0.56307   0.19641   0.62692   0.00000  Uiso   1.00
C299   C     0.50106   0.19959   0.67803   0.00000  Uiso   1.00
H300   H     0.31933   0.08594   0.57026   0.00000  Uiso   1.00
H301   H     0.46107   0.02069   0.56220   0.00000  Uiso   1.00
H302   H     0.18320   0.10880   0.48545   0.00000  Uiso   1.00
H303   H     0.28611   0.12081   0.66713   0.00000  Uiso   1.00
H304   H     0.66166   0.96022   0.54693   0.00000  Uiso   1.00
H305   H     0.07573   0.14601   0.38510   0.00000  Uiso   1.00
H306   H     0.29273   0.17133   0.76821   0.00000  Uiso   1.00
H307   H     0.65417   0.17734   0.52164   0.00000  Uiso   1.00
H308   H     0.81429   0.11711   0.51091   0.00000  Uiso   1.00
H309   H     0.53641   0.20522   0.43415   0.00000  Uiso   1.00
H310   H     0.63932   0.21722   0.61584   0.00000  Uiso   1.00
H311   H     0.94834   0.03847   0.50530   0.00000  Uiso   1.00
H312   H     0.36241   0.22427   0.34347   0.00000  Uiso   1.00
H313   H     0.57942   0.24958   0.72658   0.00000  Uiso   1.00
O314   O     0.90428   0.95807   0.51992   0.00000  Uiso   1.00
O315   O     0.13555   0.20183   0.30760   0.00000  Uiso   1.00
O316   O     0.42026   0.23504   0.81024   0.00000  Uiso   1.00
N317   N     0.70716   0.98690   0.53862   0.00000  Uiso   1.00
N318   N     0.15936   0.16060   0.38731   0.00000  Uiso   1.00
N319   N     0.36222   0.18428   0.74548   0.00000  Uiso   1.00
N320   N     0.86143   0.02901   0.51622   0.00000  Uiso   1.00
N321   N     0.31362   0.20271   0.36491   0.00000  Uiso   1.00
N322   N     0.51648   0.22639   0.72308   0.00000  Uiso   1.00
C323   C     0.10395   0.89312   0.05913   0.00000  Uiso   1.00
C324   C     0.98051   0.91590   0.04801   0.00000  Uiso   1.00
C325   C     0.96265   0.95850   0.05113   0.00000  Uiso   1.00
C326   C     0.84262   0.97328   0.03942   0.00000  Uiso   1.00
C327   C     0.66594   0.01273   0.02431   0.00000  Uiso   1.00
C328   C     0.13148   0.86803   0.00630   0.00000  Uiso   1.00
C329   C     0.24056   0.87038   0.97436   0.00000  Uiso   1.00
C330   C     0.24762   0.84486   0.92754   0.00000  Uiso   1.00
C331   C     0.30537   0.80997   0.84770   0.00000  Uiso   1.00
C332   C     0.07556   0.86151   0.10501   0.00000  Uiso   1.00
C333   C     0.13764   0.85837   0.15607   0.00000  Uiso   1.00
C334   C     0.09764   0.82735   0.19236   0.00000  Uiso   1.00
C335   C     0.06857   0.78235   0.26578   0.00000  Uiso   1.00
C336   C     0.92254   0.84360   0.03278   0.00000  Uiso   1.00
C337   C     0.88198   0.88900   0.03370   0.00000  Uiso   1.00
C338   C     0.76194   0.90371   0.02199   0.00000  Uiso   1.00
C339   C     0.74391   0.94633   0.02509   0.00000  Uiso   1.00
C340   C     0.03295   0.84113   0.99199   0.00000  Uiso   1.00
C341   C     0.03986   0.81559   0.94521   0.00000  Uiso   1.00
C342   C     0.14891   0.81791   0.91321   0.00000  Uiso   1.00
C343   C     0.97702   0.83461   0.09071   0.00000  Uiso   1.00
C344   C     0.93693   0.80359   0.12692   0.00000  Uiso   1.00
C345   C     0.99894   0.80041   0.17803   0.00000  Uiso   1.00
H346   H     0.18067   0.91406   0.07026   0.00000  Uiso   1.00
H347   H     0.03893   0.97931   0.06220   0.00000  Uiso   1.00
H348   H     0.31680   0.89120   0.98545   0.00000  Uiso   1.00
H349   H     0.21389   0.87919   0.16713   0.00000  Uiso   1.00
H350   H     0.83834   0.03978   0.04693   0.00000  Uiso   1.00
H351   H     0.42427   0.85399   0.88510   0.00000  Uiso   1.00
H352   H     0.20727   0.82867   0.26821   0.00000  Uiso   1.00
H353   H     0.84583   0.82266   0.02164   0.00000  Uiso   1.00
H354   H     0.68571   0.88289   0.01091   0.00000  Uiso   1.00
H355   H     0.96359   0.79478   0.93415   0.00000  Uiso   1.00
H356   H     0.86068   0.78278   0.11584   0.00000  Uiso   1.00
H357   H     0.55166   0.96153   0.00530   0.00000  Uiso   1.00
H358   H     0.13759   0.77573   0.84347   0.00000  Uiso   1.00
H359   H     0.92058   0.75042   0.22658   0.00000  Uiso   1.00
O360   O     0.59572   0.04193   0.01992   0.00000  Uiso   1.00
O361   O     0.36445   0.79817   0.80760   0.00000  Uiso   1.00
O362   O     0.07974   0.76496   0.31024   0.00000  Uiso   1.00
N363   N     0.79284   0.01310   0.03862   0.00000  Uiso   1.00
N364   N     0.34064   0.83940   0.88731   0.00000  Uiso   1.00
N365   N     0.13778   0.81572   0.24548   0.00000  Uiso   1.00
N366   N     0.63857   0.97099   0.01622   0.00000  Uiso   1.00
N367   N     0.18638   0.79729   0.86491   0.00000  Uiso   1.00
N368   N     0.98352   0.77361   0.22308   0.00000  Uiso   1.00
