data_job_05804
_audit_creation_date              2018-12-19
_audit_creation_method            'Materials Studio'
_symmetry_space_group_name_H-M    'P1'
_symmetry_Int_Tables_number       1
_symmetry_cell_setting            triclinic
loop_
_symmetry_equiv_pos_as_xyz
  x,y,z
_cell_length_a                    14.9638
_cell_length_b                    14.9638
_cell_length_c                    26.5332
_cell_angle_alpha                 90.0000
_cell_angle_beta                  90.0000
_cell_angle_gamma                 90.0000
loop_
_atom_site_label
_atom_site_type_symbol
_atom_site_fract_x
_atom_site_fract_y
_atom_site_fract_z
_atom_site_U_iso_or_equiv
_atom_site_adp_type
_atom_site_occupancy
C1     C     0.72465   0.70440   0.09715   0.00000  Uiso   1.00
C2     C     0.74173   0.65011   0.14482   0.00000  Uiso   1.00
C3     C     0.70941   0.56487   0.15446   0.00000  Uiso   1.00
C4     C     0.73253   0.52659   0.20030   0.00000  Uiso   1.00
C5     C     0.75087   0.43540   0.26903   0.00000  Uiso   1.00
C6     C     0.68325   0.79226   0.11455   0.00000  Uiso   1.00
C7     C     0.60177   0.82654   0.09873   0.00000  Uiso   1.00
C8     C     0.57566   0.90793   0.11909   0.00000  Uiso   1.00
C9     C     0.50324   0.03746   0.14079   0.00000  Uiso   1.00
C10    C     0.81648   0.72812   0.07613   0.00000  Uiso   1.00
C11    C     0.84702   0.70850   0.02800   0.00000  Uiso   1.00
C12    C     0.93308   0.73591   0.01601   0.00000  Uiso   1.00
C13    C     0.06753   0.76585   0.97806   0.00000  Uiso   1.00
C14    C     0.82317   0.78798   0.16144   0.00000  Uiso   1.00
C15    C     0.79524   0.69551   0.17974   0.00000  Uiso   1.00
C16    C     0.81842   0.65735   0.22559   0.00000  Uiso   1.00
C17    C     0.78614   0.57207   0.23529   0.00000  Uiso   1.00
C18    C     0.73676   0.83765   0.14947   0.00000  Uiso   1.00
C19    C     0.71077   0.91902   0.16986   0.00000  Uiso   1.00
C20    C     0.62927   0.95341   0.15407   0.00000  Uiso   1.00
C21    C     0.87000   0.77352   0.11105   0.00000  Uiso   1.00
C22    C     0.95603   0.80097   0.09913   0.00000  Uiso   1.00
C23    C     0.98669   0.78139   0.05099   0.00000  Uiso   1.00
H24    H     0.68299   0.66906   0.06996   0.00000  Uiso   1.00
H25    H     0.66799   0.52976   0.12742   0.00000  Uiso   1.00
H26    H     0.56038   0.79140   0.07170   0.00000  Uiso   1.00
H27    H     0.80559   0.67337   0.00099   0.00000  Uiso   1.00
H28    H     0.67495   0.39536   0.20654   0.00000  Uiso   1.00
H29    H     0.44804   0.94705   0.08903   0.00000  Uiso   1.00
H30    H     0.96513   0.69816   0.93991   0.00000  Uiso   1.00
H31    H     0.86484   0.82333   0.18863   0.00000  Uiso   1.00
H32    H     0.85983   0.69250   0.25260   0.00000  Uiso   1.00
H33    H     0.75220   0.95413   0.19688   0.00000  Uiso   1.00
H34    H     0.99742   0.83610   0.12616   0.00000  Uiso   1.00
H35    H     0.83064   0.52744   0.30814   0.00000  Uiso   1.00
H36    H     0.60373   0.07913   0.19063   0.00000  Uiso   1.00
H37    H     0.12082   0.83024   0.04151   0.00000  Uiso   1.00
O38    O     0.74619   0.37257   0.29729   0.00000  Uiso   1.00
O39    O     0.44850   0.09636   0.14311   0.00000  Uiso   1.00
O40    O     0.12691   0.76982   0.94748   0.00000  Uiso   1.00
N41    N     0.71229   0.44440   0.22167   0.00000  Uiso   1.00
N42    N     0.50014   0.96018   0.11181   0.00000  Uiso   1.00
N43    N     0.98356   0.72751   0.97239   0.00000  Uiso   1.00
N44    N     0.79607   0.51547   0.27634   0.00000  Uiso   1.00
N45    N     0.58391   0.03125   0.16648   0.00000  Uiso   1.00
N46    N     0.06734   0.79858   0.02706   0.00000  Uiso   1.00
C47    C     0.27535   0.29560   0.59715   0.00000  Uiso   1.00
C48    C     0.25827   0.34989   0.64482   0.00000  Uiso   1.00
C49    C     0.29059   0.43513   0.65446   0.00000  Uiso   1.00
C50    C     0.26747   0.47341   0.70030   0.00000  Uiso   1.00
C51    C     0.24913   0.56460   0.76903   0.00000  Uiso   1.00
C52    C     0.31675   0.20774   0.61455   0.00000  Uiso   1.00
C53    C     0.39823   0.17346   0.59873   0.00000  Uiso   1.00
C54    C     0.42434   0.09207   0.61909   0.00000  Uiso   1.00
C55    C     0.49676   0.96254   0.64079   0.00000  Uiso   1.00
C56    C     0.18352   0.27188   0.57613   0.00000  Uiso   1.00
C57    C     0.15298   0.29150   0.52800   0.00000  Uiso   1.00
C58    C     0.06692   0.26409   0.51601   0.00000  Uiso   1.00
C59    C     0.93247   0.23415   0.47806   0.00000  Uiso   1.00
C60    C     0.17683   0.21202   0.66144   0.00000  Uiso   1.00
C61    C     0.20476   0.30449   0.67974   0.00000  Uiso   1.00
C62    C     0.18158   0.34265   0.72559   0.00000  Uiso   1.00
C63    C     0.21386   0.42793   0.73529   0.00000  Uiso   1.00
C64    C     0.26324   0.16235   0.64947   0.00000  Uiso   1.00
C65    C     0.28923   0.08098   0.66986   0.00000  Uiso   1.00
C66    C     0.37073   0.04659   0.65407   0.00000  Uiso   1.00
C67    C     0.13000   0.22648   0.61105   0.00000  Uiso   1.00
C68    C     0.04397   0.19903   0.59913   0.00000  Uiso   1.00
C69    C     0.01331   0.21861   0.55099   0.00000  Uiso   1.00
H70    H     0.31701   0.33094   0.56996   0.00000  Uiso   1.00
H71    H     0.33201   0.47024   0.62742   0.00000  Uiso   1.00
H72    H     0.43962   0.20860   0.57170   0.00000  Uiso   1.00
H73    H     0.19441   0.32663   0.50099   0.00000  Uiso   1.00
H74    H     0.32505   0.60464   0.70654   0.00000  Uiso   1.00
H75    H     0.55196   0.05295   0.58903   0.00000  Uiso   1.00
H76    H     0.03487   0.30184   0.43991   0.00000  Uiso   1.00
H77    H     0.13516   0.17667   0.68863   0.00000  Uiso   1.00
H78    H     0.14017   0.30750   0.75260   0.00000  Uiso   1.00
H79    H     0.24780   0.04587   0.69688   0.00000  Uiso   1.00
H80    H     0.00258   0.16390   0.62616   0.00000  Uiso   1.00
H81    H     0.16936   0.47256   0.80814   0.00000  Uiso   1.00
H82    H     0.39627   0.92087   0.69063   0.00000  Uiso   1.00
H83    H     0.87918   0.16976   0.54151   0.00000  Uiso   1.00
O84    O     0.25381   0.62743   0.79729   0.00000  Uiso   1.00
O85    O     0.55150   0.90364   0.64311   0.00000  Uiso   1.00
O86    O     0.87309   0.23018   0.44748   0.00000  Uiso   1.00
N87    N     0.28771   0.55560   0.72167   0.00000  Uiso   1.00
N88    N     0.49986   0.03982   0.61181   0.00000  Uiso   1.00
N89    N     0.01644   0.27249   0.47239   0.00000  Uiso   1.00
N90    N     0.20393   0.48453   0.77634   0.00000  Uiso   1.00
N91    N     0.41609   0.96875   0.66648   0.00000  Uiso   1.00
N92    N     0.93266   0.20142   0.52706   0.00000  Uiso   1.00
C93    C     0.79560   0.22465   0.84715   0.00000  Uiso   1.00
C94    C     0.84989   0.24173   0.89482   0.00000  Uiso   1.00
C95    C     0.93513   0.20941   0.90446   0.00000  Uiso   1.00
C96    C     0.97341   0.23253   0.95030   0.00000  Uiso   1.00
C97    C     0.06460   0.25087   0.01903   0.00000  Uiso   1.00
C98    C     0.70774   0.18325   0.86455   0.00000  Uiso   1.00
C99    C     0.67346   0.10177   0.84873   0.00000  Uiso   1.00
C100   C     0.59207   0.07566   0.86909   0.00000  Uiso   1.00
C101   C     0.46254   0.00324   0.89079   0.00000  Uiso   1.00
C102   C     0.77188   0.31648   0.82613   0.00000  Uiso   1.00
C103   C     0.79150   0.34702   0.77800   0.00000  Uiso   1.00
C104   C     0.76409   0.43308   0.76601   0.00000  Uiso   1.00
C105   C     0.73415   0.56753   0.72806   0.00000  Uiso   1.00
C106   C     0.71202   0.32317   0.91144   0.00000  Uiso   1.00
C107   C     0.80449   0.29524   0.92974   0.00000  Uiso   1.00
C108   C     0.84265   0.31842   0.97559   0.00000  Uiso   1.00
C109   C     0.92793   0.28614   0.98529   0.00000  Uiso   1.00
C110   C     0.66235   0.23676   0.89947   0.00000  Uiso   1.00
C111   C     0.58098   0.21077   0.91986   0.00000  Uiso   1.00
C112   C     0.54659   0.12927   0.90407   0.00000  Uiso   1.00
C113   C     0.72648   0.37000   0.86105   0.00000  Uiso   1.00
C114   C     0.69903   0.45603   0.84913   0.00000  Uiso   1.00
C115   C     0.71861   0.48669   0.80099   0.00000  Uiso   1.00
H116   H     0.83094   0.18299   0.81996   0.00000  Uiso   1.00
H117   H     0.97024   0.16799   0.87742   0.00000  Uiso   1.00
H118   H     0.70860   0.06038   0.82170   0.00000  Uiso   1.00
H119   H     0.82663   0.30559   0.75099   0.00000  Uiso   1.00
H120   H     0.10464   0.17495   0.95654   0.00000  Uiso   1.00
H121   H     0.55295   0.94804   0.83903   0.00000  Uiso   1.00
H122   H     0.80184   0.46513   0.68991   0.00000  Uiso   1.00
H123   H     0.67667   0.36484   0.93863   0.00000  Uiso   1.00
H124   H     0.80750   0.35983   0.00260   0.00000  Uiso   1.00
H125   H     0.54587   0.25220   0.94688   0.00000  Uiso   1.00
H126   H     0.66390   0.49742   0.87616   0.00000  Uiso   1.00
H127   H     0.97256   0.33064   0.05814   0.00000  Uiso   1.00
H128   H     0.42087   0.10373   0.94063   0.00000  Uiso   1.00
H129   H     0.66976   0.62082   0.79151   0.00000  Uiso   1.00
O130   O     0.12743   0.24619   0.04729   0.00000  Uiso   1.00
O131   O     0.40364   0.94850   0.89311   0.00000  Uiso   1.00
O132   O     0.73018   0.62691   0.69748   0.00000  Uiso   1.00
N133   N     0.05560   0.21229   0.97167   0.00000  Uiso   1.00
N134   N     0.53982   0.00014   0.86181   0.00000  Uiso   1.00
N135   N     0.77249   0.48356   0.72239   0.00000  Uiso   1.00
N136   N     0.98453   0.29607   0.02634   0.00000  Uiso   1.00
N137   N     0.46875   0.08391   0.91648   0.00000  Uiso   1.00
N138   N     0.70142   0.56734   0.77706   0.00000  Uiso   1.00
C139   C     0.20440   0.77535   0.34715   0.00000  Uiso   1.00
C140   C     0.15011   0.75827   0.39482   0.00000  Uiso   1.00
C141   C     0.06487   0.79059   0.40446   0.00000  Uiso   1.00
C142   C     0.02659   0.76747   0.45030   0.00000  Uiso   1.00
C143   C     0.93540   0.74913   0.51903   0.00000  Uiso   1.00
C144   C     0.29226   0.81675   0.36455   0.00000  Uiso   1.00
C145   C     0.32654   0.89823   0.34873   0.00000  Uiso   1.00
C146   C     0.40793   0.92434   0.36909   0.00000  Uiso   1.00
C147   C     0.53746   0.99676   0.39079   0.00000  Uiso   1.00
C148   C     0.22812   0.68352   0.32613   0.00000  Uiso   1.00
C149   C     0.20850   0.65298   0.27800   0.00000  Uiso   1.00
C150   C     0.23591   0.56692   0.26601   0.00000  Uiso   1.00
C151   C     0.26585   0.43247   0.22806   0.00000  Uiso   1.00
C152   C     0.28798   0.67683   0.41144   0.00000  Uiso   1.00
C153   C     0.19551   0.70476   0.42974   0.00000  Uiso   1.00
C154   C     0.15735   0.68158   0.47559   0.00000  Uiso   1.00
C155   C     0.07207   0.71386   0.48529   0.00000  Uiso   1.00
C156   C     0.33765   0.76324   0.39947   0.00000  Uiso   1.00
C157   C     0.41902   0.78923   0.41986   0.00000  Uiso   1.00
C158   C     0.45341   0.87073   0.40407   0.00000  Uiso   1.00
C159   C     0.27352   0.63000   0.36105   0.00000  Uiso   1.00
C160   C     0.30097   0.54397   0.34913   0.00000  Uiso   1.00
C161   C     0.28139   0.51331   0.30099   0.00000  Uiso   1.00
H162   H     0.16906   0.81701   0.31996   0.00000  Uiso   1.00
H163   H     0.02976   0.83201   0.37742   0.00000  Uiso   1.00
H164   H     0.29140   0.93962   0.32170   0.00000  Uiso   1.00
H165   H     0.17337   0.69441   0.25099   0.00000  Uiso   1.00
H166   H     0.89536   0.82505   0.45654   0.00000  Uiso   1.00
H167   H     0.44705   0.05196   0.33903   0.00000  Uiso   1.00
H168   H     0.19816   0.53487   0.18991   0.00000  Uiso   1.00
H169   H     0.32333   0.63516   0.43863   0.00000  Uiso   1.00
H170   H     0.19250   0.64017   0.50260   0.00000  Uiso   1.00
H171   H     0.45413   0.74780   0.44688   0.00000  Uiso   1.00
H172   H     0.33610   0.50258   0.37616   0.00000  Uiso   1.00
H173   H     0.02744   0.66936   0.55814   0.00000  Uiso   1.00
H174   H     0.57913   0.89627   0.44063   0.00000  Uiso   1.00
H175   H     0.33024   0.37918   0.29151   0.00000  Uiso   1.00
O176   O     0.87257   0.75381   0.54729   0.00000  Uiso   1.00
O177   O     0.59636   0.05150   0.39311   0.00000  Uiso   1.00
O178   O     0.26982   0.37309   0.19748   0.00000  Uiso   1.00
N179   N     0.94440   0.78771   0.47167   0.00000  Uiso   1.00
N180   N     0.46018   0.99986   0.36181   0.00000  Uiso   1.00
N181   N     0.22751   0.51644   0.22239   0.00000  Uiso   1.00
N182   N     0.01547   0.70393   0.52634   0.00000  Uiso   1.00
N183   N     0.53125   0.91609   0.41648   0.00000  Uiso   1.00
N184   N     0.29858   0.43266   0.27706   0.00000  Uiso   1.00
C185   C     0.77535   0.20440   0.65285   0.00000  Uiso   1.00
C186   C     0.75827   0.15011   0.60518   0.00000  Uiso   1.00
C187   C     0.79059   0.06487   0.59554   0.00000  Uiso   1.00
C188   C     0.76747   0.02659   0.54970   0.00000  Uiso   1.00
C189   C     0.74913   0.93540   0.48097   0.00000  Uiso   1.00
C190   C     0.81675   0.29226   0.63545   0.00000  Uiso   1.00
C191   C     0.89823   0.32654   0.65127   0.00000  Uiso   1.00
C192   C     0.92434   0.40793   0.63091   0.00000  Uiso   1.00
C193   C     0.99676   0.53746   0.60921   0.00000  Uiso   1.00
C194   C     0.68352   0.22812   0.67387   0.00000  Uiso   1.00
C195   C     0.65298   0.20850   0.72200   0.00000  Uiso   1.00
C196   C     0.56692   0.23591   0.73399   0.00000  Uiso   1.00
C197   C     0.43247   0.26585   0.77194   0.00000  Uiso   1.00
C198   C     0.67683   0.28798   0.58856   0.00000  Uiso   1.00
C199   C     0.70476   0.19551   0.57026   0.00000  Uiso   1.00
C200   C     0.68158   0.15735   0.52441   0.00000  Uiso   1.00
C201   C     0.71386   0.07207   0.51471   0.00000  Uiso   1.00
C202   C     0.76324   0.33765   0.60053   0.00000  Uiso   1.00
C203   C     0.78923   0.41902   0.58014   0.00000  Uiso   1.00
C204   C     0.87073   0.45341   0.59593   0.00000  Uiso   1.00
C205   C     0.63000   0.27352   0.63895   0.00000  Uiso   1.00
C206   C     0.54397   0.30097   0.65087   0.00000  Uiso   1.00
C207   C     0.51331   0.28139   0.69901   0.00000  Uiso   1.00
H208   H     0.81701   0.16906   0.68004   0.00000  Uiso   1.00
H209   H     0.83201   0.02976   0.62258   0.00000  Uiso   1.00
H210   H     0.93962   0.29140   0.67830   0.00000  Uiso   1.00
H211   H     0.69441   0.17337   0.74901   0.00000  Uiso   1.00
H212   H     0.82505   0.89536   0.54346   0.00000  Uiso   1.00
H213   H     0.05196   0.44705   0.66097   0.00000  Uiso   1.00
H214   H     0.53487   0.19816   0.81009   0.00000  Uiso   1.00
H215   H     0.63516   0.32333   0.56137   0.00000  Uiso   1.00
H216   H     0.64017   0.19250   0.49740   0.00000  Uiso   1.00
H217   H     0.74780   0.45413   0.55312   0.00000  Uiso   1.00
H218   H     0.50258   0.33610   0.62384   0.00000  Uiso   1.00
H219   H     0.66936   0.02744   0.44186   0.00000  Uiso   1.00
H220   H     0.89627   0.57913   0.55937   0.00000  Uiso   1.00
H221   H     0.37918   0.33024   0.70849   0.00000  Uiso   1.00
O222   O     0.75381   0.87257   0.45271   0.00000  Uiso   1.00
O223   O     0.05150   0.59636   0.60689   0.00000  Uiso   1.00
O224   O     0.37309   0.26982   0.80252   0.00000  Uiso   1.00
N225   N     0.78771   0.94440   0.52833   0.00000  Uiso   1.00
N226   N     0.99986   0.46018   0.63819   0.00000  Uiso   1.00
N227   N     0.51644   0.22751   0.77761   0.00000  Uiso   1.00
N228   N     0.70393   0.01547   0.47366   0.00000  Uiso   1.00
N229   N     0.91609   0.53125   0.58352   0.00000  Uiso   1.00
N230   N     0.43266   0.29858   0.72294   0.00000  Uiso   1.00
C231   C     0.22465   0.79560   0.15285   0.00000  Uiso   1.00
C232   C     0.24173   0.84989   0.10518   0.00000  Uiso   1.00
C233   C     0.20941   0.93513   0.09554   0.00000  Uiso   1.00
C234   C     0.23253   0.97341   0.04970   0.00000  Uiso   1.00
C235   C     0.25087   0.06460   0.98097   0.00000  Uiso   1.00
C236   C     0.18325   0.70774   0.13545   0.00000  Uiso   1.00
C237   C     0.10177   0.67346   0.15127   0.00000  Uiso   1.00
C238   C     0.07566   0.59207   0.13091   0.00000  Uiso   1.00
C239   C     0.00324   0.46254   0.10921   0.00000  Uiso   1.00
C240   C     0.31648   0.77188   0.17387   0.00000  Uiso   1.00
C241   C     0.34702   0.79150   0.22200   0.00000  Uiso   1.00
C242   C     0.43308   0.76409   0.23399   0.00000  Uiso   1.00
C243   C     0.56753   0.73415   0.27194   0.00000  Uiso   1.00
C244   C     0.32317   0.71202   0.08856   0.00000  Uiso   1.00
C245   C     0.29524   0.80449   0.07026   0.00000  Uiso   1.00
C246   C     0.31842   0.84265   0.02441   0.00000  Uiso   1.00
C247   C     0.28614   0.92793   0.01471   0.00000  Uiso   1.00
C248   C     0.23676   0.66235   0.10053   0.00000  Uiso   1.00
C249   C     0.21077   0.58098   0.08014   0.00000  Uiso   1.00
C250   C     0.12927   0.54659   0.09593   0.00000  Uiso   1.00
C251   C     0.37000   0.72648   0.13895   0.00000  Uiso   1.00
C252   C     0.45603   0.69903   0.15087   0.00000  Uiso   1.00
C253   C     0.48669   0.71861   0.19901   0.00000  Uiso   1.00
H254   H     0.18299   0.83094   0.18004   0.00000  Uiso   1.00
H255   H     0.16799   0.97024   0.12258   0.00000  Uiso   1.00
H256   H     0.06038   0.70860   0.17830   0.00000  Uiso   1.00
H257   H     0.30559   0.82663   0.24901   0.00000  Uiso   1.00
H258   H     0.17495   0.10464   0.04346   0.00000  Uiso   1.00
H259   H     0.94804   0.55295   0.16097   0.00000  Uiso   1.00
H260   H     0.46513   0.80184   0.31009   0.00000  Uiso   1.00
H261   H     0.36484   0.67667   0.06137   0.00000  Uiso   1.00
H262   H     0.35983   0.80750   0.99740   0.00000  Uiso   1.00
H263   H     0.25220   0.54587   0.05312   0.00000  Uiso   1.00
H264   H     0.49742   0.66390   0.12384   0.00000  Uiso   1.00
H265   H     0.33064   0.97256   0.94186   0.00000  Uiso   1.00
H266   H     0.10373   0.42087   0.05937   0.00000  Uiso   1.00
H267   H     0.62082   0.66976   0.20849   0.00000  Uiso   1.00
O268   O     0.24619   0.12743   0.95271   0.00000  Uiso   1.00
O269   O     0.94850   0.40364   0.10689   0.00000  Uiso   1.00
O270   O     0.62691   0.73018   0.30252   0.00000  Uiso   1.00
N271   N     0.21229   0.05560   0.02833   0.00000  Uiso   1.00
N272   N     0.00014   0.53982   0.13819   0.00000  Uiso   1.00
N273   N     0.48356   0.77249   0.27761   0.00000  Uiso   1.00
N274   N     0.29607   0.98453   0.97366   0.00000  Uiso   1.00
N275   N     0.08391   0.46875   0.08352   0.00000  Uiso   1.00
N276   N     0.56734   0.70142   0.22294   0.00000  Uiso   1.00
C277   C     0.70440   0.72465   0.90285   0.00000  Uiso   1.00
C278   C     0.65011   0.74173   0.85518   0.00000  Uiso   1.00
C279   C     0.56487   0.70941   0.84554   0.00000  Uiso   1.00
C280   C     0.52659   0.73253   0.79970   0.00000  Uiso   1.00
C281   C     0.43540   0.75087   0.73097   0.00000  Uiso   1.00
C282   C     0.79226   0.68325   0.88545   0.00000  Uiso   1.00
C283   C     0.82654   0.60177   0.90127   0.00000  Uiso   1.00
C284   C     0.90793   0.57566   0.88091   0.00000  Uiso   1.00
C285   C     0.03746   0.50324   0.85921   0.00000  Uiso   1.00
C286   C     0.72812   0.81648   0.92387   0.00000  Uiso   1.00
C287   C     0.70850   0.84702   0.97200   0.00000  Uiso   1.00
C288   C     0.73591   0.93308   0.98399   0.00000  Uiso   1.00
C289   C     0.76585   0.06753   0.02194   0.00000  Uiso   1.00
C290   C     0.78798   0.82317   0.83856   0.00000  Uiso   1.00
C291   C     0.69551   0.79524   0.82026   0.00000  Uiso   1.00
C292   C     0.65735   0.81842   0.77441   0.00000  Uiso   1.00
C293   C     0.57207   0.78614   0.76471   0.00000  Uiso   1.00
C294   C     0.83765   0.73676   0.85053   0.00000  Uiso   1.00
C295   C     0.91902   0.71077   0.83014   0.00000  Uiso   1.00
C296   C     0.95341   0.62927   0.84593   0.00000  Uiso   1.00
C297   C     0.77352   0.87000   0.88895   0.00000  Uiso   1.00
C298   C     0.80097   0.95603   0.90087   0.00000  Uiso   1.00
C299   C     0.78139   0.98669   0.94901   0.00000  Uiso   1.00
H300   H     0.66906   0.68299   0.93004   0.00000  Uiso   1.00
H301   H     0.52976   0.66799   0.87258   0.00000  Uiso   1.00
H302   H     0.79140   0.56038   0.92830   0.00000  Uiso   1.00
H303   H     0.67337   0.80559   0.99901   0.00000  Uiso   1.00
H304   H     0.39536   0.67495   0.79346   0.00000  Uiso   1.00
H305   H     0.94705   0.44804   0.91097   0.00000  Uiso   1.00
H306   H     0.69816   0.96513   0.06009   0.00000  Uiso   1.00
H307   H     0.82333   0.86484   0.81137   0.00000  Uiso   1.00
H308   H     0.69250   0.85983   0.74740   0.00000  Uiso   1.00
H309   H     0.95413   0.75220   0.80312   0.00000  Uiso   1.00
H310   H     0.83610   0.99742   0.87384   0.00000  Uiso   1.00
H311   H     0.52744   0.83064   0.69186   0.00000  Uiso   1.00
H312   H     0.07913   0.60373   0.80937   0.00000  Uiso   1.00
H313   H     0.83024   0.12082   0.95849   0.00000  Uiso   1.00
O314   O     0.37257   0.74619   0.70271   0.00000  Uiso   1.00
O315   O     0.09636   0.44850   0.85689   0.00000  Uiso   1.00
O316   O     0.76982   0.12691   0.05252   0.00000  Uiso   1.00
N317   N     0.44440   0.71229   0.77833   0.00000  Uiso   1.00
N318   N     0.96018   0.50014   0.88819   0.00000  Uiso   1.00
N319   N     0.72751   0.98356   0.02761   0.00000  Uiso   1.00
N320   N     0.51547   0.79607   0.72366   0.00000  Uiso   1.00
N321   N     0.03125   0.58391   0.83352   0.00000  Uiso   1.00
N322   N     0.79858   0.06734   0.97294   0.00000  Uiso   1.00
C323   C     0.29560   0.27535   0.40285   0.00000  Uiso   1.00
C324   C     0.34989   0.25827   0.35518   0.00000  Uiso   1.00
C325   C     0.43513   0.29059   0.34554   0.00000  Uiso   1.00
C326   C     0.47341   0.26747   0.29970   0.00000  Uiso   1.00
C327   C     0.56460   0.24913   0.23097   0.00000  Uiso   1.00
C328   C     0.20774   0.31675   0.38545   0.00000  Uiso   1.00
C329   C     0.17346   0.39823   0.40127   0.00000  Uiso   1.00
C330   C     0.09207   0.42434   0.38091   0.00000  Uiso   1.00
C331   C     0.96254   0.49676   0.35921   0.00000  Uiso   1.00
C332   C     0.27188   0.18352   0.42387   0.00000  Uiso   1.00
C333   C     0.29150   0.15298   0.47200   0.00000  Uiso   1.00
C334   C     0.26409   0.06692   0.48399   0.00000  Uiso   1.00
C335   C     0.23415   0.93247   0.52194   0.00000  Uiso   1.00
C336   C     0.21202   0.17683   0.33856   0.00000  Uiso   1.00
C337   C     0.30449   0.20476   0.32026   0.00000  Uiso   1.00
C338   C     0.34265   0.18158   0.27441   0.00000  Uiso   1.00
C339   C     0.42793   0.21386   0.26471   0.00000  Uiso   1.00
C340   C     0.16235   0.26324   0.35053   0.00000  Uiso   1.00
C341   C     0.08098   0.28923   0.33014   0.00000  Uiso   1.00
C342   C     0.04659   0.37073   0.34593   0.00000  Uiso   1.00
C343   C     0.22648   0.13000   0.38895   0.00000  Uiso   1.00
C344   C     0.19903   0.04397   0.40087   0.00000  Uiso   1.00
C345   C     0.21861   0.01331   0.44901   0.00000  Uiso   1.00
H346   H     0.33094   0.31701   0.43004   0.00000  Uiso   1.00
H347   H     0.47024   0.33201   0.37258   0.00000  Uiso   1.00
H348   H     0.20860   0.43962   0.42830   0.00000  Uiso   1.00
H349   H     0.32663   0.19441   0.49901   0.00000  Uiso   1.00
H350   H     0.60464   0.32505   0.29346   0.00000  Uiso   1.00
H351   H     0.05295   0.55196   0.41097   0.00000  Uiso   1.00
H352   H     0.30184   0.03487   0.56009   0.00000  Uiso   1.00
H353   H     0.17667   0.13516   0.31137   0.00000  Uiso   1.00
H354   H     0.30750   0.14017   0.24740   0.00000  Uiso   1.00
H355   H     0.04587   0.24780   0.30312   0.00000  Uiso   1.00
H356   H     0.16390   0.00258   0.37384   0.00000  Uiso   1.00
H357   H     0.47256   0.16936   0.19186   0.00000  Uiso   1.00
H358   H     0.92087   0.39627   0.30937   0.00000  Uiso   1.00
H359   H     0.16976   0.87918   0.45849   0.00000  Uiso   1.00
O360   O     0.62743   0.25381   0.20271   0.00000  Uiso   1.00
O361   O     0.90364   0.55150   0.35689   0.00000  Uiso   1.00
O362   O     0.23018   0.87309   0.55252   0.00000  Uiso   1.00
N363   N     0.55560   0.28771   0.27833   0.00000  Uiso   1.00
N364   N     0.03982   0.49986   0.38819   0.00000  Uiso   1.00
N365   N     0.27249   0.01644   0.52761   0.00000  Uiso   1.00
N366   N     0.48453   0.20393   0.22366   0.00000  Uiso   1.00
N367   N     0.96875   0.41609   0.33352   0.00000  Uiso   1.00
N368   N     0.20142   0.93266   0.47294   0.00000  Uiso   1.00
