data_job_04627
_audit_creation_date              2018-12-19
_audit_creation_method            'Materials Studio'
_symmetry_space_group_name_H-M    'P1'
_symmetry_Int_Tables_number       1
_symmetry_cell_setting            triclinic
loop_
_symmetry_equiv_pos_as_xyz
  x,y,z
_cell_length_a                    35.8409
_cell_length_b                    7.0855
_cell_length_c                    24.1229
_cell_angle_alpha                 90.0000
_cell_angle_beta                  57.3615
_cell_angle_gamma                 90.0000
loop_
_atom_site_label
_atom_site_type_symbol
_atom_site_fract_x
_atom_site_fract_y
_atom_site_fract_z
_atom_site_U_iso_or_equiv
_atom_site_adp_type
_atom_site_occupancy
C1     C     0.08852   0.22372   0.57194   0.00000  Uiso   1.00
C2     C     0.11220   0.24612   0.60841   0.00000  Uiso   1.00
C3     C     0.11987   0.10322   0.64043   0.00000  Uiso   1.00
C4     C     0.14209   0.15240   0.67089   0.00000  Uiso   1.00
C5     C     0.17671   0.15899   0.72779   0.00000  Uiso   1.00
C6     C     0.05028   0.36437   0.60334   0.00000  Uiso   1.00
C7     C     0.00588   0.32089   0.63108   0.00000  Uiso   1.00
C8     C     0.97599   0.46963   0.65726   0.00000  Uiso   1.00
C9     C     0.91447   0.65981   0.70624   0.00000  Uiso   1.00
C10    C     0.12078   0.29468   0.50213   0.00000  Uiso   1.00
C11    C     0.13566   0.19262   0.44477   0.00000  Uiso   1.00
C12    C     0.16511   0.28270   0.38574   0.00000  Uiso   1.00
C13    C     0.21307   0.36467   0.27757   0.00000  Uiso   1.00
C14    C     0.11436   0.56517   0.56911   0.00000  Uiso   1.00
C15    C     0.12624   0.43158   0.60688   0.00000  Uiso   1.00
C16    C     0.14846   0.48099   0.63730   0.00000  Uiso   1.00
C17    C     0.15616   0.33819   0.66935   0.00000  Uiso   1.00
C18    C     0.06432   0.54982   0.60180   0.00000  Uiso   1.00
C19    C     0.03448   0.69866   0.62795   0.00000  Uiso   1.00
C20    C     0.99005   0.65542   0.65573   0.00000  Uiso   1.00
C21    C     0.13482   0.48014   0.50059   0.00000  Uiso   1.00
C22    C     0.16425   0.57039   0.44164   0.00000  Uiso   1.00
C23    C     0.17917   0.46849   0.38420   0.00000  Uiso   1.00
H24    H     0.07759   0.07934   0.57314   0.00000  Uiso   1.00
H25    H     0.10899   0.95972   0.64161   0.00000  Uiso   1.00
H26    H     0.99503   0.17736   0.63226   0.00000  Uiso   1.00
H27    H     0.12479   0.04911   0.44598   0.00000  Uiso   1.00
H28    H     0.14999   0.90890   0.71687   0.00000  Uiso   1.00
H29    H     0.90969   0.36782   0.69713   0.00000  Uiso   1.00
H30    H     0.18331   0.09737   0.30432   0.00000  Uiso   1.00
H31    H     0.12529   0.70957   0.56791   0.00000  Uiso   1.00
H32    H     0.15932   0.62453   0.63610   0.00000  Uiso   1.00
H33    H     0.04535   0.84216   0.62675   0.00000  Uiso   1.00
H34    H     0.17511   0.71391   0.44047   0.00000  Uiso   1.00
H35    H     0.19083   0.44848   0.71241   0.00000  Uiso   1.00
H36    H     0.95054   0.90740   0.69265   0.00000  Uiso   1.00
H37    H     0.22415   0.63695   0.29985   0.00000  Uiso   1.00
O38    O     0.19192   0.11139   0.75961   0.00000  Uiso   1.00
O39    O     0.87666   0.71347   0.73369   0.00000  Uiso   1.00
O40    O     0.23564   0.35865   0.21834   0.00000  Uiso   1.00
N41    N     0.15494   0.04755   0.70645   0.00000  Uiso   1.00
N42    N     0.93028   0.47661   0.68800   0.00000  Uiso   1.00
N43    N     0.18608   0.22378   0.32075   0.00000  Uiso   1.00
N44    N     0.17692   0.33790   0.70405   0.00000  Uiso   1.00
N45    N     0.95225   0.76695   0.68559   0.00000  Uiso   1.00
N46    N     0.20805   0.51413   0.31835   0.00000  Uiso   1.00
C47    C     0.58852   0.72372   0.57194   0.00000  Uiso   1.00
C48    C     0.61220   0.74612   0.60841   0.00000  Uiso   1.00
C49    C     0.61987   0.60322   0.64043   0.00000  Uiso   1.00
C50    C     0.64209   0.65240   0.67089   0.00000  Uiso   1.00
C51    C     0.67671   0.65899   0.72779   0.00000  Uiso   1.00
C52    C     0.55028   0.86437   0.60334   0.00000  Uiso   1.00
C53    C     0.50588   0.82089   0.63108   0.00000  Uiso   1.00
C54    C     0.47599   0.96963   0.65726   0.00000  Uiso   1.00
C55    C     0.41447   0.15981   0.70624   0.00000  Uiso   1.00
C56    C     0.62078   0.79468   0.50213   0.00000  Uiso   1.00
C57    C     0.63566   0.69262   0.44477   0.00000  Uiso   1.00
C58    C     0.66511   0.78270   0.38574   0.00000  Uiso   1.00
C59    C     0.71307   0.86467   0.27757   0.00000  Uiso   1.00
C60    C     0.61436   0.06517   0.56911   0.00000  Uiso   1.00
C61    C     0.62624   0.93158   0.60688   0.00000  Uiso   1.00
C62    C     0.64846   0.98099   0.63730   0.00000  Uiso   1.00
C63    C     0.65616   0.83819   0.66935   0.00000  Uiso   1.00
C64    C     0.56432   0.04982   0.60180   0.00000  Uiso   1.00
C65    C     0.53448   0.19866   0.62795   0.00000  Uiso   1.00
C66    C     0.49005   0.15542   0.65573   0.00000  Uiso   1.00
C67    C     0.63482   0.98014   0.50059   0.00000  Uiso   1.00
C68    C     0.66425   0.07039   0.44164   0.00000  Uiso   1.00
C69    C     0.67917   0.96849   0.38420   0.00000  Uiso   1.00
H70    H     0.57759   0.57934   0.57314   0.00000  Uiso   1.00
H71    H     0.60899   0.45972   0.64161   0.00000  Uiso   1.00
H72    H     0.49503   0.67736   0.63226   0.00000  Uiso   1.00
H73    H     0.62479   0.54911   0.44598   0.00000  Uiso   1.00
H74    H     0.64999   0.40890   0.71687   0.00000  Uiso   1.00
H75    H     0.40969   0.86782   0.69713   0.00000  Uiso   1.00
H76    H     0.68331   0.59737   0.30432   0.00000  Uiso   1.00
H77    H     0.62529   0.20957   0.56791   0.00000  Uiso   1.00
H78    H     0.65932   0.12453   0.63610   0.00000  Uiso   1.00
H79    H     0.54535   0.34216   0.62675   0.00000  Uiso   1.00
H80    H     0.67511   0.21391   0.44047   0.00000  Uiso   1.00
H81    H     0.69083   0.94848   0.71241   0.00000  Uiso   1.00
H82    H     0.45054   0.40740   0.69265   0.00000  Uiso   1.00
H83    H     0.72415   0.13695   0.29985   0.00000  Uiso   1.00
O84    O     0.69192   0.61139   0.75961   0.00000  Uiso   1.00
O85    O     0.37666   0.21347   0.73369   0.00000  Uiso   1.00
O86    O     0.73564   0.85865   0.21834   0.00000  Uiso   1.00
N87    N     0.65494   0.54755   0.70645   0.00000  Uiso   1.00
N88    N     0.43028   0.97661   0.68800   0.00000  Uiso   1.00
N89    N     0.68608   0.72378   0.32075   0.00000  Uiso   1.00
N90    N     0.67692   0.83790   0.70405   0.00000  Uiso   1.00
N91    N     0.45225   0.26695   0.68559   0.00000  Uiso   1.00
N92    N     0.70805   0.01413   0.31835   0.00000  Uiso   1.00
C93    C     0.91148   0.22372   0.92806   0.00000  Uiso   1.00
C94    C     0.88780   0.24612   0.89159   0.00000  Uiso   1.00
C95    C     0.88013   0.10322   0.85957   0.00000  Uiso   1.00
C96    C     0.85791   0.15240   0.82911   0.00000  Uiso   1.00
C97    C     0.82329   0.15899   0.77221   0.00000  Uiso   1.00
C98    C     0.94972   0.36437   0.89666   0.00000  Uiso   1.00
C99    C     0.99412   0.32089   0.86892   0.00000  Uiso   1.00
C100   C     0.02401   0.46963   0.84274   0.00000  Uiso   1.00
C101   C     0.08553   0.65981   0.79376   0.00000  Uiso   1.00
C102   C     0.87922   0.29468   0.99787   0.00000  Uiso   1.00
C103   C     0.86434   0.19262   0.05523   0.00000  Uiso   1.00
C104   C     0.83489   0.28270   0.11426   0.00000  Uiso   1.00
C105   C     0.78693   0.36467   0.22243   0.00000  Uiso   1.00
C106   C     0.88564   0.56517   0.93089   0.00000  Uiso   1.00
C107   C     0.87376   0.43158   0.89312   0.00000  Uiso   1.00
C108   C     0.85154   0.48099   0.86270   0.00000  Uiso   1.00
C109   C     0.84384   0.33819   0.83065   0.00000  Uiso   1.00
C110   C     0.93568   0.54982   0.89820   0.00000  Uiso   1.00
C111   C     0.96552   0.69866   0.87205   0.00000  Uiso   1.00
C112   C     0.00995   0.65542   0.84427   0.00000  Uiso   1.00
C113   C     0.86518   0.48014   0.99941   0.00000  Uiso   1.00
C114   C     0.83575   0.57039   0.05836   0.00000  Uiso   1.00
C115   C     0.82083   0.46849   0.11580   0.00000  Uiso   1.00
H116   H     0.92241   0.07934   0.92686   0.00000  Uiso   1.00
H117   H     0.89101   0.95972   0.85839   0.00000  Uiso   1.00
H118   H     0.00497   0.17736   0.86774   0.00000  Uiso   1.00
H119   H     0.87521   0.04911   0.05402   0.00000  Uiso   1.00
H120   H     0.85001   0.90890   0.78313   0.00000  Uiso   1.00
H121   H     0.09031   0.36782   0.80287   0.00000  Uiso   1.00
H122   H     0.81669   0.09737   0.19568   0.00000  Uiso   1.00
H123   H     0.87471   0.70957   0.93209   0.00000  Uiso   1.00
H124   H     0.84068   0.62453   0.86390   0.00000  Uiso   1.00
H125   H     0.95465   0.84216   0.87325   0.00000  Uiso   1.00
H126   H     0.82489   0.71391   0.05953   0.00000  Uiso   1.00
H127   H     0.80917   0.44848   0.78759   0.00000  Uiso   1.00
H128   H     0.04946   0.90740   0.80735   0.00000  Uiso   1.00
H129   H     0.77585   0.63695   0.20015   0.00000  Uiso   1.00
O130   O     0.80808   0.11139   0.74039   0.00000  Uiso   1.00
O131   O     0.12334   0.71347   0.76631   0.00000  Uiso   1.00
O132   O     0.76436   0.35865   0.28166   0.00000  Uiso   1.00
N133   N     0.84506   0.04755   0.79355   0.00000  Uiso   1.00
N134   N     0.06972   0.47661   0.81200   0.00000  Uiso   1.00
N135   N     0.81392   0.22378   0.17925   0.00000  Uiso   1.00
N136   N     0.82308   0.33790   0.79595   0.00000  Uiso   1.00
N137   N     0.04775   0.76695   0.81441   0.00000  Uiso   1.00
N138   N     0.79195   0.51413   0.18165   0.00000  Uiso   1.00
C139   C     0.41148   0.72372   0.92806   0.00000  Uiso   1.00
C140   C     0.38780   0.74612   0.89159   0.00000  Uiso   1.00
C141   C     0.38013   0.60322   0.85957   0.00000  Uiso   1.00
C142   C     0.35791   0.65240   0.82911   0.00000  Uiso   1.00
C143   C     0.32329   0.65899   0.77221   0.00000  Uiso   1.00
C144   C     0.44972   0.86437   0.89666   0.00000  Uiso   1.00
C145   C     0.49412   0.82089   0.86892   0.00000  Uiso   1.00
C146   C     0.52401   0.96963   0.84274   0.00000  Uiso   1.00
C147   C     0.58553   0.15981   0.79376   0.00000  Uiso   1.00
C148   C     0.37922   0.79468   0.99787   0.00000  Uiso   1.00
C149   C     0.36434   0.69262   0.05523   0.00000  Uiso   1.00
C150   C     0.33489   0.78270   0.11426   0.00000  Uiso   1.00
C151   C     0.28693   0.86467   0.22243   0.00000  Uiso   1.00
C152   C     0.38564   0.06517   0.93089   0.00000  Uiso   1.00
C153   C     0.37376   0.93158   0.89312   0.00000  Uiso   1.00
C154   C     0.35154   0.98099   0.86270   0.00000  Uiso   1.00
C155   C     0.34384   0.83819   0.83065   0.00000  Uiso   1.00
C156   C     0.43568   0.04982   0.89820   0.00000  Uiso   1.00
C157   C     0.46552   0.19866   0.87205   0.00000  Uiso   1.00
C158   C     0.50995   0.15542   0.84427   0.00000  Uiso   1.00
C159   C     0.36518   0.98014   0.99941   0.00000  Uiso   1.00
C160   C     0.33575   0.07039   0.05836   0.00000  Uiso   1.00
C161   C     0.32083   0.96849   0.11580   0.00000  Uiso   1.00
H162   H     0.42241   0.57934   0.92686   0.00000  Uiso   1.00
H163   H     0.39101   0.45972   0.85839   0.00000  Uiso   1.00
H164   H     0.50497   0.67736   0.86774   0.00000  Uiso   1.00
H165   H     0.37521   0.54911   0.05402   0.00000  Uiso   1.00
H166   H     0.35001   0.40890   0.78313   0.00000  Uiso   1.00
H167   H     0.59031   0.86782   0.80287   0.00000  Uiso   1.00
H168   H     0.31669   0.59737   0.19568   0.00000  Uiso   1.00
H169   H     0.37471   0.20957   0.93209   0.00000  Uiso   1.00
H170   H     0.34068   0.12453   0.86390   0.00000  Uiso   1.00
H171   H     0.45465   0.34216   0.87325   0.00000  Uiso   1.00
H172   H     0.32489   0.21391   0.05953   0.00000  Uiso   1.00
H173   H     0.30917   0.94848   0.78759   0.00000  Uiso   1.00
H174   H     0.54946   0.40740   0.80735   0.00000  Uiso   1.00
H175   H     0.27585   0.13695   0.20015   0.00000  Uiso   1.00
O176   O     0.30808   0.61139   0.74039   0.00000  Uiso   1.00
O177   O     0.62334   0.21347   0.76631   0.00000  Uiso   1.00
O178   O     0.26436   0.85865   0.28166   0.00000  Uiso   1.00
N179   N     0.34506   0.54755   0.79355   0.00000  Uiso   1.00
N180   N     0.56972   0.97661   0.81200   0.00000  Uiso   1.00
N181   N     0.31392   0.72378   0.17925   0.00000  Uiso   1.00
N182   N     0.32308   0.83790   0.79595   0.00000  Uiso   1.00
N183   N     0.54775   0.26695   0.81441   0.00000  Uiso   1.00
N184   N     0.29195   0.01413   0.18165   0.00000  Uiso   1.00
C185   C     0.91148   0.77628   0.42806   0.00000  Uiso   1.00
C186   C     0.88780   0.75388   0.39159   0.00000  Uiso   1.00
C187   C     0.88013   0.89678   0.35957   0.00000  Uiso   1.00
C188   C     0.85791   0.84760   0.32911   0.00000  Uiso   1.00
C189   C     0.82329   0.84101   0.27221   0.00000  Uiso   1.00
C190   C     0.94972   0.63563   0.39666   0.00000  Uiso   1.00
C191   C     0.99412   0.67911   0.36892   0.00000  Uiso   1.00
C192   C     0.02401   0.53037   0.34274   0.00000  Uiso   1.00
C193   C     0.08553   0.34019   0.29376   0.00000  Uiso   1.00
C194   C     0.87922   0.70532   0.49787   0.00000  Uiso   1.00
C195   C     0.86434   0.80738   0.55523   0.00000  Uiso   1.00
C196   C     0.83489   0.71730   0.61426   0.00000  Uiso   1.00
C197   C     0.78693   0.63533   0.72243   0.00000  Uiso   1.00
C198   C     0.88564   0.43483   0.43089   0.00000  Uiso   1.00
C199   C     0.87376   0.56842   0.39312   0.00000  Uiso   1.00
C200   C     0.85154   0.51901   0.36270   0.00000  Uiso   1.00
C201   C     0.84384   0.66181   0.33065   0.00000  Uiso   1.00
C202   C     0.93568   0.45018   0.39820   0.00000  Uiso   1.00
C203   C     0.96552   0.30134   0.37205   0.00000  Uiso   1.00
C204   C     0.00995   0.34458   0.34427   0.00000  Uiso   1.00
C205   C     0.86518   0.51986   0.49941   0.00000  Uiso   1.00
C206   C     0.83575   0.42961   0.55836   0.00000  Uiso   1.00
C207   C     0.82083   0.53151   0.61580   0.00000  Uiso   1.00
H208   H     0.92241   0.92066   0.42686   0.00000  Uiso   1.00
H209   H     0.89101   0.04028   0.35839   0.00000  Uiso   1.00
H210   H     0.00497   0.82264   0.36774   0.00000  Uiso   1.00
H211   H     0.87521   0.95089   0.55402   0.00000  Uiso   1.00
H212   H     0.85001   0.09110   0.28313   0.00000  Uiso   1.00
H213   H     0.09031   0.63218   0.30287   0.00000  Uiso   1.00
H214   H     0.81669   0.90263   0.69568   0.00000  Uiso   1.00
H215   H     0.87471   0.29043   0.43209   0.00000  Uiso   1.00
H216   H     0.84068   0.37547   0.36390   0.00000  Uiso   1.00
H217   H     0.95465   0.15784   0.37325   0.00000  Uiso   1.00
H218   H     0.82489   0.28609   0.55953   0.00000  Uiso   1.00
H219   H     0.80917   0.55152   0.28759   0.00000  Uiso   1.00
H220   H     0.04946   0.09260   0.30735   0.00000  Uiso   1.00
H221   H     0.77585   0.36305   0.70015   0.00000  Uiso   1.00
O222   O     0.80808   0.88861   0.24039   0.00000  Uiso   1.00
O223   O     0.12334   0.28653   0.26631   0.00000  Uiso   1.00
O224   O     0.76436   0.64135   0.78166   0.00000  Uiso   1.00
N225   N     0.84506   0.95245   0.29355   0.00000  Uiso   1.00
N226   N     0.06972   0.52339   0.31200   0.00000  Uiso   1.00
N227   N     0.81392   0.77622   0.67925   0.00000  Uiso   1.00
N228   N     0.82308   0.66210   0.29595   0.00000  Uiso   1.00
N229   N     0.04775   0.23305   0.31441   0.00000  Uiso   1.00
N230   N     0.79195   0.48587   0.68165   0.00000  Uiso   1.00
C231   C     0.41148   0.27628   0.42806   0.00000  Uiso   1.00
C232   C     0.38780   0.25388   0.39159   0.00000  Uiso   1.00
C233   C     0.38013   0.39678   0.35957   0.00000  Uiso   1.00
C234   C     0.35791   0.34760   0.32911   0.00000  Uiso   1.00
C235   C     0.32329   0.34101   0.27221   0.00000  Uiso   1.00
C236   C     0.44972   0.13563   0.39666   0.00000  Uiso   1.00
C237   C     0.49412   0.17911   0.36892   0.00000  Uiso   1.00
C238   C     0.52401   0.03037   0.34274   0.00000  Uiso   1.00
C239   C     0.58553   0.84019   0.29376   0.00000  Uiso   1.00
C240   C     0.37922   0.20532   0.49787   0.00000  Uiso   1.00
C241   C     0.36434   0.30738   0.55523   0.00000  Uiso   1.00
C242   C     0.33489   0.21730   0.61426   0.00000  Uiso   1.00
C243   C     0.28693   0.13533   0.72243   0.00000  Uiso   1.00
C244   C     0.38564   0.93483   0.43089   0.00000  Uiso   1.00
C245   C     0.37376   0.06842   0.39312   0.00000  Uiso   1.00
C246   C     0.35154   0.01901   0.36270   0.00000  Uiso   1.00
C247   C     0.34384   0.16181   0.33065   0.00000  Uiso   1.00
C248   C     0.43568   0.95018   0.39820   0.00000  Uiso   1.00
C249   C     0.46552   0.80134   0.37205   0.00000  Uiso   1.00
C250   C     0.50995   0.84458   0.34427   0.00000  Uiso   1.00
C251   C     0.36518   0.01986   0.49941   0.00000  Uiso   1.00
C252   C     0.33575   0.92961   0.55836   0.00000  Uiso   1.00
C253   C     0.32083   0.03151   0.61580   0.00000  Uiso   1.00
H254   H     0.42241   0.42066   0.42686   0.00000  Uiso   1.00
H255   H     0.39101   0.54028   0.35839   0.00000  Uiso   1.00
H256   H     0.50497   0.32264   0.36774   0.00000  Uiso   1.00
H257   H     0.37521   0.45089   0.55402   0.00000  Uiso   1.00
H258   H     0.35001   0.59110   0.28313   0.00000  Uiso   1.00
H259   H     0.59031   0.13218   0.30287   0.00000  Uiso   1.00
H260   H     0.31669   0.40263   0.69568   0.00000  Uiso   1.00
H261   H     0.37471   0.79043   0.43209   0.00000  Uiso   1.00
H262   H     0.34068   0.87547   0.36390   0.00000  Uiso   1.00
H263   H     0.45465   0.65784   0.37325   0.00000  Uiso   1.00
H264   H     0.32489   0.78609   0.55953   0.00000  Uiso   1.00
H265   H     0.30917   0.05152   0.28759   0.00000  Uiso   1.00
H266   H     0.54946   0.59260   0.30735   0.00000  Uiso   1.00
H267   H     0.27585   0.86305   0.70015   0.00000  Uiso   1.00
O268   O     0.30808   0.38861   0.24039   0.00000  Uiso   1.00
O269   O     0.62334   0.78653   0.26631   0.00000  Uiso   1.00
O270   O     0.26436   0.14135   0.78166   0.00000  Uiso   1.00
N271   N     0.34506   0.45245   0.29355   0.00000  Uiso   1.00
N272   N     0.56972   0.02339   0.31200   0.00000  Uiso   1.00
N273   N     0.31392   0.27622   0.67925   0.00000  Uiso   1.00
N274   N     0.32308   0.16210   0.29595   0.00000  Uiso   1.00
N275   N     0.54775   0.73305   0.31441   0.00000  Uiso   1.00
N276   N     0.29195   0.98587   0.68165   0.00000  Uiso   1.00
C277   C     0.08852   0.77628   0.07194   0.00000  Uiso   1.00
C278   C     0.11220   0.75388   0.10841   0.00000  Uiso   1.00
C279   C     0.11987   0.89678   0.14043   0.00000  Uiso   1.00
C280   C     0.14209   0.84760   0.17089   0.00000  Uiso   1.00
C281   C     0.17671   0.84101   0.22779   0.00000  Uiso   1.00
C282   C     0.05028   0.63563   0.10334   0.00000  Uiso   1.00
C283   C     0.00588   0.67911   0.13108   0.00000  Uiso   1.00
C284   C     0.97599   0.53037   0.15726   0.00000  Uiso   1.00
C285   C     0.91447   0.34019   0.20624   0.00000  Uiso   1.00
C286   C     0.12078   0.70532   0.00213   0.00000  Uiso   1.00
C287   C     0.13566   0.80738   0.94477   0.00000  Uiso   1.00
C288   C     0.16511   0.71730   0.88574   0.00000  Uiso   1.00
C289   C     0.21307   0.63533   0.77757   0.00000  Uiso   1.00
C290   C     0.11436   0.43483   0.06911   0.00000  Uiso   1.00
C291   C     0.12624   0.56842   0.10688   0.00000  Uiso   1.00
C292   C     0.14846   0.51901   0.13730   0.00000  Uiso   1.00
C293   C     0.15616   0.66181   0.16935   0.00000  Uiso   1.00
C294   C     0.06432   0.45018   0.10180   0.00000  Uiso   1.00
C295   C     0.03448   0.30134   0.12795   0.00000  Uiso   1.00
C296   C     0.99005   0.34458   0.15573   0.00000  Uiso   1.00
C297   C     0.13482   0.51986   0.00059   0.00000  Uiso   1.00
C298   C     0.16425   0.42961   0.94164   0.00000  Uiso   1.00
C299   C     0.17917   0.53151   0.88420   0.00000  Uiso   1.00
H300   H     0.07759   0.92066   0.07314   0.00000  Uiso   1.00
H301   H     0.10899   0.04028   0.14161   0.00000  Uiso   1.00
H302   H     0.99503   0.82264   0.13226   0.00000  Uiso   1.00
H303   H     0.12479   0.95089   0.94598   0.00000  Uiso   1.00
H304   H     0.14999   0.09110   0.21687   0.00000  Uiso   1.00
H305   H     0.90969   0.63218   0.19713   0.00000  Uiso   1.00
H306   H     0.18331   0.90263   0.80432   0.00000  Uiso   1.00
H307   H     0.12529   0.29043   0.06791   0.00000  Uiso   1.00
H308   H     0.15932   0.37547   0.13610   0.00000  Uiso   1.00
H309   H     0.04535   0.15784   0.12675   0.00000  Uiso   1.00
H310   H     0.17511   0.28609   0.94047   0.00000  Uiso   1.00
H311   H     0.19083   0.55152   0.21241   0.00000  Uiso   1.00
H312   H     0.95054   0.09260   0.19265   0.00000  Uiso   1.00
H313   H     0.22415   0.36305   0.79985   0.00000  Uiso   1.00
O314   O     0.19192   0.88861   0.25961   0.00000  Uiso   1.00
O315   O     0.87666   0.28653   0.23369   0.00000  Uiso   1.00
O316   O     0.23564   0.64135   0.71834   0.00000  Uiso   1.00
N317   N     0.15494   0.95245   0.20645   0.00000  Uiso   1.00
N318   N     0.93028   0.52339   0.18800   0.00000  Uiso   1.00
N319   N     0.18608   0.77622   0.82075   0.00000  Uiso   1.00
N320   N     0.17692   0.66210   0.20405   0.00000  Uiso   1.00
N321   N     0.95225   0.23305   0.18559   0.00000  Uiso   1.00
N322   N     0.20805   0.48587   0.81835   0.00000  Uiso   1.00
C323   C     0.58852   0.27628   0.07194   0.00000  Uiso   1.00
C324   C     0.61220   0.25388   0.10841   0.00000  Uiso   1.00
C325   C     0.61987   0.39678   0.14043   0.00000  Uiso   1.00
C326   C     0.64209   0.34760   0.17089   0.00000  Uiso   1.00
C327   C     0.67671   0.34101   0.22779   0.00000  Uiso   1.00
C328   C     0.55028   0.13563   0.10334   0.00000  Uiso   1.00
C329   C     0.50588   0.17911   0.13108   0.00000  Uiso   1.00
C330   C     0.47599   0.03037   0.15726   0.00000  Uiso   1.00
C331   C     0.41447   0.84019   0.20624   0.00000  Uiso   1.00
C332   C     0.62078   0.20532   0.00213   0.00000  Uiso   1.00
C333   C     0.63566   0.30738   0.94477   0.00000  Uiso   1.00
C334   C     0.66511   0.21730   0.88574   0.00000  Uiso   1.00
C335   C     0.71307   0.13533   0.77757   0.00000  Uiso   1.00
C336   C     0.61436   0.93483   0.06911   0.00000  Uiso   1.00
C337   C     0.62624   0.06842   0.10688   0.00000  Uiso   1.00
C338   C     0.64846   0.01901   0.13730   0.00000  Uiso   1.00
C339   C     0.65616   0.16181   0.16935   0.00000  Uiso   1.00
C340   C     0.56432   0.95018   0.10180   0.00000  Uiso   1.00
C341   C     0.53448   0.80134   0.12795   0.00000  Uiso   1.00
C342   C     0.49005   0.84458   0.15573   0.00000  Uiso   1.00
C343   C     0.63482   0.01986   0.00059   0.00000  Uiso   1.00
C344   C     0.66425   0.92961   0.94164   0.00000  Uiso   1.00
C345   C     0.67917   0.03151   0.88420   0.00000  Uiso   1.00
H346   H     0.57759   0.42066   0.07314   0.00000  Uiso   1.00
H347   H     0.60899   0.54028   0.14161   0.00000  Uiso   1.00
H348   H     0.49503   0.32264   0.13226   0.00000  Uiso   1.00
H349   H     0.62479   0.45089   0.94598   0.00000  Uiso   1.00
H350   H     0.64999   0.59110   0.21687   0.00000  Uiso   1.00
H351   H     0.40969   0.13218   0.19713   0.00000  Uiso   1.00
H352   H     0.68331   0.40263   0.80432   0.00000  Uiso   1.00
H353   H     0.62529   0.79043   0.06791   0.00000  Uiso   1.00
H354   H     0.65932   0.87547   0.13610   0.00000  Uiso   1.00
H355   H     0.54535   0.65784   0.12675   0.00000  Uiso   1.00
H356   H     0.67511   0.78609   0.94047   0.00000  Uiso   1.00
H357   H     0.69083   0.05152   0.21241   0.00000  Uiso   1.00
H358   H     0.45054   0.59260   0.19265   0.00000  Uiso   1.00
H359   H     0.72415   0.86305   0.79985   0.00000  Uiso   1.00
O360   O     0.69192   0.38861   0.25961   0.00000  Uiso   1.00
O361   O     0.37666   0.78653   0.23369   0.00000  Uiso   1.00
O362   O     0.73564   0.14135   0.71834   0.00000  Uiso   1.00
N363   N     0.65494   0.45245   0.20645   0.00000  Uiso   1.00
N364   N     0.43028   0.02339   0.18800   0.00000  Uiso   1.00
N365   N     0.68608   0.27622   0.82075   0.00000  Uiso   1.00
N366   N     0.67692   0.16210   0.20405   0.00000  Uiso   1.00
N367   N     0.45225   0.73305   0.18559   0.00000  Uiso   1.00
N368   N     0.70805   0.98587   0.81835   0.00000  Uiso   1.00
