data_job_01914
_audit_creation_date              2018-12-19
_audit_creation_method            'Materials Studio'
_symmetry_space_group_name_H-M    'P1'
_symmetry_Int_Tables_number       1
_symmetry_cell_setting            triclinic
loop_
_symmetry_equiv_pos_as_xyz
  x,y,z
_cell_length_a                    15.3502
_cell_length_b                    33.0098
_cell_length_c                    11.5425
_cell_angle_alpha                 90.0000
_cell_angle_beta                  90.0000
_cell_angle_gamma                 90.0000
loop_
_atom_site_label
_atom_site_type_symbol
_atom_site_fract_x
_atom_site_fract_y
_atom_site_fract_z
_atom_site_U_iso_or_equiv
_atom_site_adp_type
_atom_site_occupancy
C1     C     0.65368   0.37809   0.10141   0.00000  Uiso   1.00
C2     C     0.56574   0.39782   0.12574   0.00000  Uiso   1.00
C3     C     0.52971   0.40418   0.23450   0.00000  Uiso   1.00
C4     C     0.44856   0.42270   0.23843   0.00000  Uiso   1.00
C5     C     0.31860   0.45154   0.29161   0.00000  Uiso   1.00
C6     C     0.63517   0.34254   0.02068   0.00000  Uiso   1.00
C7     C     0.65754   0.30244   0.04111   0.00000  Uiso   1.00
C8     C     0.63485   0.27443   0.95659   0.00000  Uiso   1.00
C9     C     0.61275   0.21746   0.84663   0.00000  Uiso   1.00
C10    C     0.70527   0.40868   0.03005   0.00000  Uiso   1.00
C11    C     0.78658   0.42417   0.05832   0.00000  Uiso   1.00
C12    C     0.82291   0.45184   0.98167   0.00000  Uiso   1.00
C13    C     0.90964   0.49755   0.88625   0.00000  Uiso   1.00
C14    C     0.57362   0.39966   0.91498   0.00000  Uiso   1.00
C15    C     0.52226   0.40953   0.02448   0.00000  Uiso   1.00
C16    C     0.44114   0.42805   0.02824   0.00000  Uiso   1.00
C17    C     0.40500   0.43444   0.13699   0.00000  Uiso   1.00
C18    C     0.59169   0.35426   0.91943   0.00000  Uiso   1.00
C19    C     0.56896   0.32631   0.83485   0.00000  Uiso   1.00
C20    C     0.59128   0.28617   0.85515   0.00000  Uiso   1.00
C21    C     0.66178   0.42040   0.92879   0.00000  Uiso   1.00
C22    C     0.69800   0.44804   0.85207   0.00000  Uiso   1.00
C23    C     0.77935   0.46358   0.88023   0.00000  Uiso   1.00
H24    H     0.68754   0.36896   0.18024   0.00000  Uiso   1.00
H25    H     0.56338   0.39511   0.31284   0.00000  Uiso   1.00
H26    H     0.69120   0.29338   0.11947   0.00000  Uiso   1.00
H27    H     0.82021   0.41510   0.13669   0.00000  Uiso   1.00
H28    H     0.40654   0.42925   0.41520   0.00000  Uiso   1.00
H29    H     0.67607   0.21475   0.00746   0.00000  Uiso   1.00
H30    H     0.94813   0.47142   0.04376   0.00000  Uiso   1.00
H31    H     0.53977   0.40878   0.83614   0.00000  Uiso   1.00
H32    H     0.40750   0.43712   0.94987   0.00000  Uiso   1.00
H33    H     0.53532   0.33539   0.75650   0.00000  Uiso   1.00
H34    H     0.66433   0.45710   0.77372   0.00000  Uiso   1.00
H35    H     0.28002   0.46334   0.12060   0.00000  Uiso   1.00
H36    H     0.54956   0.24885   0.71285   0.00000  Uiso   1.00
H37    H     0.82161   0.50551   0.74915   0.00000  Uiso   1.00
O38    O     0.25893   0.46420   0.34892   0.00000  Uiso   1.00
O39    O     0.61256   0.18280   0.81396   0.00000  Uiso   1.00
O40    O     0.96948   0.51953   0.86159   0.00000  Uiso   1.00
N41    N     0.39493   0.43339   0.33026   0.00000  Uiso   1.00
N42    N     0.64691   0.23285   0.94905   0.00000  Uiso   1.00
N43    N     0.90127   0.47280   0.98297   0.00000  Uiso   1.00
N44    N     0.32685   0.45174   0.17174   0.00000  Uiso   1.00
N45    N     0.57883   0.25120   0.79053   0.00000  Uiso   1.00
N46    N     0.83319   0.49115   0.82445   0.00000  Uiso   1.00
C47    C     0.84632   0.12191   0.10141   0.00000  Uiso   1.00
C48    C     0.93426   0.10218   0.12574   0.00000  Uiso   1.00
C49    C     0.97029   0.09582   0.23450   0.00000  Uiso   1.00
C50    C     0.05144   0.07730   0.23843   0.00000  Uiso   1.00
C51    C     0.18140   0.04846   0.29161   0.00000  Uiso   1.00
C52    C     0.86483   0.15746   0.02068   0.00000  Uiso   1.00
C53    C     0.84246   0.19756   0.04111   0.00000  Uiso   1.00
C54    C     0.86515   0.22557   0.95659   0.00000  Uiso   1.00
C55    C     0.88725   0.28254   0.84663   0.00000  Uiso   1.00
C56    C     0.79473   0.09132   0.03005   0.00000  Uiso   1.00
C57    C     0.71342   0.07583   0.05832   0.00000  Uiso   1.00
C58    C     0.67709   0.04816   0.98167   0.00000  Uiso   1.00
C59    C     0.59036   0.00245   0.88625   0.00000  Uiso   1.00
C60    C     0.92638   0.10034   0.91498   0.00000  Uiso   1.00
C61    C     0.97774   0.09047   0.02448   0.00000  Uiso   1.00
C62    C     0.05886   0.07195   0.02824   0.00000  Uiso   1.00
C63    C     0.09500   0.06556   0.13699   0.00000  Uiso   1.00
C64    C     0.90831   0.14574   0.91943   0.00000  Uiso   1.00
C65    C     0.93104   0.17369   0.83485   0.00000  Uiso   1.00
C66    C     0.90872   0.21383   0.85515   0.00000  Uiso   1.00
C67    C     0.83822   0.07960   0.92879   0.00000  Uiso   1.00
C68    C     0.80200   0.05196   0.85207   0.00000  Uiso   1.00
C69    C     0.72065   0.03642   0.88023   0.00000  Uiso   1.00
H70    H     0.81246   0.13104   0.18024   0.00000  Uiso   1.00
H71    H     0.93662   0.10489   0.31284   0.00000  Uiso   1.00
H72    H     0.80880   0.20662   0.11947   0.00000  Uiso   1.00
H73    H     0.67979   0.08490   0.13669   0.00000  Uiso   1.00
H74    H     0.09346   0.07075   0.41520   0.00000  Uiso   1.00
H75    H     0.82393   0.28525   0.00746   0.00000  Uiso   1.00
H76    H     0.55187   0.02858   0.04376   0.00000  Uiso   1.00
H77    H     0.96023   0.09122   0.83614   0.00000  Uiso   1.00
H78    H     0.09250   0.06288   0.94987   0.00000  Uiso   1.00
H79    H     0.96468   0.16461   0.75650   0.00000  Uiso   1.00
H80    H     0.83567   0.04290   0.77372   0.00000  Uiso   1.00
H81    H     0.21998   0.03666   0.12060   0.00000  Uiso   1.00
H82    H     0.95044   0.25115   0.71285   0.00000  Uiso   1.00
H83    H     0.67839   0.99449   0.74915   0.00000  Uiso   1.00
O84    O     0.24107   0.03580   0.34892   0.00000  Uiso   1.00
O85    O     0.88744   0.31720   0.81396   0.00000  Uiso   1.00
O86    O     0.53052   0.98047   0.86159   0.00000  Uiso   1.00
N87    N     0.10507   0.06661   0.33026   0.00000  Uiso   1.00
N88    N     0.85309   0.26715   0.94905   0.00000  Uiso   1.00
N89    N     0.59873   0.02720   0.98297   0.00000  Uiso   1.00
N90    N     0.17315   0.04826   0.17174   0.00000  Uiso   1.00
N91    N     0.92117   0.24880   0.79053   0.00000  Uiso   1.00
N92    N     0.66681   0.00885   0.82445   0.00000  Uiso   1.00
C93    C     0.34632   0.87809   0.39859   0.00000  Uiso   1.00
C94    C     0.43426   0.89782   0.37426   0.00000  Uiso   1.00
C95    C     0.47029   0.90418   0.26550   0.00000  Uiso   1.00
C96    C     0.55144   0.92270   0.26157   0.00000  Uiso   1.00
C97    C     0.68140   0.95154   0.20839   0.00000  Uiso   1.00
C98    C     0.36483   0.84254   0.47932   0.00000  Uiso   1.00
C99    C     0.34246   0.80244   0.45889   0.00000  Uiso   1.00
C100   C     0.36515   0.77443   0.54341   0.00000  Uiso   1.00
C101   C     0.38725   0.71746   0.65337   0.00000  Uiso   1.00
C102   C     0.29473   0.90868   0.46995   0.00000  Uiso   1.00
C103   C     0.21342   0.92417   0.44168   0.00000  Uiso   1.00
C104   C     0.17709   0.95184   0.51833   0.00000  Uiso   1.00
C105   C     0.09036   0.99755   0.61375   0.00000  Uiso   1.00
C106   C     0.42638   0.89966   0.58502   0.00000  Uiso   1.00
C107   C     0.47774   0.90953   0.47552   0.00000  Uiso   1.00
C108   C     0.55886   0.92805   0.47176   0.00000  Uiso   1.00
C109   C     0.59500   0.93444   0.36301   0.00000  Uiso   1.00
C110   C     0.40831   0.85426   0.58057   0.00000  Uiso   1.00
C111   C     0.43104   0.82631   0.66515   0.00000  Uiso   1.00
C112   C     0.40872   0.78617   0.64485   0.00000  Uiso   1.00
C113   C     0.33822   0.92040   0.57121   0.00000  Uiso   1.00
C114   C     0.30200   0.94804   0.64793   0.00000  Uiso   1.00
C115   C     0.22065   0.96358   0.61977   0.00000  Uiso   1.00
H116   H     0.31246   0.86896   0.31976   0.00000  Uiso   1.00
H117   H     0.43662   0.89511   0.18716   0.00000  Uiso   1.00
H118   H     0.30880   0.79338   0.38053   0.00000  Uiso   1.00
H119   H     0.17979   0.91510   0.36331   0.00000  Uiso   1.00
H120   H     0.59346   0.92925   0.08480   0.00000  Uiso   1.00
H121   H     0.32393   0.71475   0.49254   0.00000  Uiso   1.00
H122   H     0.05187   0.97142   0.45624   0.00000  Uiso   1.00
H123   H     0.46023   0.90878   0.66386   0.00000  Uiso   1.00
H124   H     0.59250   0.93712   0.55013   0.00000  Uiso   1.00
H125   H     0.46468   0.83539   0.74350   0.00000  Uiso   1.00
H126   H     0.33567   0.95710   0.72628   0.00000  Uiso   1.00
H127   H     0.71998   0.96334   0.37940   0.00000  Uiso   1.00
H128   H     0.45044   0.74885   0.78715   0.00000  Uiso   1.00
H129   H     0.17839   0.00551   0.75085   0.00000  Uiso   1.00
O130   O     0.74107   0.96420   0.15108   0.00000  Uiso   1.00
O131   O     0.38744   0.68280   0.68604   0.00000  Uiso   1.00
O132   O     0.03052   0.01953   0.63841   0.00000  Uiso   1.00
N133   N     0.60507   0.93339   0.16974   0.00000  Uiso   1.00
N134   N     0.35309   0.73285   0.55095   0.00000  Uiso   1.00
N135   N     0.09873   0.97280   0.51703   0.00000  Uiso   1.00
N136   N     0.67315   0.95174   0.32826   0.00000  Uiso   1.00
N137   N     0.42117   0.75120   0.70947   0.00000  Uiso   1.00
N138   N     0.16681   0.99115   0.67555   0.00000  Uiso   1.00
C139   C     0.15368   0.62191   0.39859   0.00000  Uiso   1.00
C140   C     0.06574   0.60218   0.37426   0.00000  Uiso   1.00
C141   C     0.02971   0.59582   0.26550   0.00000  Uiso   1.00
C142   C     0.94856   0.57730   0.26157   0.00000  Uiso   1.00
C143   C     0.81860   0.54846   0.20839   0.00000  Uiso   1.00
C144   C     0.13517   0.65746   0.47932   0.00000  Uiso   1.00
C145   C     0.15754   0.69756   0.45889   0.00000  Uiso   1.00
C146   C     0.13485   0.72557   0.54341   0.00000  Uiso   1.00
C147   C     0.11275   0.78254   0.65337   0.00000  Uiso   1.00
C148   C     0.20527   0.59132   0.46995   0.00000  Uiso   1.00
C149   C     0.28658   0.57583   0.44168   0.00000  Uiso   1.00
C150   C     0.32291   0.54816   0.51833   0.00000  Uiso   1.00
C151   C     0.40964   0.50245   0.61375   0.00000  Uiso   1.00
C152   C     0.07362   0.60034   0.58502   0.00000  Uiso   1.00
C153   C     0.02226   0.59047   0.47552   0.00000  Uiso   1.00
C154   C     0.94114   0.57195   0.47176   0.00000  Uiso   1.00
C155   C     0.90500   0.56556   0.36301   0.00000  Uiso   1.00
C156   C     0.09169   0.64574   0.58057   0.00000  Uiso   1.00
C157   C     0.06896   0.67369   0.66515   0.00000  Uiso   1.00
C158   C     0.09128   0.71383   0.64485   0.00000  Uiso   1.00
C159   C     0.16178   0.57960   0.57121   0.00000  Uiso   1.00
C160   C     0.19800   0.55196   0.64793   0.00000  Uiso   1.00
C161   C     0.27935   0.53642   0.61977   0.00000  Uiso   1.00
H162   H     0.18754   0.63104   0.31976   0.00000  Uiso   1.00
H163   H     0.06338   0.60489   0.18716   0.00000  Uiso   1.00
H164   H     0.19120   0.70662   0.38053   0.00000  Uiso   1.00
H165   H     0.32021   0.58490   0.36331   0.00000  Uiso   1.00
H166   H     0.90654   0.57075   0.08480   0.00000  Uiso   1.00
H167   H     0.17607   0.78525   0.49254   0.00000  Uiso   1.00
H168   H     0.44813   0.52858   0.45624   0.00000  Uiso   1.00
H169   H     0.03977   0.59122   0.66386   0.00000  Uiso   1.00
H170   H     0.90750   0.56288   0.55013   0.00000  Uiso   1.00
H171   H     0.03532   0.66461   0.74350   0.00000  Uiso   1.00
H172   H     0.16433   0.54290   0.72628   0.00000  Uiso   1.00
H173   H     0.78002   0.53666   0.37940   0.00000  Uiso   1.00
H174   H     0.04956   0.75115   0.78715   0.00000  Uiso   1.00
H175   H     0.32161   0.49449   0.75085   0.00000  Uiso   1.00
O176   O     0.75893   0.53580   0.15108   0.00000  Uiso   1.00
O177   O     0.11256   0.81720   0.68604   0.00000  Uiso   1.00
O178   O     0.46948   0.48047   0.63841   0.00000  Uiso   1.00
N179   N     0.89493   0.56661   0.16974   0.00000  Uiso   1.00
N180   N     0.14691   0.76715   0.55095   0.00000  Uiso   1.00
N181   N     0.40127   0.52720   0.51703   0.00000  Uiso   1.00
N182   N     0.82685   0.54826   0.32826   0.00000  Uiso   1.00
N183   N     0.07883   0.74880   0.70947   0.00000  Uiso   1.00
N184   N     0.33319   0.50885   0.67555   0.00000  Uiso   1.00
C185   C     0.34632   0.62191   0.89859   0.00000  Uiso   1.00
C186   C     0.43426   0.60218   0.87426   0.00000  Uiso   1.00
C187   C     0.47029   0.59582   0.76550   0.00000  Uiso   1.00
C188   C     0.55144   0.57730   0.76157   0.00000  Uiso   1.00
C189   C     0.68140   0.54846   0.70839   0.00000  Uiso   1.00
C190   C     0.36483   0.65746   0.97932   0.00000  Uiso   1.00
C191   C     0.34246   0.69756   0.95889   0.00000  Uiso   1.00
C192   C     0.36515   0.72557   0.04341   0.00000  Uiso   1.00
C193   C     0.38725   0.78254   0.15337   0.00000  Uiso   1.00
C194   C     0.29473   0.59132   0.96995   0.00000  Uiso   1.00
C195   C     0.21342   0.57583   0.94168   0.00000  Uiso   1.00
C196   C     0.17709   0.54816   0.01833   0.00000  Uiso   1.00
C197   C     0.09036   0.50245   0.11375   0.00000  Uiso   1.00
C198   C     0.42638   0.60034   0.08502   0.00000  Uiso   1.00
C199   C     0.47774   0.59047   0.97552   0.00000  Uiso   1.00
C200   C     0.55886   0.57195   0.97176   0.00000  Uiso   1.00
C201   C     0.59500   0.56556   0.86301   0.00000  Uiso   1.00
C202   C     0.40831   0.64574   0.08057   0.00000  Uiso   1.00
C203   C     0.43104   0.67369   0.16515   0.00000  Uiso   1.00
C204   C     0.40872   0.71383   0.14485   0.00000  Uiso   1.00
C205   C     0.33822   0.57960   0.07121   0.00000  Uiso   1.00
C206   C     0.30200   0.55196   0.14793   0.00000  Uiso   1.00
C207   C     0.22065   0.53642   0.11977   0.00000  Uiso   1.00
H208   H     0.31246   0.63104   0.81976   0.00000  Uiso   1.00
H209   H     0.43662   0.60489   0.68716   0.00000  Uiso   1.00
H210   H     0.30880   0.70662   0.88053   0.00000  Uiso   1.00
H211   H     0.17979   0.58490   0.86331   0.00000  Uiso   1.00
H212   H     0.59346   0.57075   0.58480   0.00000  Uiso   1.00
H213   H     0.32393   0.78525   0.99254   0.00000  Uiso   1.00
H214   H     0.05187   0.52858   0.95624   0.00000  Uiso   1.00
H215   H     0.46023   0.59122   0.16386   0.00000  Uiso   1.00
H216   H     0.59250   0.56288   0.05013   0.00000  Uiso   1.00
H217   H     0.46468   0.66461   0.24350   0.00000  Uiso   1.00
H218   H     0.33567   0.54290   0.22628   0.00000  Uiso   1.00
H219   H     0.71998   0.53666   0.87940   0.00000  Uiso   1.00
H220   H     0.45044   0.75115   0.28715   0.00000  Uiso   1.00
H221   H     0.17839   0.49449   0.25085   0.00000  Uiso   1.00
O222   O     0.74107   0.53580   0.65108   0.00000  Uiso   1.00
O223   O     0.38744   0.81720   0.18604   0.00000  Uiso   1.00
O224   O     0.03052   0.48047   0.13841   0.00000  Uiso   1.00
N225   N     0.60507   0.56661   0.66974   0.00000  Uiso   1.00
N226   N     0.35309   0.76715   0.05095   0.00000  Uiso   1.00
N227   N     0.09873   0.52720   0.01703   0.00000  Uiso   1.00
N228   N     0.67315   0.54826   0.82826   0.00000  Uiso   1.00
N229   N     0.42117   0.74880   0.20947   0.00000  Uiso   1.00
N230   N     0.16681   0.50885   0.17555   0.00000  Uiso   1.00
C231   C     0.15368   0.87809   0.89859   0.00000  Uiso   1.00
C232   C     0.06574   0.89782   0.87426   0.00000  Uiso   1.00
C233   C     0.02971   0.90418   0.76550   0.00000  Uiso   1.00
C234   C     0.94856   0.92270   0.76157   0.00000  Uiso   1.00
C235   C     0.81860   0.95154   0.70839   0.00000  Uiso   1.00
C236   C     0.13517   0.84254   0.97932   0.00000  Uiso   1.00
C237   C     0.15754   0.80244   0.95889   0.00000  Uiso   1.00
C238   C     0.13485   0.77443   0.04341   0.00000  Uiso   1.00
C239   C     0.11275   0.71746   0.15337   0.00000  Uiso   1.00
C240   C     0.20527   0.90868   0.96995   0.00000  Uiso   1.00
C241   C     0.28658   0.92417   0.94168   0.00000  Uiso   1.00
C242   C     0.32291   0.95184   0.01833   0.00000  Uiso   1.00
C243   C     0.40964   0.99755   0.11375   0.00000  Uiso   1.00
C244   C     0.07362   0.89966   0.08502   0.00000  Uiso   1.00
C245   C     0.02226   0.90953   0.97552   0.00000  Uiso   1.00
C246   C     0.94114   0.92805   0.97176   0.00000  Uiso   1.00
C247   C     0.90500   0.93444   0.86301   0.00000  Uiso   1.00
C248   C     0.09169   0.85426   0.08057   0.00000  Uiso   1.00
C249   C     0.06896   0.82631   0.16515   0.00000  Uiso   1.00
C250   C     0.09128   0.78617   0.14485   0.00000  Uiso   1.00
C251   C     0.16178   0.92040   0.07121   0.00000  Uiso   1.00
C252   C     0.19800   0.94804   0.14793   0.00000  Uiso   1.00
C253   C     0.27935   0.96358   0.11977   0.00000  Uiso   1.00
H254   H     0.18754   0.86896   0.81976   0.00000  Uiso   1.00
H255   H     0.06338   0.89511   0.68716   0.00000  Uiso   1.00
H256   H     0.19120   0.79338   0.88053   0.00000  Uiso   1.00
H257   H     0.32021   0.91510   0.86331   0.00000  Uiso   1.00
H258   H     0.90654   0.92925   0.58480   0.00000  Uiso   1.00
H259   H     0.17607   0.71475   0.99254   0.00000  Uiso   1.00
H260   H     0.44813   0.97142   0.95624   0.00000  Uiso   1.00
H261   H     0.03977   0.90878   0.16386   0.00000  Uiso   1.00
H262   H     0.90750   0.93712   0.05013   0.00000  Uiso   1.00
H263   H     0.03532   0.83539   0.24350   0.00000  Uiso   1.00
H264   H     0.16433   0.95710   0.22628   0.00000  Uiso   1.00
H265   H     0.78002   0.96334   0.87940   0.00000  Uiso   1.00
H266   H     0.04956   0.74885   0.28715   0.00000  Uiso   1.00
H267   H     0.32161   0.00551   0.25085   0.00000  Uiso   1.00
O268   O     0.75893   0.96420   0.65108   0.00000  Uiso   1.00
O269   O     0.11256   0.68280   0.18604   0.00000  Uiso   1.00
O270   O     0.46948   0.01953   0.13841   0.00000  Uiso   1.00
N271   N     0.89493   0.93339   0.66974   0.00000  Uiso   1.00
N272   N     0.14691   0.73285   0.05095   0.00000  Uiso   1.00
N273   N     0.40127   0.97280   0.01703   0.00000  Uiso   1.00
N274   N     0.82685   0.95174   0.82826   0.00000  Uiso   1.00
N275   N     0.07883   0.75120   0.20947   0.00000  Uiso   1.00
N276   N     0.33319   0.99115   0.17555   0.00000  Uiso   1.00
C277   C     0.65368   0.12191   0.60141   0.00000  Uiso   1.00
C278   C     0.56574   0.10218   0.62574   0.00000  Uiso   1.00
C279   C     0.52971   0.09582   0.73450   0.00000  Uiso   1.00
C280   C     0.44856   0.07730   0.73843   0.00000  Uiso   1.00
C281   C     0.31860   0.04846   0.79161   0.00000  Uiso   1.00
C282   C     0.63517   0.15746   0.52068   0.00000  Uiso   1.00
C283   C     0.65754   0.19756   0.54111   0.00000  Uiso   1.00
C284   C     0.63485   0.22557   0.45659   0.00000  Uiso   1.00
C285   C     0.61275   0.28254   0.34663   0.00000  Uiso   1.00
C286   C     0.70527   0.09132   0.53005   0.00000  Uiso   1.00
C287   C     0.78658   0.07583   0.55832   0.00000  Uiso   1.00
C288   C     0.82291   0.04816   0.48167   0.00000  Uiso   1.00
C289   C     0.90964   0.00245   0.38625   0.00000  Uiso   1.00
C290   C     0.57362   0.10034   0.41498   0.00000  Uiso   1.00
C291   C     0.52226   0.09047   0.52448   0.00000  Uiso   1.00
C292   C     0.44114   0.07195   0.52824   0.00000  Uiso   1.00
C293   C     0.40500   0.06556   0.63699   0.00000  Uiso   1.00
C294   C     0.59169   0.14574   0.41943   0.00000  Uiso   1.00
C295   C     0.56896   0.17369   0.33485   0.00000  Uiso   1.00
C296   C     0.59128   0.21383   0.35515   0.00000  Uiso   1.00
C297   C     0.66178   0.07960   0.42879   0.00000  Uiso   1.00
C298   C     0.69800   0.05196   0.35207   0.00000  Uiso   1.00
C299   C     0.77935   0.03642   0.38023   0.00000  Uiso   1.00
H300   H     0.68754   0.13104   0.68024   0.00000  Uiso   1.00
H301   H     0.56338   0.10489   0.81284   0.00000  Uiso   1.00
H302   H     0.69120   0.20662   0.61947   0.00000  Uiso   1.00
H303   H     0.82021   0.08490   0.63669   0.00000  Uiso   1.00
H304   H     0.40654   0.07075   0.91520   0.00000  Uiso   1.00
H305   H     0.67607   0.28525   0.50746   0.00000  Uiso   1.00
H306   H     0.94813   0.02858   0.54376   0.00000  Uiso   1.00
H307   H     0.53977   0.09122   0.33614   0.00000  Uiso   1.00
H308   H     0.40750   0.06288   0.44987   0.00000  Uiso   1.00
H309   H     0.53532   0.16461   0.25650   0.00000  Uiso   1.00
H310   H     0.66433   0.04290   0.27372   0.00000  Uiso   1.00
H311   H     0.28002   0.03666   0.62060   0.00000  Uiso   1.00
H312   H     0.54956   0.25115   0.21285   0.00000  Uiso   1.00
H313   H     0.82161   0.99449   0.24915   0.00000  Uiso   1.00
O314   O     0.25893   0.03580   0.84892   0.00000  Uiso   1.00
O315   O     0.61256   0.31720   0.31396   0.00000  Uiso   1.00
O316   O     0.96948   0.98047   0.36159   0.00000  Uiso   1.00
N317   N     0.39493   0.06661   0.83026   0.00000  Uiso   1.00
N318   N     0.64691   0.26715   0.44905   0.00000  Uiso   1.00
N319   N     0.90127   0.02720   0.48297   0.00000  Uiso   1.00
N320   N     0.32685   0.04826   0.67174   0.00000  Uiso   1.00
N321   N     0.57883   0.24880   0.29053   0.00000  Uiso   1.00
N322   N     0.83319   0.00885   0.32445   0.00000  Uiso   1.00
C323   C     0.84632   0.37809   0.60141   0.00000  Uiso   1.00
C324   C     0.93426   0.39782   0.62574   0.00000  Uiso   1.00
C325   C     0.97029   0.40418   0.73450   0.00000  Uiso   1.00
C326   C     0.05144   0.42270   0.73843   0.00000  Uiso   1.00
C327   C     0.18140   0.45154   0.79161   0.00000  Uiso   1.00
C328   C     0.86483   0.34254   0.52068   0.00000  Uiso   1.00
C329   C     0.84246   0.30244   0.54111   0.00000  Uiso   1.00
C330   C     0.86515   0.27443   0.45659   0.00000  Uiso   1.00
C331   C     0.88725   0.21746   0.34663   0.00000  Uiso   1.00
C332   C     0.79473   0.40868   0.53005   0.00000  Uiso   1.00
C333   C     0.71342   0.42417   0.55832   0.00000  Uiso   1.00
C334   C     0.67709   0.45184   0.48167   0.00000  Uiso   1.00
C335   C     0.59036   0.49755   0.38625   0.00000  Uiso   1.00
C336   C     0.92638   0.39966   0.41498   0.00000  Uiso   1.00
C337   C     0.97774   0.40953   0.52448   0.00000  Uiso   1.00
C338   C     0.05886   0.42805   0.52824   0.00000  Uiso   1.00
C339   C     0.09500   0.43444   0.63699   0.00000  Uiso   1.00
C340   C     0.90831   0.35426   0.41943   0.00000  Uiso   1.00
C341   C     0.93104   0.32631   0.33485   0.00000  Uiso   1.00
C342   C     0.90872   0.28617   0.35515   0.00000  Uiso   1.00
C343   C     0.83822   0.42040   0.42879   0.00000  Uiso   1.00
C344   C     0.80200   0.44804   0.35207   0.00000  Uiso   1.00
C345   C     0.72065   0.46358   0.38023   0.00000  Uiso   1.00
H346   H     0.81246   0.36896   0.68024   0.00000  Uiso   1.00
H347   H     0.93662   0.39511   0.81284   0.00000  Uiso   1.00
H348   H     0.80880   0.29338   0.61947   0.00000  Uiso   1.00
H349   H     0.67979   0.41510   0.63669   0.00000  Uiso   1.00
H350   H     0.09346   0.42925   0.91520   0.00000  Uiso   1.00
H351   H     0.82393   0.21475   0.50746   0.00000  Uiso   1.00
H352   H     0.55187   0.47142   0.54376   0.00000  Uiso   1.00
H353   H     0.96023   0.40878   0.33614   0.00000  Uiso   1.00
H354   H     0.09250   0.43712   0.44987   0.00000  Uiso   1.00
H355   H     0.96468   0.33539   0.25650   0.00000  Uiso   1.00
H356   H     0.83567   0.45710   0.27372   0.00000  Uiso   1.00
H357   H     0.21998   0.46334   0.62060   0.00000  Uiso   1.00
H358   H     0.95044   0.24885   0.21285   0.00000  Uiso   1.00
H359   H     0.67839   0.50551   0.24915   0.00000  Uiso   1.00
O360   O     0.24107   0.46420   0.84892   0.00000  Uiso   1.00
O361   O     0.88744   0.18280   0.31396   0.00000  Uiso   1.00
O362   O     0.53052   0.51953   0.36159   0.00000  Uiso   1.00
N363   N     0.10507   0.43339   0.83026   0.00000  Uiso   1.00
N364   N     0.85309   0.23285   0.44905   0.00000  Uiso   1.00
N365   N     0.59873   0.47280   0.48297   0.00000  Uiso   1.00
N366   N     0.17315   0.45174   0.67174   0.00000  Uiso   1.00
N367   N     0.92117   0.25120   0.29053   0.00000  Uiso   1.00
N368   N     0.66681   0.49115   0.32445   0.00000  Uiso   1.00
