data_job_04701
_audit_creation_date              2018-12-19
_audit_creation_method            'Materials Studio'
_symmetry_space_group_name_H-M    'P1'
_symmetry_Int_Tables_number       1
_symmetry_cell_setting            triclinic
loop_
_symmetry_equiv_pos_as_xyz
  x,y,z
_cell_length_a                    12.5835
_cell_length_b                    26.9848
_cell_length_c                    12.4403
_cell_angle_alpha                 90.0000
_cell_angle_beta                  68.4929
_cell_angle_gamma                 90.0000
loop_
_atom_site_label
_atom_site_type_symbol
_atom_site_fract_x
_atom_site_fract_y
_atom_site_fract_z
_atom_site_U_iso_or_equiv
_atom_site_adp_type
_atom_site_occupancy
C1     C     0.75130   0.80233   0.05195   0.00000  Uiso   1.00
C2     C     0.66363   0.82171   0.00413   0.00000  Uiso   1.00
C3     C     0.63049   0.79816   0.92229   0.00000  Uiso   1.00
C4     C     0.54910   0.82196   0.88982   0.00000  Uiso   1.00
C5     C     0.42010   0.84512   0.80827   0.00000  Uiso   1.00
C6     C     0.84137   0.84286   0.02918   0.00000  Uiso   1.00
C7     C     0.95766   0.83707   0.96841   0.00000  Uiso   1.00
C8     C     0.02589   0.87867   0.95704   0.00000  Uiso   1.00
C9     C     0.17283   0.93464   0.91445   0.00000  Uiso   1.00
C10    C     0.69023   0.80008   0.18275   0.00000  Uiso   1.00
C11    C     0.67947   0.75834   0.25112   0.00000  Uiso   1.00
C12    C     0.62047   0.76392   0.36906   0.00000  Uiso   1.00
C13    C     0.53275   0.75347   0.56491   0.00000  Uiso   1.00
C14    C     0.66569   0.88647   0.13984   0.00000  Uiso   1.00
C15    C     0.61714   0.86742   0.05187   0.00000  Uiso   1.00
C16    C     0.53577   0.89125   0.01953   0.00000  Uiso   1.00
C17    C     0.50251   0.86774   0.93765   0.00000  Uiso   1.00
C18    C     0.79487   0.88856   0.07692   0.00000  Uiso   1.00
C19    C     0.86294   0.93017   0.06565   0.00000  Uiso   1.00
C20    C     0.97931   0.92445   0.00487   0.00000  Uiso   1.00
C21    C     0.64373   0.84578   0.23050   0.00000  Uiso   1.00
C22    C     0.58475   0.85143   0.34835   0.00000  Uiso   1.00
C23    C     0.57389   0.80970   0.41688   0.00000  Uiso   1.00
H24    H     0.78750   0.76675   0.01478   0.00000  Uiso   1.00
H25    H     0.66650   0.76279   0.88536   0.00000  Uiso   1.00
H26    H     0.99362   0.80170   0.93149   0.00000  Uiso   1.00
H27    H     0.71547   0.72298   0.21415   0.00000  Uiso   1.00
H28    H     0.51187   0.77858   0.76289   0.00000  Uiso   1.00
H29    H     0.20163   0.86061   0.86018   0.00000  Uiso   1.00
H30    H     0.61509   0.69460   0.45623   0.00000  Uiso   1.00
H31    H     0.62949   0.92205   0.17701   0.00000  Uiso   1.00
H32    H     0.49980   0.92662   0.05649   0.00000  Uiso   1.00
H33    H     0.82693   0.96553   0.10261   0.00000  Uiso   1.00
H34    H     0.54878   0.88680   0.38527   0.00000  Uiso   1.00
H35    H     0.37658   0.91154   0.90178   0.00000  Uiso   1.00
H36    H     0.06634   0.99357   0.99907   0.00000  Uiso   1.00
H37    H     0.47979   0.82757   0.59512   0.00000  Uiso   1.00
O38    O     0.36180   0.84527   0.75009   0.00000  Uiso   1.00
O39    O     0.26673   0.95289   0.87776   0.00000  Uiso   1.00
O40    O     0.49720   0.73509   0.65975   0.00000  Uiso   1.00
N41    N     0.49781   0.80924   0.81213   0.00000  Uiso   1.00
N42    N     0.14269   0.88593   0.90308   0.00000  Uiso   1.00
N43    N     0.59435   0.73073   0.46034   0.00000  Uiso   1.00
N44    N     0.42501   0.88079   0.88687   0.00000  Uiso   1.00
N45    N     0.06989   0.95748   0.97781   0.00000  Uiso   1.00
N46    N     0.52155   0.80228   0.53507   0.00000  Uiso   1.00
C47    C     0.59521   0.20763   0.83208   0.00000  Uiso   1.00
C48    C     0.68525   0.18900   0.87752   0.00000  Uiso   1.00
C49    C     0.71971   0.21303   0.95789   0.00000  Uiso   1.00
C50    C     0.80323   0.18991   0.98826   0.00000  Uiso   1.00
C51    C     0.93581   0.16790   0.06621   0.00000  Uiso   1.00
C52    C     0.50624   0.16653   0.85675   0.00000  Uiso   1.00
C53    C     0.39019   0.17166   0.91964   0.00000  Uiso   1.00
C54    C     0.32302   0.12962   0.93250   0.00000  Uiso   1.00
C55    C     0.17767   0.07273   0.97813   0.00000  Uiso   1.00
C56    C     0.65378   0.20993   0.70099   0.00000  Uiso   1.00
C57    C     0.66176   0.25155   0.63292   0.00000  Uiso   1.00
C58    C     0.71879   0.24605   0.51464   0.00000  Uiso   1.00
C59    C     0.80252   0.25654   0.31844   0.00000  Uiso   1.00
C60    C     0.68227   0.12385   0.74307   0.00000  Uiso   1.00
C61    C     0.73254   0.14350   0.82917   0.00000  Uiso   1.00
C62    C     0.81603   0.12034   0.85941   0.00000  Uiso   1.00
C63    C     0.85061   0.14432   0.93982   0.00000  Uiso   1.00
C64    C     0.55352   0.12103   0.80840   0.00000  Uiso   1.00
C65    C     0.48651   0.07897   0.82116   0.00000  Uiso   1.00
C66    C     0.37039   0.08403   0.88407   0.00000  Uiso   1.00
C67    C     0.70107   0.16443   0.65264   0.00000  Uiso   1.00
C68    C     0.75809   0.15886   0.53445   0.00000  Uiso   1.00
C69    C     0.76616   0.20046   0.46621   0.00000  Uiso   1.00
H70    H     0.55839   0.24305   0.86972   0.00000  Uiso   1.00
H71    H     0.68309   0.24824   0.99530   0.00000  Uiso   1.00
H72    H     0.35362   0.20688   0.95704   0.00000  Uiso   1.00
H73    H     0.62516   0.28676   0.67037   0.00000  Uiso   1.00
H74    H     0.84217   0.23391   0.11323   0.00000  Uiso   1.00
H75    H     0.14746   0.14671   0.03253   0.00000  Uiso   1.00
H76    H     0.72004   0.31514   0.42802   0.00000  Uiso   1.00
H77    H     0.71908   0.08842   0.70543   0.00000  Uiso   1.00
H78    H     0.85261   0.08512   0.82199   0.00000  Uiso   1.00
H79    H     0.52313   0.04376   0.78373   0.00000  Uiso   1.00
H80    H     0.79467   0.12364   0.49706   0.00000  Uiso   1.00
H81    H     0.97975   0.10152   0.97257   0.00000  Uiso   1.00
H82    H     0.28504   0.01432   0.89186   0.00000  Uiso   1.00
H83    H     0.85763   0.18275   0.28736   0.00000  Uiso   1.00
O84    O     0.99587   0.16833   0.12257   0.00000  Uiso   1.00
O85    O     0.08443   0.05392   0.01667   0.00000  Uiso   1.00
O86    O     0.83566   0.27491   0.22358   0.00000  Uiso   1.00
N87    N     0.85624   0.20321   0.06411   0.00000  Uiso   1.00
N88    N     0.20673   0.12168   0.98867   0.00000  Uiso   1.00
N89    N     0.74202   0.27915   0.42351   0.00000  Uiso   1.00
N90    N     0.93027   0.13197   0.98842   0.00000  Uiso   1.00
N91    N     0.28076   0.05044   0.91299   0.00000  Uiso   1.00
N92    N     0.81606   0.20791   0.34782   0.00000  Uiso   1.00
C93    C     0.24870   0.30233   0.94805   0.00000  Uiso   1.00
C94    C     0.33637   0.32171   0.99587   0.00000  Uiso   1.00
C95    C     0.36951   0.29816   0.07771   0.00000  Uiso   1.00
C96    C     0.45090   0.32196   0.11018   0.00000  Uiso   1.00
C97    C     0.57990   0.34512   0.19173   0.00000  Uiso   1.00
C98    C     0.15863   0.34286   0.97082   0.00000  Uiso   1.00
C99    C     0.04234   0.33707   0.03159   0.00000  Uiso   1.00
C100   C     0.97411   0.37867   0.04296   0.00000  Uiso   1.00
C101   C     0.82717   0.43464   0.08555   0.00000  Uiso   1.00
C102   C     0.30977   0.30008   0.81725   0.00000  Uiso   1.00
C103   C     0.32053   0.25834   0.74888   0.00000  Uiso   1.00
C104   C     0.37953   0.26392   0.63094   0.00000  Uiso   1.00
C105   C     0.46725   0.25347   0.43509   0.00000  Uiso   1.00
C106   C     0.33431   0.38647   0.86016   0.00000  Uiso   1.00
C107   C     0.38286   0.36742   0.94813   0.00000  Uiso   1.00
C108   C     0.46423   0.39125   0.98047   0.00000  Uiso   1.00
C109   C     0.49749   0.36774   0.06235   0.00000  Uiso   1.00
C110   C     0.20513   0.38856   0.92308   0.00000  Uiso   1.00
C111   C     0.13706   0.43017   0.93435   0.00000  Uiso   1.00
C112   C     0.02069   0.42445   0.99513   0.00000  Uiso   1.00
C113   C     0.35627   0.34578   0.76950   0.00000  Uiso   1.00
C114   C     0.41525   0.35143   0.65165   0.00000  Uiso   1.00
C115   C     0.42611   0.30970   0.58312   0.00000  Uiso   1.00
H116   H     0.21250   0.26675   0.98522   0.00000  Uiso   1.00
H117   H     0.33350   0.26279   0.11464   0.00000  Uiso   1.00
H118   H     0.00638   0.30170   0.06851   0.00000  Uiso   1.00
H119   H     0.28453   0.22298   0.78585   0.00000  Uiso   1.00
H120   H     0.48813   0.27858   0.23711   0.00000  Uiso   1.00
H121   H     0.79837   0.36061   0.13982   0.00000  Uiso   1.00
H122   H     0.38491   0.19460   0.54377   0.00000  Uiso   1.00
H123   H     0.37051   0.42205   0.82299   0.00000  Uiso   1.00
H124   H     0.50020   0.42662   0.94351   0.00000  Uiso   1.00
H125   H     0.17307   0.46553   0.89739   0.00000  Uiso   1.00
H126   H     0.45122   0.38680   0.61473   0.00000  Uiso   1.00
H127   H     0.62342   0.41154   0.09822   0.00000  Uiso   1.00
H128   H     0.93366   0.49357   0.00093   0.00000  Uiso   1.00
H129   H     0.52021   0.32757   0.40488   0.00000  Uiso   1.00
O130   O     0.63820   0.34527   0.24991   0.00000  Uiso   1.00
O131   O     0.73327   0.45289   0.12224   0.00000  Uiso   1.00
O132   O     0.50280   0.23509   0.34025   0.00000  Uiso   1.00
N133   N     0.50219   0.30924   0.18787   0.00000  Uiso   1.00
N134   N     0.85731   0.38593   0.09692   0.00000  Uiso   1.00
N135   N     0.40565   0.23073   0.53966   0.00000  Uiso   1.00
N136   N     0.57499   0.38079   0.11313   0.00000  Uiso   1.00
N137   N     0.93011   0.45748   0.02219   0.00000  Uiso   1.00
N138   N     0.47845   0.30228   0.46493   0.00000  Uiso   1.00
C139   C     0.40479   0.70763   0.16792   0.00000  Uiso   1.00
C140   C     0.31475   0.68900   0.12248   0.00000  Uiso   1.00
C141   C     0.28029   0.71303   0.04211   0.00000  Uiso   1.00
C142   C     0.19677   0.68991   0.01174   0.00000  Uiso   1.00
C143   C     0.06419   0.66790   0.93379   0.00000  Uiso   1.00
C144   C     0.49376   0.66653   0.14325   0.00000  Uiso   1.00
C145   C     0.60981   0.67166   0.08036   0.00000  Uiso   1.00
C146   C     0.67698   0.62962   0.06750   0.00000  Uiso   1.00
C147   C     0.82233   0.57273   0.02187   0.00000  Uiso   1.00
C148   C     0.34622   0.70993   0.29901   0.00000  Uiso   1.00
C149   C     0.33824   0.75155   0.36708   0.00000  Uiso   1.00
C150   C     0.28121   0.74605   0.48536   0.00000  Uiso   1.00
C151   C     0.19748   0.75654   0.68156   0.00000  Uiso   1.00
C152   C     0.31773   0.62385   0.25693   0.00000  Uiso   1.00
C153   C     0.26746   0.64350   0.17083   0.00000  Uiso   1.00
C154   C     0.18397   0.62034   0.14059   0.00000  Uiso   1.00
C155   C     0.14939   0.64432   0.06018   0.00000  Uiso   1.00
C156   C     0.44648   0.62103   0.19160   0.00000  Uiso   1.00
C157   C     0.51349   0.57897   0.17884   0.00000  Uiso   1.00
C158   C     0.62961   0.58403   0.11593   0.00000  Uiso   1.00
C159   C     0.29893   0.66443   0.34736   0.00000  Uiso   1.00
C160   C     0.24191   0.65886   0.46555   0.00000  Uiso   1.00
C161   C     0.23384   0.70046   0.53379   0.00000  Uiso   1.00
H162   H     0.44161   0.74305   0.13028   0.00000  Uiso   1.00
H163   H     0.31691   0.74824   0.00470   0.00000  Uiso   1.00
H164   H     0.64638   0.70688   0.04296   0.00000  Uiso   1.00
H165   H     0.37484   0.78676   0.32963   0.00000  Uiso   1.00
H166   H     0.15783   0.73391   0.88677   0.00000  Uiso   1.00
H167   H     0.85254   0.64671   0.96747   0.00000  Uiso   1.00
H168   H     0.27996   0.81514   0.57198   0.00000  Uiso   1.00
H169   H     0.28092   0.58842   0.29457   0.00000  Uiso   1.00
H170   H     0.14739   0.58512   0.17801   0.00000  Uiso   1.00
H171   H     0.47687   0.54376   0.21627   0.00000  Uiso   1.00
H172   H     0.20533   0.62364   0.50294   0.00000  Uiso   1.00
H173   H     0.02025   0.60152   0.02743   0.00000  Uiso   1.00
H174   H     0.71496   0.51432   0.10814   0.00000  Uiso   1.00
H175   H     0.14237   0.68275   0.71264   0.00000  Uiso   1.00
O176   O     0.00413   0.66833   0.87743   0.00000  Uiso   1.00
O177   O     0.91557   0.55392   0.98333   0.00000  Uiso   1.00
O178   O     0.16434   0.77491   0.77642   0.00000  Uiso   1.00
N179   N     0.14376   0.70321   0.93589   0.00000  Uiso   1.00
N180   N     0.79327   0.62168   0.01133   0.00000  Uiso   1.00
N181   N     0.25798   0.77915   0.57649   0.00000  Uiso   1.00
N182   N     0.06973   0.63197   0.01158   0.00000  Uiso   1.00
N183   N     0.71924   0.55044   0.08701   0.00000  Uiso   1.00
N184   N     0.18394   0.70791   0.65218   0.00000  Uiso   1.00
