data_job_05683
_audit_creation_date              2018-12-19
_audit_creation_method            'Materials Studio'
_symmetry_space_group_name_H-M    'P1'
_symmetry_Int_Tables_number       1
_symmetry_cell_setting            triclinic
loop_
_symmetry_equiv_pos_as_xyz
  x,y,z
_cell_length_a                    25.7535
_cell_length_b                    21.6076
_cell_length_c                    12.1954
_cell_angle_alpha                 90.0000
_cell_angle_beta                  90.0000
_cell_angle_gamma                 90.0000
loop_
_atom_site_label
_atom_site_type_symbol
_atom_site_fract_x
_atom_site_fract_y
_atom_site_fract_z
_atom_site_U_iso_or_equiv
_atom_site_adp_type
_atom_site_occupancy
C1     C     0.31347   0.33957   0.98256   0.00000  Uiso   1.00
C2     C     0.30209   0.27031   0.98187   0.00000  Uiso   1.00
C3     C     0.30887   0.23023   0.06961   0.00000  Uiso   1.00
C4     C     0.29624   0.16852   0.05246   0.00000  Uiso   1.00
C5     C     0.28145   0.06414   0.06677   0.00000  Uiso   1.00
C6     C     0.35163   0.35083   0.88907   0.00000  Uiso   1.00
C7     C     0.40007   0.37845   0.89880   0.00000  Uiso   1.00
C8     C     0.42914   0.38452   0.80352   0.00000  Uiso   1.00
C9     C     0.49125   0.40518   0.67376   0.00000  Uiso   1.00
C10    C     0.26304   0.37132   0.94894   0.00000  Uiso   1.00
C11    C     0.23699   0.41618   0.00900   0.00000  Uiso   1.00
C12    C     0.19147   0.43951   0.96412   0.00000  Uiso   1.00
C13    C     0.11602   0.49199   0.92731   0.00000  Uiso   1.00
C14    C     0.27897   0.30126   0.79606   0.00000  Uiso   1.00
C15    C     0.28335   0.24951   0.88056   0.00000  Uiso   1.00
C16    C     0.27070   0.18784   0.86327   0.00000  Uiso   1.00
C17    C     0.27747   0.14767   0.95098   0.00000  Uiso   1.00
C18    C     0.33290   0.33002   0.78777   0.00000  Uiso   1.00
C19    C     0.36190   0.33606   0.69246   0.00000  Uiso   1.00
C20    C     0.41037   0.36368   0.70204   0.00000  Uiso   1.00
C21    C     0.24430   0.35051   0.84764   0.00000  Uiso   1.00
C22    C     0.19882   0.37379   0.80266   0.00000  Uiso   1.00
C23    C     0.17270   0.41867   0.86263   0.00000  Uiso   1.00
H24    H     0.32806   0.35578   0.06142   0.00000  Uiso   1.00
H25    H     0.32338   0.24635   0.14799   0.00000  Uiso   1.00
H26    H     0.41456   0.39455   0.97720   0.00000  Uiso   1.00
H27    H     0.25150   0.43227   0.08738   0.00000  Uiso   1.00
H28    H     0.30995   0.11585   0.19928   0.00000  Uiso   1.00
H29    H     0.50220   0.42836   0.83915   0.00000  Uiso   1.00
H30    H     0.15835   0.50790   0.07149   0.00000  Uiso   1.00
H31    H     0.26438   0.28506   0.71719   0.00000  Uiso   1.00
H32    H     0.25621   0.17175   0.78487   0.00000  Uiso   1.00
H33    H     0.34739   0.31995   0.61408   0.00000  Uiso   1.00
H34    H     0.18433   0.35767   0.72427   0.00000  Uiso   1.00
H35    H     0.25543   0.05530   0.90456   0.00000  Uiso   1.00
H36    H     0.44768   0.36782   0.54443   0.00000  Uiso   1.00
H37    H     0.10384   0.44735   0.77677   0.00000  Uiso   1.00
O38    O     0.27848   0.01231   0.10264   0.00000  Uiso   1.00
O39    O     0.53069   0.42232   0.63017   0.00000  Uiso   1.00
O40    O     0.07958   0.52667   0.93500   0.00000  Uiso   1.00
N41    N     0.29823   0.11715   0.12064   0.00000  Uiso   1.00
N42    N     0.47797   0.40932   0.78394   0.00000  Uiso   1.00
N43    N     0.15652   0.48370   0.00115   0.00000  Uiso   1.00
N44    N     0.26889   0.08457   0.96205   0.00000  Uiso   1.00
N45    N     0.44864   0.37674   0.62536   0.00000  Uiso   1.00
N46    N     0.12718   0.45112   0.84256   0.00000  Uiso   1.00
C47    C     0.67333   0.32477   0.02716   0.00000  Uiso   1.00
C48    C     0.68794   0.25674   0.01473   0.00000  Uiso   1.00
C49    C     0.68166   0.22139   0.92066   0.00000  Uiso   1.00
C50    C     0.69744   0.16002   0.92588   0.00000  Uiso   1.00
C51    C     0.71687   0.05818   0.89202   0.00000  Uiso   1.00
C52    C     0.63619   0.32801   0.12438   0.00000  Uiso   1.00
C53    C     0.58641   0.35258   0.12250   0.00000  Uiso   1.00
C54    C     0.55863   0.35121   0.22004   0.00000  Uiso   1.00
C55    C     0.49773   0.36006   0.35642   0.00000  Uiso   1.00
C56    C     0.72269   0.35796   0.06336   0.00000  Uiso   1.00
C57    C     0.74563   0.40773   0.01018   0.00000  Uiso   1.00
C58    C     0.79067   0.43158   0.05635   0.00000  Uiso   1.00
C59    C     0.86407   0.48694   0.09799   0.00000  Uiso   1.00
C60    C     0.71250   0.27865   0.20372   0.00000  Uiso   1.00
C61    C     0.70922   0.23169   0.11064   0.00000  Uiso   1.00
C62    C     0.72501   0.17036   0.11600   0.00000  Uiso   1.00
C63    C     0.71876   0.13492   0.02195   0.00000  Uiso   1.00
C64    C     0.65747   0.30296   0.22028   0.00000  Uiso   1.00
C65    C     0.62975   0.30155   0.31784   0.00000  Uiso   1.00
C66    C     0.57994   0.32611   0.31611   0.00000  Uiso   1.00
C67    C     0.74397   0.33291   0.15926   0.00000  Uiso   1.00
C68    C     0.78898   0.35669   0.20553   0.00000  Uiso   1.00
C69    C     0.81198   0.40648   0.15243   0.00000  Uiso   1.00
H70    H     0.65676   0.34428   0.95250   0.00000  Uiso   1.00
H71    H     0.66519   0.24079   0.84646   0.00000  Uiso   1.00
H72    H     0.56996   0.37197   0.04828   0.00000  Uiso   1.00
H73    H     0.72916   0.42710   0.93597   0.00000  Uiso   1.00
H74    H     0.68391   0.11500   0.77121   0.00000  Uiso   1.00
H75    H     0.48310   0.39162   0.19675   0.00000  Uiso   1.00
H76    H     0.81880   0.50788   0.95994   0.00000  Uiso   1.00
H77    H     0.72907   0.25914   0.27839   0.00000  Uiso   1.00
H78    H     0.74147   0.15098   0.19023   0.00000  Uiso   1.00
H79    H     0.64623   0.28216   0.39204   0.00000  Uiso   1.00
H80    H     0.80543   0.33729   0.27974   0.00000  Uiso   1.00
H81    H     0.74581   0.04211   0.05022   0.00000  Uiso   1.00
H82    H     0.54501   0.31873   0.47577   0.00000  Uiso   1.00
H83    H     0.88071   0.43499   0.23895   0.00000  Uiso   1.00
O84    O     0.72170   0.00893   0.84685   0.00000  Uiso   1.00
O85    O     0.45826   0.37185   0.40515   0.00000  Uiso   1.00
O86    O     0.89869   0.52438   0.09446   0.00000  Uiso   1.00
N87    N     0.69678   0.11269   0.84896   0.00000  Uiso   1.00
N88    N     0.50904   0.37130   0.24682   0.00000  Uiso   1.00
N89    N     0.82289   0.48001   0.02543   0.00000  Uiso   1.00
N90    N     0.73010   0.07347   0.99910   0.00000  Uiso   1.00
N91    N     0.54235   0.33208   0.39695   0.00000  Uiso   1.00
N92    N     0.85620   0.44079   0.17557   0.00000  Uiso   1.00
C93    C     0.68653   0.66043   0.48256   0.00000  Uiso   1.00
C94    C     0.69791   0.72969   0.48187   0.00000  Uiso   1.00
C95    C     0.69113   0.76977   0.56961   0.00000  Uiso   1.00
C96    C     0.70376   0.83148   0.55246   0.00000  Uiso   1.00
C97    C     0.71855   0.93586   0.56677   0.00000  Uiso   1.00
C98    C     0.64837   0.64917   0.38907   0.00000  Uiso   1.00
C99    C     0.59993   0.62155   0.39880   0.00000  Uiso   1.00
C100   C     0.57086   0.61548   0.30352   0.00000  Uiso   1.00
C101   C     0.50875   0.59482   0.17376   0.00000  Uiso   1.00
C102   C     0.73696   0.62868   0.44894   0.00000  Uiso   1.00
C103   C     0.76301   0.58382   0.50900   0.00000  Uiso   1.00
C104   C     0.80853   0.56049   0.46412   0.00000  Uiso   1.00
C105   C     0.88398   0.50801   0.42731   0.00000  Uiso   1.00
C106   C     0.72103   0.69874   0.29606   0.00000  Uiso   1.00
C107   C     0.71665   0.75049   0.38056   0.00000  Uiso   1.00
C108   C     0.72930   0.81216   0.36327   0.00000  Uiso   1.00
C109   C     0.72253   0.85233   0.45098   0.00000  Uiso   1.00
C110   C     0.66710   0.66998   0.28777   0.00000  Uiso   1.00
C111   C     0.63810   0.66394   0.19246   0.00000  Uiso   1.00
C112   C     0.58963   0.63632   0.20204   0.00000  Uiso   1.00
C113   C     0.75570   0.64949   0.34764   0.00000  Uiso   1.00
C114   C     0.80118   0.62621   0.30266   0.00000  Uiso   1.00
C115   C     0.82730   0.58133   0.36263   0.00000  Uiso   1.00
H116   H     0.67194   0.64422   0.56142   0.00000  Uiso   1.00
H117   H     0.67662   0.75365   0.64799   0.00000  Uiso   1.00
H118   H     0.58544   0.60545   0.47720   0.00000  Uiso   1.00
H119   H     0.74850   0.56773   0.58738   0.00000  Uiso   1.00
H120   H     0.69005   0.88415   0.69928   0.00000  Uiso   1.00
H121   H     0.49780   0.57164   0.33915   0.00000  Uiso   1.00
H122   H     0.84165   0.49210   0.57149   0.00000  Uiso   1.00
H123   H     0.73562   0.71494   0.21719   0.00000  Uiso   1.00
H124   H     0.74379   0.82825   0.28487   0.00000  Uiso   1.00
H125   H     0.65261   0.68005   0.11408   0.00000  Uiso   1.00
H126   H     0.81567   0.64233   0.22427   0.00000  Uiso   1.00
H127   H     0.74457   0.94470   0.40456   0.00000  Uiso   1.00
H128   H     0.55232   0.63218   0.04443   0.00000  Uiso   1.00
H129   H     0.89616   0.55265   0.27677   0.00000  Uiso   1.00
O130   O     0.72152   0.98769   0.60264   0.00000  Uiso   1.00
O131   O     0.46931   0.57768   0.13017   0.00000  Uiso   1.00
O132   O     0.92042   0.47333   0.43500   0.00000  Uiso   1.00
N133   N     0.70177   0.88285   0.62064   0.00000  Uiso   1.00
N134   N     0.52203   0.59068   0.28394   0.00000  Uiso   1.00
N135   N     0.84348   0.51630   0.50115   0.00000  Uiso   1.00
N136   N     0.73111   0.91543   0.46205   0.00000  Uiso   1.00
N137   N     0.55136   0.62326   0.12536   0.00000  Uiso   1.00
N138   N     0.87282   0.54888   0.34256   0.00000  Uiso   1.00
C139   C     0.32667   0.67523   0.52716   0.00000  Uiso   1.00
C140   C     0.31206   0.74326   0.51473   0.00000  Uiso   1.00
C141   C     0.31834   0.77861   0.42066   0.00000  Uiso   1.00
C142   C     0.30256   0.83998   0.42588   0.00000  Uiso   1.00
C143   C     0.28313   0.94182   0.39202   0.00000  Uiso   1.00
C144   C     0.36381   0.67199   0.62438   0.00000  Uiso   1.00
C145   C     0.41359   0.64742   0.62250   0.00000  Uiso   1.00
C146   C     0.44137   0.64879   0.72004   0.00000  Uiso   1.00
C147   C     0.50227   0.63994   0.85642   0.00000  Uiso   1.00
C148   C     0.27731   0.64204   0.56336   0.00000  Uiso   1.00
C149   C     0.25437   0.59227   0.51018   0.00000  Uiso   1.00
C150   C     0.20933   0.56842   0.55635   0.00000  Uiso   1.00
C151   C     0.13593   0.51306   0.59799   0.00000  Uiso   1.00
C152   C     0.28750   0.72135   0.70372   0.00000  Uiso   1.00
C153   C     0.29078   0.76831   0.61064   0.00000  Uiso   1.00
C154   C     0.27499   0.82964   0.61600   0.00000  Uiso   1.00
C155   C     0.28124   0.86508   0.52195   0.00000  Uiso   1.00
C156   C     0.34253   0.69704   0.72028   0.00000  Uiso   1.00
C157   C     0.37025   0.69845   0.81784   0.00000  Uiso   1.00
C158   C     0.42006   0.67389   0.81611   0.00000  Uiso   1.00
C159   C     0.25603   0.66709   0.65926   0.00000  Uiso   1.00
C160   C     0.21102   0.64331   0.70553   0.00000  Uiso   1.00
C161   C     0.18802   0.59352   0.65243   0.00000  Uiso   1.00
H162   H     0.34324   0.65572   0.45250   0.00000  Uiso   1.00
H163   H     0.33481   0.75921   0.34646   0.00000  Uiso   1.00
H164   H     0.43004   0.62803   0.54828   0.00000  Uiso   1.00
H165   H     0.27084   0.57290   0.43597   0.00000  Uiso   1.00
H166   H     0.31609   0.88500   0.27121   0.00000  Uiso   1.00
H167   H     0.51690   0.60838   0.69675   0.00000  Uiso   1.00
H168   H     0.18120   0.49212   0.45994   0.00000  Uiso   1.00
H169   H     0.27093   0.74086   0.77839   0.00000  Uiso   1.00
H170   H     0.25853   0.84902   0.69023   0.00000  Uiso   1.00
H171   H     0.35377   0.71784   0.89204   0.00000  Uiso   1.00
H172   H     0.19457   0.66271   0.77974   0.00000  Uiso   1.00
H173   H     0.25419   0.95789   0.55022   0.00000  Uiso   1.00
H174   H     0.45499   0.68127   0.97577   0.00000  Uiso   1.00
H175   H     0.11929   0.56501   0.73895   0.00000  Uiso   1.00
O176   O     0.27830   0.99107   0.34685   0.00000  Uiso   1.00
O177   O     0.54174   0.62815   0.90515   0.00000  Uiso   1.00
O178   O     0.10131   0.47562   0.59446   0.00000  Uiso   1.00
N179   N     0.30322   0.88731   0.34896   0.00000  Uiso   1.00
N180   N     0.49096   0.62870   0.74682   0.00000  Uiso   1.00
N181   N     0.17711   0.51999   0.52543   0.00000  Uiso   1.00
N182   N     0.26990   0.92653   0.49910   0.00000  Uiso   1.00
N183   N     0.45765   0.66792   0.89695   0.00000  Uiso   1.00
N184   N     0.14380   0.55921   0.67557   0.00000  Uiso   1.00
C185   C     0.81347   0.66043   0.98256   0.00000  Uiso   1.00
C186   C     0.80209   0.72969   0.98187   0.00000  Uiso   1.00
C187   C     0.80887   0.76977   0.06961   0.00000  Uiso   1.00
C188   C     0.79624   0.83148   0.05246   0.00000  Uiso   1.00
C189   C     0.78145   0.93586   0.06677   0.00000  Uiso   1.00
C190   C     0.85163   0.64917   0.88907   0.00000  Uiso   1.00
C191   C     0.90007   0.62155   0.89880   0.00000  Uiso   1.00
C192   C     0.92914   0.61548   0.80352   0.00000  Uiso   1.00
C193   C     0.99125   0.59482   0.67376   0.00000  Uiso   1.00
C194   C     0.76304   0.62868   0.94894   0.00000  Uiso   1.00
C195   C     0.73699   0.58382   0.00900   0.00000  Uiso   1.00
C196   C     0.69147   0.56049   0.96412   0.00000  Uiso   1.00
C197   C     0.61602   0.50801   0.92731   0.00000  Uiso   1.00
C198   C     0.77897   0.69874   0.79606   0.00000  Uiso   1.00
C199   C     0.78335   0.75049   0.88056   0.00000  Uiso   1.00
C200   C     0.77070   0.81216   0.86327   0.00000  Uiso   1.00
C201   C     0.77747   0.85233   0.95098   0.00000  Uiso   1.00
C202   C     0.83290   0.66998   0.78777   0.00000  Uiso   1.00
C203   C     0.86190   0.66394   0.69246   0.00000  Uiso   1.00
C204   C     0.91037   0.63632   0.70204   0.00000  Uiso   1.00
C205   C     0.74430   0.64949   0.84764   0.00000  Uiso   1.00
C206   C     0.69882   0.62621   0.80266   0.00000  Uiso   1.00
C207   C     0.67270   0.58133   0.86263   0.00000  Uiso   1.00
H208   H     0.82806   0.64422   0.06142   0.00000  Uiso   1.00
H209   H     0.82338   0.75365   0.14799   0.00000  Uiso   1.00
H210   H     0.91456   0.60545   0.97720   0.00000  Uiso   1.00
H211   H     0.75150   0.56773   0.08738   0.00000  Uiso   1.00
H212   H     0.80995   0.88415   0.19928   0.00000  Uiso   1.00
H213   H     0.00220   0.57164   0.83915   0.00000  Uiso   1.00
H214   H     0.65835   0.49210   0.07149   0.00000  Uiso   1.00
H215   H     0.76438   0.71494   0.71719   0.00000  Uiso   1.00
H216   H     0.75621   0.82825   0.78487   0.00000  Uiso   1.00
H217   H     0.84739   0.68005   0.61408   0.00000  Uiso   1.00
H218   H     0.68433   0.64233   0.72427   0.00000  Uiso   1.00
H219   H     0.75543   0.94470   0.90456   0.00000  Uiso   1.00
H220   H     0.94768   0.63218   0.54443   0.00000  Uiso   1.00
H221   H     0.60384   0.55265   0.77677   0.00000  Uiso   1.00
O222   O     0.77848   0.98769   0.10264   0.00000  Uiso   1.00
O223   O     0.03069   0.57768   0.63017   0.00000  Uiso   1.00
O224   O     0.57958   0.47333   0.93500   0.00000  Uiso   1.00
N225   N     0.79823   0.88285   0.12064   0.00000  Uiso   1.00
N226   N     0.97797   0.59068   0.78394   0.00000  Uiso   1.00
N227   N     0.65652   0.51630   0.00115   0.00000  Uiso   1.00
N228   N     0.76889   0.91543   0.96205   0.00000  Uiso   1.00
N229   N     0.94864   0.62326   0.62536   0.00000  Uiso   1.00
N230   N     0.62718   0.54888   0.84256   0.00000  Uiso   1.00
C231   C     0.17333   0.67523   0.02716   0.00000  Uiso   1.00
C232   C     0.18794   0.74326   0.01473   0.00000  Uiso   1.00
C233   C     0.18166   0.77861   0.92066   0.00000  Uiso   1.00
C234   C     0.19744   0.83998   0.92588   0.00000  Uiso   1.00
C235   C     0.21687   0.94182   0.89202   0.00000  Uiso   1.00
C236   C     0.13619   0.67199   0.12438   0.00000  Uiso   1.00
C237   C     0.08641   0.64742   0.12250   0.00000  Uiso   1.00
C238   C     0.05863   0.64879   0.22004   0.00000  Uiso   1.00
C239   C     0.99773   0.63994   0.35642   0.00000  Uiso   1.00
C240   C     0.22269   0.64204   0.06336   0.00000  Uiso   1.00
C241   C     0.24563   0.59227   0.01018   0.00000  Uiso   1.00
C242   C     0.29067   0.56842   0.05635   0.00000  Uiso   1.00
C243   C     0.36407   0.51306   0.09799   0.00000  Uiso   1.00
C244   C     0.21250   0.72135   0.20372   0.00000  Uiso   1.00
C245   C     0.20922   0.76831   0.11064   0.00000  Uiso   1.00
C246   C     0.22501   0.82964   0.11600   0.00000  Uiso   1.00
C247   C     0.21876   0.86508   0.02195   0.00000  Uiso   1.00
C248   C     0.15747   0.69704   0.22028   0.00000  Uiso   1.00
C249   C     0.12975   0.69845   0.31784   0.00000  Uiso   1.00
C250   C     0.07994   0.67389   0.31611   0.00000  Uiso   1.00
C251   C     0.24397   0.66709   0.15926   0.00000  Uiso   1.00
C252   C     0.28898   0.64331   0.20553   0.00000  Uiso   1.00
C253   C     0.31198   0.59352   0.15243   0.00000  Uiso   1.00
H254   H     0.15676   0.65572   0.95250   0.00000  Uiso   1.00
H255   H     0.16519   0.75921   0.84646   0.00000  Uiso   1.00
H256   H     0.06996   0.62803   0.04828   0.00000  Uiso   1.00
H257   H     0.22916   0.57290   0.93597   0.00000  Uiso   1.00
H258   H     0.18391   0.88500   0.77121   0.00000  Uiso   1.00
H259   H     0.98310   0.60838   0.19675   0.00000  Uiso   1.00
H260   H     0.31880   0.49212   0.95994   0.00000  Uiso   1.00
H261   H     0.22907   0.74086   0.27839   0.00000  Uiso   1.00
H262   H     0.24147   0.84902   0.19023   0.00000  Uiso   1.00
H263   H     0.14623   0.71784   0.39204   0.00000  Uiso   1.00
H264   H     0.30543   0.66271   0.27974   0.00000  Uiso   1.00
H265   H     0.24581   0.95789   0.05022   0.00000  Uiso   1.00
H266   H     0.04501   0.68127   0.47577   0.00000  Uiso   1.00
H267   H     0.38071   0.56501   0.23895   0.00000  Uiso   1.00
O268   O     0.22170   0.99107   0.84685   0.00000  Uiso   1.00
O269   O     0.95826   0.62815   0.40515   0.00000  Uiso   1.00
O270   O     0.39869   0.47562   0.09446   0.00000  Uiso   1.00
N271   N     0.19678   0.88731   0.84896   0.00000  Uiso   1.00
N272   N     0.00904   0.62870   0.24682   0.00000  Uiso   1.00
N273   N     0.32289   0.51999   0.02543   0.00000  Uiso   1.00
N274   N     0.23010   0.92653   0.99910   0.00000  Uiso   1.00
N275   N     0.04235   0.66792   0.39695   0.00000  Uiso   1.00
N276   N     0.35620   0.55921   0.17557   0.00000  Uiso   1.00
C277   C     0.18653   0.33957   0.48256   0.00000  Uiso   1.00
C278   C     0.19791   0.27031   0.48187   0.00000  Uiso   1.00
C279   C     0.19113   0.23023   0.56961   0.00000  Uiso   1.00
C280   C     0.20376   0.16852   0.55246   0.00000  Uiso   1.00
C281   C     0.21855   0.06414   0.56677   0.00000  Uiso   1.00
C282   C     0.14837   0.35083   0.38907   0.00000  Uiso   1.00
C283   C     0.09993   0.37845   0.39880   0.00000  Uiso   1.00
C284   C     0.07086   0.38452   0.30352   0.00000  Uiso   1.00
C285   C     0.00875   0.40518   0.17376   0.00000  Uiso   1.00
C286   C     0.23696   0.37132   0.44894   0.00000  Uiso   1.00
C287   C     0.26301   0.41618   0.50900   0.00000  Uiso   1.00
C288   C     0.30853   0.43951   0.46412   0.00000  Uiso   1.00
C289   C     0.38398   0.49199   0.42731   0.00000  Uiso   1.00
C290   C     0.22103   0.30126   0.29606   0.00000  Uiso   1.00
C291   C     0.21665   0.24951   0.38056   0.00000  Uiso   1.00
C292   C     0.22930   0.18784   0.36327   0.00000  Uiso   1.00
C293   C     0.22253   0.14767   0.45098   0.00000  Uiso   1.00
C294   C     0.16710   0.33002   0.28777   0.00000  Uiso   1.00
C295   C     0.13810   0.33606   0.19246   0.00000  Uiso   1.00
C296   C     0.08963   0.36368   0.20204   0.00000  Uiso   1.00
C297   C     0.25570   0.35051   0.34764   0.00000  Uiso   1.00
C298   C     0.30118   0.37379   0.30266   0.00000  Uiso   1.00
C299   C     0.32730   0.41867   0.36263   0.00000  Uiso   1.00
H300   H     0.17194   0.35578   0.56142   0.00000  Uiso   1.00
H301   H     0.17662   0.24635   0.64799   0.00000  Uiso   1.00
H302   H     0.08544   0.39455   0.47720   0.00000  Uiso   1.00
H303   H     0.24850   0.43227   0.58738   0.00000  Uiso   1.00
H304   H     0.19005   0.11585   0.69928   0.00000  Uiso   1.00
H305   H     0.99780   0.42836   0.33915   0.00000  Uiso   1.00
H306   H     0.34165   0.50790   0.57149   0.00000  Uiso   1.00
H307   H     0.23562   0.28506   0.21719   0.00000  Uiso   1.00
H308   H     0.24379   0.17175   0.28487   0.00000  Uiso   1.00
H309   H     0.15261   0.31995   0.11408   0.00000  Uiso   1.00
H310   H     0.31567   0.35767   0.22427   0.00000  Uiso   1.00
H311   H     0.24457   0.05530   0.40456   0.00000  Uiso   1.00
H312   H     0.05232   0.36782   0.04443   0.00000  Uiso   1.00
H313   H     0.39616   0.44735   0.27677   0.00000  Uiso   1.00
O314   O     0.22152   0.01231   0.60264   0.00000  Uiso   1.00
O315   O     0.96931   0.42232   0.13017   0.00000  Uiso   1.00
O316   O     0.42042   0.52667   0.43500   0.00000  Uiso   1.00
N317   N     0.20177   0.11715   0.62064   0.00000  Uiso   1.00
N318   N     0.02203   0.40932   0.28394   0.00000  Uiso   1.00
N319   N     0.34348   0.48370   0.50115   0.00000  Uiso   1.00
N320   N     0.23111   0.08457   0.46205   0.00000  Uiso   1.00
N321   N     0.05136   0.37674   0.12536   0.00000  Uiso   1.00
N322   N     0.37282   0.45112   0.34256   0.00000  Uiso   1.00
C323   C     0.82667   0.32477   0.52716   0.00000  Uiso   1.00
C324   C     0.81206   0.25674   0.51473   0.00000  Uiso   1.00
C325   C     0.81834   0.22139   0.42066   0.00000  Uiso   1.00
C326   C     0.80256   0.16002   0.42588   0.00000  Uiso   1.00
C327   C     0.78313   0.05818   0.39202   0.00000  Uiso   1.00
C328   C     0.86381   0.32801   0.62438   0.00000  Uiso   1.00
C329   C     0.91359   0.35258   0.62250   0.00000  Uiso   1.00
C330   C     0.94137   0.35121   0.72004   0.00000  Uiso   1.00
C331   C     0.00227   0.36006   0.85642   0.00000  Uiso   1.00
C332   C     0.77731   0.35796   0.56336   0.00000  Uiso   1.00
C333   C     0.75437   0.40773   0.51018   0.00000  Uiso   1.00
C334   C     0.70933   0.43158   0.55635   0.00000  Uiso   1.00
C335   C     0.63593   0.48694   0.59799   0.00000  Uiso   1.00
C336   C     0.78750   0.27865   0.70372   0.00000  Uiso   1.00
C337   C     0.79078   0.23169   0.61064   0.00000  Uiso   1.00
C338   C     0.77499   0.17036   0.61600   0.00000  Uiso   1.00
C339   C     0.78124   0.13492   0.52195   0.00000  Uiso   1.00
C340   C     0.84253   0.30296   0.72028   0.00000  Uiso   1.00
C341   C     0.87025   0.30155   0.81784   0.00000  Uiso   1.00
C342   C     0.92006   0.32611   0.81611   0.00000  Uiso   1.00
C343   C     0.75603   0.33291   0.65926   0.00000  Uiso   1.00
C344   C     0.71102   0.35669   0.70553   0.00000  Uiso   1.00
C345   C     0.68802   0.40648   0.65243   0.00000  Uiso   1.00
H346   H     0.84324   0.34428   0.45250   0.00000  Uiso   1.00
H347   H     0.83481   0.24079   0.34646   0.00000  Uiso   1.00
H348   H     0.93004   0.37197   0.54828   0.00000  Uiso   1.00
H349   H     0.77084   0.42710   0.43597   0.00000  Uiso   1.00
H350   H     0.81609   0.11500   0.27121   0.00000  Uiso   1.00
H351   H     0.01690   0.39162   0.69675   0.00000  Uiso   1.00
H352   H     0.68120   0.50788   0.45994   0.00000  Uiso   1.00
H353   H     0.77093   0.25914   0.77839   0.00000  Uiso   1.00
H354   H     0.75853   0.15098   0.69023   0.00000  Uiso   1.00
H355   H     0.85377   0.28216   0.89204   0.00000  Uiso   1.00
H356   H     0.69457   0.33729   0.77974   0.00000  Uiso   1.00
H357   H     0.75419   0.04211   0.55022   0.00000  Uiso   1.00
H358   H     0.95499   0.31873   0.97577   0.00000  Uiso   1.00
H359   H     0.61929   0.43499   0.73895   0.00000  Uiso   1.00
O360   O     0.77830   0.00893   0.34685   0.00000  Uiso   1.00
O361   O     0.04174   0.37185   0.90515   0.00000  Uiso   1.00
O362   O     0.60131   0.52438   0.59446   0.00000  Uiso   1.00
N363   N     0.80322   0.11269   0.34896   0.00000  Uiso   1.00
N364   N     0.99096   0.37130   0.74682   0.00000  Uiso   1.00
N365   N     0.67711   0.48001   0.52543   0.00000  Uiso   1.00
N366   N     0.76990   0.07347   0.49910   0.00000  Uiso   1.00
N367   N     0.95765   0.33208   0.89695   0.00000  Uiso   1.00
N368   N     0.64380   0.44079   0.67557   0.00000  Uiso   1.00
