data_job_00887
_audit_creation_date              2018-12-19
_audit_creation_method            'Materials Studio'
_symmetry_space_group_name_H-M    'P1'
_symmetry_Int_Tables_number       1
_symmetry_cell_setting            triclinic
loop_
_symmetry_equiv_pos_as_xyz
  x,y,z
_cell_length_a                    28.8955
_cell_length_b                    11.4105
_cell_length_c                    22.8677
_cell_angle_alpha                 90.0000
_cell_angle_beta                  135.1440
_cell_angle_gamma                 90.0000
loop_
_atom_site_label
_atom_site_type_symbol
_atom_site_fract_x
_atom_site_fract_y
_atom_site_fract_z
_atom_site_U_iso_or_equiv
_atom_site_adp_type
_atom_site_occupancy
C1     C     0.39611   0.65559   0.29711   0.00000  Uiso   1.00
C2     C     0.35936   0.69461   0.31892   0.00000  Uiso   1.00
C3     C     0.31546   0.62690   0.31140   0.00000  Uiso   1.00
C4     C     0.28695   0.67861   0.33459   0.00000  Uiso   1.00
C5     C     0.22759   0.72169   0.36390   0.00000  Uiso   1.00
C6     C     0.37896   0.74451   0.23438   0.00000  Uiso   1.00
C7     C     0.35156   0.71874   0.15578   0.00000  Uiso   1.00
C8     C     0.33956   0.81246   0.10781   0.00000  Uiso   1.00
C9     C     0.31069   0.93299   0.00589   0.00000  Uiso   1.00
C10    C     0.46878   0.67309   0.37542   0.00000  Uiso   1.00
C11    C     0.51692   0.58728   0.41541   0.00000  Uiso   1.00
C12    C     0.58055   0.62087   0.48618   0.00000  Uiso   1.00
C13    C     0.69114   0.63051   0.60326   0.00000  Uiso   1.00
C14    C     0.42352   0.86783   0.35167   0.00000  Uiso   1.00
C15    C     0.37425   0.80990   0.34855   0.00000  Uiso   1.00
C16    C     0.34579   0.86172   0.37176   0.00000  Uiso   1.00
C17    C     0.30187   0.79409   0.36428   0.00000  Uiso   1.00
C18    C     0.39385   0.85979   0.26401   0.00000  Uiso   1.00
C19    C     0.38189   0.95356   0.21614   0.00000  Uiso   1.00
C20    C     0.35448   0.92794   0.13749   0.00000  Uiso   1.00
C21    C     0.48368   0.78837   0.40506   0.00000  Uiso   1.00
C22    C     0.54725   0.82210   0.47577   0.00000  Uiso   1.00
C23    C     0.59546   0.73636   0.51587   0.00000  Uiso   1.00
H24    H     0.38451   0.56584   0.27404   0.00000  Uiso   1.00
H25    H     0.30395   0.53770   0.28845   0.00000  Uiso   1.00
H26    H     0.34005   0.62953   0.13287   0.00000  Uiso   1.00
H27    H     0.50537   0.49808   0.39246   0.00000  Uiso   1.00
H28    H     0.22117   0.55735   0.31748   0.00000  Uiso   1.00
H29    H     0.29731   0.75096   0.98943   0.00000  Uiso   1.00
H30    H     0.64594   0.47379   0.53682   0.00000  Uiso   1.00
H31    H     0.43512   0.95758   0.37474   0.00000  Uiso   1.00
H32    H     0.35733   0.95093   0.39469   0.00000  Uiso   1.00
H33    H     0.39343   0.04275   0.23910   0.00000  Uiso   1.00
H34    H     0.55875   0.91131   0.49869   0.00000  Uiso   1.00
H35    H     0.26450   0.89274   0.40370   0.00000  Uiso   1.00
H36    H     0.34064   0.08636   0.07565   0.00000  Uiso   1.00
H37    H     0.68926   0.80919   0.62304   0.00000  Uiso   1.00
O38    O     0.19073   0.71361   0.37187   0.00000  Uiso   1.00
O39    O     0.29064   0.96763   0.94148   0.00000  Uiso   1.00
O40    O     0.74802   0.60398   0.65965   0.00000  Uiso   1.00
N41    N     0.24206   0.63719   0.33505   0.00000  Uiso   1.00
N42    N     0.31323   0.81821   0.02833   0.00000  Uiso   1.00
N43    N     0.63917   0.55908   0.54009   0.00000  Uiso   1.00
N44    N     0.26537   0.81766   0.38145   0.00000  Uiso   1.00
N45    N     0.33654   0.99868   0.07473   0.00000  Uiso   1.00
N46    N     0.66248   0.73955   0.58649   0.00000  Uiso   1.00
C47    C     0.89611   0.15559   0.29711   0.00000  Uiso   1.00
C48    C     0.85936   0.19461   0.31892   0.00000  Uiso   1.00
C49    C     0.81546   0.12690   0.31140   0.00000  Uiso   1.00
C50    C     0.78695   0.17861   0.33459   0.00000  Uiso   1.00
C51    C     0.72759   0.22169   0.36390   0.00000  Uiso   1.00
C52    C     0.87896   0.24451   0.23438   0.00000  Uiso   1.00
C53    C     0.85156   0.21874   0.15578   0.00000  Uiso   1.00
C54    C     0.83956   0.31246   0.10781   0.00000  Uiso   1.00
C55    C     0.81069   0.43299   0.00589   0.00000  Uiso   1.00
C56    C     0.96878   0.17309   0.37542   0.00000  Uiso   1.00
C57    C     0.01692   0.08728   0.41541   0.00000  Uiso   1.00
C58    C     0.08055   0.12087   0.48618   0.00000  Uiso   1.00
C59    C     0.19114   0.13051   0.60326   0.00000  Uiso   1.00
C60    C     0.92352   0.36783   0.35167   0.00000  Uiso   1.00
C61    C     0.87425   0.30990   0.34855   0.00000  Uiso   1.00
C62    C     0.84579   0.36172   0.37176   0.00000  Uiso   1.00
C63    C     0.80187   0.29409   0.36428   0.00000  Uiso   1.00
C64    C     0.89385   0.35979   0.26401   0.00000  Uiso   1.00
C65    C     0.88189   0.45356   0.21614   0.00000  Uiso   1.00
C66    C     0.85448   0.42794   0.13749   0.00000  Uiso   1.00
C67    C     0.98368   0.28837   0.40506   0.00000  Uiso   1.00
C68    C     0.04725   0.32210   0.47577   0.00000  Uiso   1.00
C69    C     0.09546   0.23636   0.51587   0.00000  Uiso   1.00
H70    H     0.88451   0.06584   0.27404   0.00000  Uiso   1.00
H71    H     0.80395   0.03770   0.28845   0.00000  Uiso   1.00
H72    H     0.84005   0.12953   0.13287   0.00000  Uiso   1.00
H73    H     0.00537   0.99808   0.39246   0.00000  Uiso   1.00
H74    H     0.72117   0.05735   0.31748   0.00000  Uiso   1.00
H75    H     0.79731   0.25096   0.98943   0.00000  Uiso   1.00
H76    H     0.14594   0.97379   0.53682   0.00000  Uiso   1.00
H77    H     0.93512   0.45758   0.37474   0.00000  Uiso   1.00
H78    H     0.85733   0.45093   0.39469   0.00000  Uiso   1.00
H79    H     0.89343   0.54275   0.23910   0.00000  Uiso   1.00
H80    H     0.05875   0.41131   0.49869   0.00000  Uiso   1.00
H81    H     0.76450   0.39274   0.40370   0.00000  Uiso   1.00
H82    H     0.84064   0.58636   0.07565   0.00000  Uiso   1.00
H83    H     0.18926   0.30919   0.62304   0.00000  Uiso   1.00
O84    O     0.69073   0.21361   0.37187   0.00000  Uiso   1.00
O85    O     0.79064   0.46763   0.94148   0.00000  Uiso   1.00
O86    O     0.24802   0.10398   0.65965   0.00000  Uiso   1.00
N87    N     0.74206   0.13719   0.33505   0.00000  Uiso   1.00
N88    N     0.81323   0.31821   0.02833   0.00000  Uiso   1.00
N89    N     0.13917   0.05908   0.54009   0.00000  Uiso   1.00
N90    N     0.76537   0.31766   0.38145   0.00000  Uiso   1.00
N91    N     0.83654   0.49868   0.07473   0.00000  Uiso   1.00
N92    N     0.16248   0.23955   0.58649   0.00000  Uiso   1.00
C93    C     0.60389   0.65559   0.20289   0.00000  Uiso   1.00
C94    C     0.64064   0.69461   0.18108   0.00000  Uiso   1.00
C95    C     0.68454   0.62690   0.18860   0.00000  Uiso   1.00
C96    C     0.71305   0.67861   0.16541   0.00000  Uiso   1.00
C97    C     0.77241   0.72169   0.13610   0.00000  Uiso   1.00
C98    C     0.62104   0.74451   0.26562   0.00000  Uiso   1.00
C99    C     0.64844   0.71874   0.34422   0.00000  Uiso   1.00
C100   C     0.66044   0.81246   0.39219   0.00000  Uiso   1.00
C101   C     0.68931   0.93299   0.49411   0.00000  Uiso   1.00
C102   C     0.53122   0.67309   0.12458   0.00000  Uiso   1.00
C103   C     0.48308   0.58728   0.08459   0.00000  Uiso   1.00
C104   C     0.41945   0.62087   0.01382   0.00000  Uiso   1.00
C105   C     0.30886   0.63051   0.89674   0.00000  Uiso   1.00
C106   C     0.57648   0.86783   0.14833   0.00000  Uiso   1.00
C107   C     0.62575   0.80990   0.15145   0.00000  Uiso   1.00
C108   C     0.65421   0.86172   0.12824   0.00000  Uiso   1.00
C109   C     0.69813   0.79409   0.13572   0.00000  Uiso   1.00
C110   C     0.60615   0.85979   0.23599   0.00000  Uiso   1.00
C111   C     0.61811   0.95356   0.28386   0.00000  Uiso   1.00
C112   C     0.64552   0.92794   0.36251   0.00000  Uiso   1.00
C113   C     0.51632   0.78837   0.09494   0.00000  Uiso   1.00
C114   C     0.45275   0.82210   0.02423   0.00000  Uiso   1.00
C115   C     0.40454   0.73636   0.98413   0.00000  Uiso   1.00
H116   H     0.61549   0.56584   0.22596   0.00000  Uiso   1.00
H117   H     0.69605   0.53770   0.21155   0.00000  Uiso   1.00
H118   H     0.65995   0.62953   0.36713   0.00000  Uiso   1.00
H119   H     0.49463   0.49808   0.10754   0.00000  Uiso   1.00
H120   H     0.77883   0.55735   0.18252   0.00000  Uiso   1.00
H121   H     0.70269   0.75096   0.51057   0.00000  Uiso   1.00
H122   H     0.35406   0.47379   0.96318   0.00000  Uiso   1.00
H123   H     0.56488   0.95758   0.12526   0.00000  Uiso   1.00
H124   H     0.64267   0.95093   0.10531   0.00000  Uiso   1.00
H125   H     0.60657   0.04275   0.26090   0.00000  Uiso   1.00
H126   H     0.44125   0.91131   0.00131   0.00000  Uiso   1.00
H127   H     0.73550   0.89274   0.09630   0.00000  Uiso   1.00
H128   H     0.65936   0.08636   0.42435   0.00000  Uiso   1.00
H129   H     0.31074   0.80919   0.87696   0.00000  Uiso   1.00
O130   O     0.80927   0.71361   0.12813   0.00000  Uiso   1.00
O131   O     0.70936   0.96763   0.55852   0.00000  Uiso   1.00
O132   O     0.25198   0.60398   0.84035   0.00000  Uiso   1.00
N133   N     0.75794   0.63719   0.16495   0.00000  Uiso   1.00
N134   N     0.68677   0.81821   0.47167   0.00000  Uiso   1.00
N135   N     0.36083   0.55908   0.95991   0.00000  Uiso   1.00
N136   N     0.73463   0.81766   0.11855   0.00000  Uiso   1.00
N137   N     0.66346   0.99868   0.42527   0.00000  Uiso   1.00
N138   N     0.33752   0.73955   0.91351   0.00000  Uiso   1.00
C139   C     0.10389   0.15559   0.20289   0.00000  Uiso   1.00
C140   C     0.14064   0.19461   0.18108   0.00000  Uiso   1.00
C141   C     0.18454   0.12690   0.18860   0.00000  Uiso   1.00
C142   C     0.21305   0.17861   0.16541   0.00000  Uiso   1.00
C143   C     0.27241   0.22169   0.13610   0.00000  Uiso   1.00
C144   C     0.12104   0.24451   0.26562   0.00000  Uiso   1.00
C145   C     0.14844   0.21874   0.34422   0.00000  Uiso   1.00
C146   C     0.16044   0.31246   0.39219   0.00000  Uiso   1.00
C147   C     0.18931   0.43299   0.49411   0.00000  Uiso   1.00
C148   C     0.03122   0.17309   0.12458   0.00000  Uiso   1.00
C149   C     0.98308   0.08728   0.08459   0.00000  Uiso   1.00
C150   C     0.91945   0.12087   0.01382   0.00000  Uiso   1.00
C151   C     0.80886   0.13051   0.89674   0.00000  Uiso   1.00
C152   C     0.07648   0.36783   0.14833   0.00000  Uiso   1.00
C153   C     0.12575   0.30990   0.15145   0.00000  Uiso   1.00
C154   C     0.15421   0.36172   0.12824   0.00000  Uiso   1.00
C155   C     0.19813   0.29409   0.13572   0.00000  Uiso   1.00
C156   C     0.10615   0.35979   0.23599   0.00000  Uiso   1.00
C157   C     0.11811   0.45356   0.28386   0.00000  Uiso   1.00
C158   C     0.14552   0.42794   0.36251   0.00000  Uiso   1.00
C159   C     0.01632   0.28837   0.09494   0.00000  Uiso   1.00
C160   C     0.95275   0.32210   0.02423   0.00000  Uiso   1.00
C161   C     0.90454   0.23636   0.98413   0.00000  Uiso   1.00
H162   H     0.11549   0.06584   0.22596   0.00000  Uiso   1.00
H163   H     0.19605   0.03770   0.21155   0.00000  Uiso   1.00
H164   H     0.15995   0.12953   0.36713   0.00000  Uiso   1.00
H165   H     0.99463   0.99808   0.10754   0.00000  Uiso   1.00
H166   H     0.27883   0.05735   0.18252   0.00000  Uiso   1.00
H167   H     0.20269   0.25096   0.51057   0.00000  Uiso   1.00
H168   H     0.85406   0.97379   0.96318   0.00000  Uiso   1.00
H169   H     0.06488   0.45758   0.12526   0.00000  Uiso   1.00
H170   H     0.14267   0.45093   0.10531   0.00000  Uiso   1.00
H171   H     0.10657   0.54275   0.26090   0.00000  Uiso   1.00
H172   H     0.94125   0.41131   0.00131   0.00000  Uiso   1.00
H173   H     0.23550   0.39274   0.09630   0.00000  Uiso   1.00
H174   H     0.15936   0.58636   0.42435   0.00000  Uiso   1.00
H175   H     0.81074   0.30919   0.87696   0.00000  Uiso   1.00
O176   O     0.30927   0.21361   0.12813   0.00000  Uiso   1.00
O177   O     0.20936   0.46763   0.55852   0.00000  Uiso   1.00
O178   O     0.75198   0.10398   0.84035   0.00000  Uiso   1.00
N179   N     0.25794   0.13719   0.16495   0.00000  Uiso   1.00
N180   N     0.18677   0.31821   0.47167   0.00000  Uiso   1.00
N181   N     0.86083   0.05908   0.95991   0.00000  Uiso   1.00
N182   N     0.23463   0.31766   0.11855   0.00000  Uiso   1.00
N183   N     0.16346   0.49868   0.42527   0.00000  Uiso   1.00
N184   N     0.83752   0.23955   0.91351   0.00000  Uiso   1.00
C185   C     0.60389   0.34441   0.70289   0.00000  Uiso   1.00
C186   C     0.64064   0.30539   0.68108   0.00000  Uiso   1.00
C187   C     0.68454   0.37310   0.68860   0.00000  Uiso   1.00
C188   C     0.71305   0.32139   0.66541   0.00000  Uiso   1.00
C189   C     0.77241   0.27831   0.63610   0.00000  Uiso   1.00
C190   C     0.62104   0.25549   0.76562   0.00000  Uiso   1.00
C191   C     0.64844   0.28126   0.84422   0.00000  Uiso   1.00
C192   C     0.66044   0.18754   0.89219   0.00000  Uiso   1.00
C193   C     0.68931   0.06701   0.99411   0.00000  Uiso   1.00
C194   C     0.53122   0.32691   0.62458   0.00000  Uiso   1.00
C195   C     0.48308   0.41272   0.58459   0.00000  Uiso   1.00
C196   C     0.41945   0.37913   0.51382   0.00000  Uiso   1.00
C197   C     0.30886   0.36949   0.39674   0.00000  Uiso   1.00
C198   C     0.57648   0.13217   0.64833   0.00000  Uiso   1.00
C199   C     0.62575   0.19010   0.65145   0.00000  Uiso   1.00
C200   C     0.65421   0.13828   0.62824   0.00000  Uiso   1.00
C201   C     0.69813   0.20591   0.63572   0.00000  Uiso   1.00
C202   C     0.60615   0.14021   0.73599   0.00000  Uiso   1.00
C203   C     0.61811   0.04644   0.78386   0.00000  Uiso   1.00
C204   C     0.64552   0.07206   0.86251   0.00000  Uiso   1.00
C205   C     0.51632   0.21163   0.59494   0.00000  Uiso   1.00
C206   C     0.45275   0.17790   0.52423   0.00000  Uiso   1.00
C207   C     0.40454   0.26364   0.48413   0.00000  Uiso   1.00
H208   H     0.61549   0.43416   0.72596   0.00000  Uiso   1.00
H209   H     0.69605   0.46230   0.71155   0.00000  Uiso   1.00
H210   H     0.65995   0.37047   0.86713   0.00000  Uiso   1.00
H211   H     0.49463   0.50192   0.60754   0.00000  Uiso   1.00
H212   H     0.77883   0.44265   0.68252   0.00000  Uiso   1.00
H213   H     0.70269   0.24904   0.01057   0.00000  Uiso   1.00
H214   H     0.35406   0.52621   0.46318   0.00000  Uiso   1.00
H215   H     0.56488   0.04242   0.62526   0.00000  Uiso   1.00
H216   H     0.64267   0.04907   0.60531   0.00000  Uiso   1.00
H217   H     0.60657   0.95725   0.76090   0.00000  Uiso   1.00
H218   H     0.44125   0.08869   0.50131   0.00000  Uiso   1.00
H219   H     0.73550   0.10726   0.59630   0.00000  Uiso   1.00
H220   H     0.65936   0.91364   0.92435   0.00000  Uiso   1.00
H221   H     0.31074   0.19081   0.37696   0.00000  Uiso   1.00
O222   O     0.80927   0.28639   0.62813   0.00000  Uiso   1.00
O223   O     0.70936   0.03237   0.05852   0.00000  Uiso   1.00
O224   O     0.25198   0.39602   0.34035   0.00000  Uiso   1.00
N225   N     0.75794   0.36281   0.66495   0.00000  Uiso   1.00
N226   N     0.68677   0.18179   0.97167   0.00000  Uiso   1.00
N227   N     0.36083   0.44092   0.45991   0.00000  Uiso   1.00
N228   N     0.73463   0.18234   0.61855   0.00000  Uiso   1.00
N229   N     0.66346   0.00132   0.92527   0.00000  Uiso   1.00
N230   N     0.33752   0.26045   0.41351   0.00000  Uiso   1.00
C231   C     0.10389   0.84441   0.70289   0.00000  Uiso   1.00
C232   C     0.14064   0.80539   0.68108   0.00000  Uiso   1.00
C233   C     0.18454   0.87310   0.68860   0.00000  Uiso   1.00
C234   C     0.21305   0.82139   0.66541   0.00000  Uiso   1.00
C235   C     0.27241   0.77831   0.63610   0.00000  Uiso   1.00
C236   C     0.12104   0.75549   0.76562   0.00000  Uiso   1.00
C237   C     0.14844   0.78126   0.84422   0.00000  Uiso   1.00
C238   C     0.16044   0.68754   0.89219   0.00000  Uiso   1.00
C239   C     0.18931   0.56701   0.99411   0.00000  Uiso   1.00
C240   C     0.03122   0.82691   0.62458   0.00000  Uiso   1.00
C241   C     0.98308   0.91272   0.58459   0.00000  Uiso   1.00
C242   C     0.91945   0.87913   0.51382   0.00000  Uiso   1.00
C243   C     0.80886   0.86949   0.39674   0.00000  Uiso   1.00
C244   C     0.07648   0.63217   0.64833   0.00000  Uiso   1.00
C245   C     0.12575   0.69010   0.65145   0.00000  Uiso   1.00
C246   C     0.15421   0.63828   0.62824   0.00000  Uiso   1.00
C247   C     0.19813   0.70591   0.63572   0.00000  Uiso   1.00
C248   C     0.10615   0.64021   0.73599   0.00000  Uiso   1.00
C249   C     0.11811   0.54644   0.78386   0.00000  Uiso   1.00
C250   C     0.14552   0.57206   0.86251   0.00000  Uiso   1.00
C251   C     0.01632   0.71163   0.59494   0.00000  Uiso   1.00
C252   C     0.95275   0.67790   0.52423   0.00000  Uiso   1.00
C253   C     0.90454   0.76364   0.48413   0.00000  Uiso   1.00
H254   H     0.11549   0.93416   0.72596   0.00000  Uiso   1.00
H255   H     0.19605   0.96230   0.71155   0.00000  Uiso   1.00
H256   H     0.15995   0.87047   0.86713   0.00000  Uiso   1.00
H257   H     0.99463   0.00192   0.60754   0.00000  Uiso   1.00
H258   H     0.27883   0.94265   0.68252   0.00000  Uiso   1.00
H259   H     0.20269   0.74904   0.01057   0.00000  Uiso   1.00
H260   H     0.85406   0.02621   0.46318   0.00000  Uiso   1.00
H261   H     0.06488   0.54242   0.62526   0.00000  Uiso   1.00
H262   H     0.14267   0.54907   0.60531   0.00000  Uiso   1.00
H263   H     0.10657   0.45725   0.76090   0.00000  Uiso   1.00
H264   H     0.94125   0.58869   0.50131   0.00000  Uiso   1.00
H265   H     0.23550   0.60726   0.59630   0.00000  Uiso   1.00
H266   H     0.15936   0.41364   0.92435   0.00000  Uiso   1.00
H267   H     0.81074   0.69081   0.37696   0.00000  Uiso   1.00
O268   O     0.30927   0.78639   0.62813   0.00000  Uiso   1.00
O269   O     0.20936   0.53237   0.05852   0.00000  Uiso   1.00
O270   O     0.75198   0.89602   0.34035   0.00000  Uiso   1.00
N271   N     0.25794   0.86281   0.66495   0.00000  Uiso   1.00
N272   N     0.18677   0.68179   0.97167   0.00000  Uiso   1.00
N273   N     0.86083   0.94092   0.45991   0.00000  Uiso   1.00
N274   N     0.23463   0.68234   0.61855   0.00000  Uiso   1.00
N275   N     0.16346   0.50132   0.92527   0.00000  Uiso   1.00
N276   N     0.83752   0.76045   0.41351   0.00000  Uiso   1.00
C277   C     0.39611   0.34441   0.79711   0.00000  Uiso   1.00
C278   C     0.35936   0.30539   0.81892   0.00000  Uiso   1.00
C279   C     0.31546   0.37310   0.81140   0.00000  Uiso   1.00
C280   C     0.28695   0.32139   0.83459   0.00000  Uiso   1.00
C281   C     0.22759   0.27831   0.86390   0.00000  Uiso   1.00
C282   C     0.37896   0.25549   0.73438   0.00000  Uiso   1.00
C283   C     0.35156   0.28126   0.65578   0.00000  Uiso   1.00
C284   C     0.33956   0.18754   0.60781   0.00000  Uiso   1.00
C285   C     0.31069   0.06701   0.50589   0.00000  Uiso   1.00
C286   C     0.46878   0.32691   0.87542   0.00000  Uiso   1.00
C287   C     0.51692   0.41272   0.91541   0.00000  Uiso   1.00
C288   C     0.58055   0.37913   0.98618   0.00000  Uiso   1.00
C289   C     0.69114   0.36949   0.10326   0.00000  Uiso   1.00
C290   C     0.42352   0.13217   0.85167   0.00000  Uiso   1.00
C291   C     0.37425   0.19010   0.84855   0.00000  Uiso   1.00
C292   C     0.34579   0.13828   0.87176   0.00000  Uiso   1.00
C293   C     0.30187   0.20591   0.86428   0.00000  Uiso   1.00
C294   C     0.39385   0.14021   0.76401   0.00000  Uiso   1.00
C295   C     0.38189   0.04644   0.71614   0.00000  Uiso   1.00
C296   C     0.35448   0.07206   0.63749   0.00000  Uiso   1.00
C297   C     0.48368   0.21163   0.90506   0.00000  Uiso   1.00
C298   C     0.54725   0.17790   0.97577   0.00000  Uiso   1.00
C299   C     0.59546   0.26364   0.01587   0.00000  Uiso   1.00
H300   H     0.38451   0.43416   0.77404   0.00000  Uiso   1.00
H301   H     0.30395   0.46230   0.78845   0.00000  Uiso   1.00
H302   H     0.34005   0.37047   0.63287   0.00000  Uiso   1.00
H303   H     0.50537   0.50192   0.89246   0.00000  Uiso   1.00
H304   H     0.22117   0.44265   0.81748   0.00000  Uiso   1.00
H305   H     0.29731   0.24904   0.48943   0.00000  Uiso   1.00
H306   H     0.64594   0.52621   0.03682   0.00000  Uiso   1.00
H307   H     0.43512   0.04242   0.87474   0.00000  Uiso   1.00
H308   H     0.35733   0.04907   0.89469   0.00000  Uiso   1.00
H309   H     0.39343   0.95725   0.73910   0.00000  Uiso   1.00
H310   H     0.55875   0.08869   0.99869   0.00000  Uiso   1.00
H311   H     0.26450   0.10726   0.90370   0.00000  Uiso   1.00
H312   H     0.34064   0.91364   0.57565   0.00000  Uiso   1.00
H313   H     0.68926   0.19081   0.12304   0.00000  Uiso   1.00
O314   O     0.19073   0.28639   0.87187   0.00000  Uiso   1.00
O315   O     0.29064   0.03237   0.44148   0.00000  Uiso   1.00
O316   O     0.74802   0.39602   0.15965   0.00000  Uiso   1.00
N317   N     0.24206   0.36281   0.83505   0.00000  Uiso   1.00
N318   N     0.31323   0.18179   0.52833   0.00000  Uiso   1.00
N319   N     0.63917   0.44092   0.04009   0.00000  Uiso   1.00
N320   N     0.26537   0.18234   0.88145   0.00000  Uiso   1.00
N321   N     0.33654   0.00132   0.57473   0.00000  Uiso   1.00
N322   N     0.66248   0.26045   0.08649   0.00000  Uiso   1.00
C323   C     0.89611   0.84441   0.79711   0.00000  Uiso   1.00
C324   C     0.85936   0.80539   0.81892   0.00000  Uiso   1.00
C325   C     0.81546   0.87310   0.81140   0.00000  Uiso   1.00
C326   C     0.78695   0.82139   0.83459   0.00000  Uiso   1.00
C327   C     0.72759   0.77831   0.86390   0.00000  Uiso   1.00
C328   C     0.87896   0.75549   0.73438   0.00000  Uiso   1.00
C329   C     0.85156   0.78126   0.65578   0.00000  Uiso   1.00
C330   C     0.83956   0.68754   0.60781   0.00000  Uiso   1.00
C331   C     0.81069   0.56701   0.50589   0.00000  Uiso   1.00
C332   C     0.96878   0.82691   0.87542   0.00000  Uiso   1.00
C333   C     0.01692   0.91272   0.91541   0.00000  Uiso   1.00
C334   C     0.08055   0.87913   0.98618   0.00000  Uiso   1.00
C335   C     0.19114   0.86949   0.10326   0.00000  Uiso   1.00
C336   C     0.92352   0.63217   0.85167   0.00000  Uiso   1.00
C337   C     0.87425   0.69010   0.84855   0.00000  Uiso   1.00
C338   C     0.84579   0.63828   0.87176   0.00000  Uiso   1.00
C339   C     0.80187   0.70591   0.86428   0.00000  Uiso   1.00
C340   C     0.89385   0.64021   0.76401   0.00000  Uiso   1.00
C341   C     0.88189   0.54644   0.71614   0.00000  Uiso   1.00
C342   C     0.85448   0.57206   0.63749   0.00000  Uiso   1.00
C343   C     0.98368   0.71163   0.90506   0.00000  Uiso   1.00
C344   C     0.04725   0.67790   0.97577   0.00000  Uiso   1.00
C345   C     0.09546   0.76364   0.01587   0.00000  Uiso   1.00
H346   H     0.88451   0.93416   0.77404   0.00000  Uiso   1.00
H347   H     0.80395   0.96230   0.78845   0.00000  Uiso   1.00
H348   H     0.84005   0.87047   0.63287   0.00000  Uiso   1.00
H349   H     0.00537   0.00192   0.89246   0.00000  Uiso   1.00
H350   H     0.72117   0.94265   0.81748   0.00000  Uiso   1.00
H351   H     0.79731   0.74904   0.48943   0.00000  Uiso   1.00
H352   H     0.14594   0.02621   0.03682   0.00000  Uiso   1.00
H353   H     0.93512   0.54242   0.87474   0.00000  Uiso   1.00
H354   H     0.85733   0.54907   0.89469   0.00000  Uiso   1.00
H355   H     0.89343   0.45725   0.73910   0.00000  Uiso   1.00
H356   H     0.05875   0.58869   0.99869   0.00000  Uiso   1.00
H357   H     0.76450   0.60726   0.90370   0.00000  Uiso   1.00
H358   H     0.84064   0.41364   0.57565   0.00000  Uiso   1.00
H359   H     0.18926   0.69081   0.12304   0.00000  Uiso   1.00
O360   O     0.69073   0.78639   0.87187   0.00000  Uiso   1.00
O361   O     0.79064   0.53237   0.44148   0.00000  Uiso   1.00
O362   O     0.24802   0.89602   0.15965   0.00000  Uiso   1.00
N363   N     0.74206   0.86281   0.83505   0.00000  Uiso   1.00
N364   N     0.81323   0.68179   0.52833   0.00000  Uiso   1.00
N365   N     0.13917   0.94092   0.04009   0.00000  Uiso   1.00
N366   N     0.76537   0.68234   0.88145   0.00000  Uiso   1.00
N367   N     0.83654   0.50132   0.57473   0.00000  Uiso   1.00
N368   N     0.16248   0.76045   0.08649   0.00000  Uiso   1.00
