data_job_05657
_audit_creation_date              2018-12-19
_audit_creation_method            'Materials Studio'
_symmetry_space_group_name_H-M    'P1'
_symmetry_Int_Tables_number       1
_symmetry_cell_setting            triclinic
loop_
_symmetry_equiv_pos_as_xyz
  x,y,z
_cell_length_a                    17.2545
_cell_length_b                    31.0665
_cell_length_c                    11.3239
_cell_angle_alpha                 90.0000
_cell_angle_beta                  90.0000
_cell_angle_gamma                 90.0000
loop_
_atom_site_label
_atom_site_type_symbol
_atom_site_fract_x
_atom_site_fract_y
_atom_site_fract_z
_atom_site_U_iso_or_equiv
_atom_site_adp_type
_atom_site_occupancy
C1     C     0.83099   0.11214   0.77765   0.00000  Uiso   1.00
C2     C     0.85854   0.14508   0.68703   0.00000  Uiso   1.00
C3     C     0.93356   0.14892   0.64413   0.00000  Uiso   1.00
C4     C     0.94703   0.18112   0.56163   0.00000  Uiso   1.00
C5     C     0.99885   0.22812   0.42678   0.00000  Uiso   1.00
C6     C     0.79511   0.13797   0.87826   0.00000  Uiso   1.00
C7     C     0.81679   0.13584   0.99614   0.00000  Uiso   1.00
C8     C     0.77686   0.16206   0.07460   0.00000  Uiso   1.00
C9     C     0.73016   0.19800   0.23664   0.00000  Uiso   1.00
C10    C     0.76431   0.08788   0.71952   0.00000  Uiso   1.00
C11    C     0.76009   0.04363   0.70396   0.00000  Uiso   1.00
C12    C     0.69421   0.02768   0.64880   0.00000  Uiso   1.00
C13    C     0.59970   0.98584   0.56438   0.00000  Uiso   1.00
C14    C     0.72150   0.16249   0.70741   0.00000  Uiso   1.00
C15    C     0.79906   0.17242   0.64889   0.00000  Uiso   1.00
C16    C     0.81242   0.20462   0.56642   0.00000  Uiso   1.00
C17    C     0.88745   0.20852   0.52340   0.00000  Uiso   1.00
C18    C     0.73564   0.16532   0.84011   0.00000  Uiso   1.00
C19    C     0.69566   0.19154   0.91842   0.00000  Uiso   1.00
C20    C     0.71728   0.18946   0.03638   0.00000  Uiso   1.00
C21    C     0.70484   0.11523   0.68137   0.00000  Uiso   1.00
C22    C     0.63895   0.09933   0.62624   0.00000  Uiso   1.00
C23    C     0.63463   0.05507   0.61058   0.00000  Uiso   1.00
H24    H     0.87729   0.09086   0.80736   0.00000  Uiso   1.00
H25    H     0.97957   0.12776   0.67369   0.00000  Uiso   1.00
H26    H     0.86281   0.11468   0.02563   0.00000  Uiso   1.00
H27    H     0.80612   0.02248   0.73349   0.00000  Uiso   1.00
H28    H     0.06673   0.18074   0.50870   0.00000  Uiso   1.00
H29    H     0.82054   0.15315   0.25080   0.00000  Uiso   1.00
H30    H     0.70098   0.95874   0.63477   0.00000  Uiso   1.00
H31    H     0.67520   0.18378   0.67771   0.00000  Uiso   1.00
H32    H     0.76639   0.22578   0.53691   0.00000  Uiso   1.00
H33    H     0.64964   0.21270   0.88887   0.00000  Uiso   1.00
H34    H     0.59294   0.12050   0.59673   0.00000  Uiso   1.00
H35    H     0.89371   0.26030   0.39769   0.00000  Uiso   1.00
H36    H     0.64751   0.23270   0.13980   0.00000  Uiso   1.00
H37    H     0.52796   0.03829   0.52377   0.00000  Uiso   1.00
O38    O     0.04386   0.24649   0.36295   0.00000  Uiso   1.00
O39    O     0.72085   0.21028   0.33656   0.00000  Uiso   1.00
O40    O     0.56400   0.95521   0.52834   0.00000  Uiso   1.00
N41    N     0.01350   0.19370   0.50188   0.00000  Uiso   1.00
N42    N     0.78332   0.16790   0.19570   0.00000  Uiso   1.00
N43    N     0.67154   0.98614   0.61979   0.00000  Uiso   1.00
N44    N     0.92039   0.23651   0.44215   0.00000  Uiso   1.00
N45    N     0.69022   0.21071   0.13597   0.00000  Uiso   1.00
N46    N     0.57844   0.02895   0.56006   0.00000  Uiso   1.00
C47    C     0.66901   0.88786   0.27765   0.00000  Uiso   1.00
C48    C     0.64146   0.85492   0.18703   0.00000  Uiso   1.00
C49    C     0.56644   0.85108   0.14413   0.00000  Uiso   1.00
C50    C     0.55297   0.81888   0.06163   0.00000  Uiso   1.00
C51    C     0.50115   0.77188   0.92678   0.00000  Uiso   1.00
C52    C     0.70489   0.86203   0.37826   0.00000  Uiso   1.00
C53    C     0.68321   0.86416   0.49614   0.00000  Uiso   1.00
C54    C     0.72314   0.83794   0.57460   0.00000  Uiso   1.00
C55    C     0.76984   0.80200   0.73664   0.00000  Uiso   1.00
C56    C     0.73569   0.91212   0.21952   0.00000  Uiso   1.00
C57    C     0.73991   0.95637   0.20396   0.00000  Uiso   1.00
C58    C     0.80579   0.97232   0.14880   0.00000  Uiso   1.00
C59    C     0.90030   0.01416   0.06438   0.00000  Uiso   1.00
C60    C     0.77850   0.83751   0.20741   0.00000  Uiso   1.00
C61    C     0.70094   0.82758   0.14889   0.00000  Uiso   1.00
C62    C     0.68758   0.79538   0.06642   0.00000  Uiso   1.00
C63    C     0.61255   0.79148   0.02340   0.00000  Uiso   1.00
C64    C     0.76436   0.83468   0.34011   0.00000  Uiso   1.00
C65    C     0.80434   0.80846   0.41842   0.00000  Uiso   1.00
C66    C     0.78272   0.81054   0.53638   0.00000  Uiso   1.00
C67    C     0.79516   0.88477   0.18137   0.00000  Uiso   1.00
C68    C     0.86105   0.90067   0.12624   0.00000  Uiso   1.00
C69    C     0.86537   0.94493   0.11058   0.00000  Uiso   1.00
H70    H     0.62271   0.90914   0.30736   0.00000  Uiso   1.00
H71    H     0.52043   0.87224   0.17369   0.00000  Uiso   1.00
H72    H     0.63719   0.88532   0.52563   0.00000  Uiso   1.00
H73    H     0.69388   0.97752   0.23349   0.00000  Uiso   1.00
H74    H     0.43327   0.81926   0.00870   0.00000  Uiso   1.00
H75    H     0.67946   0.84685   0.75080   0.00000  Uiso   1.00
H76    H     0.79902   0.04126   0.13477   0.00000  Uiso   1.00
H77    H     0.82480   0.81622   0.17771   0.00000  Uiso   1.00
H78    H     0.73361   0.77422   0.03691   0.00000  Uiso   1.00
H79    H     0.85036   0.78730   0.38887   0.00000  Uiso   1.00
H80    H     0.90706   0.87950   0.09673   0.00000  Uiso   1.00
H81    H     0.60629   0.73970   0.89769   0.00000  Uiso   1.00
H82    H     0.85249   0.76730   0.63980   0.00000  Uiso   1.00
H83    H     0.97204   0.96171   0.02377   0.00000  Uiso   1.00
O84    O     0.45614   0.75351   0.86295   0.00000  Uiso   1.00
O85    O     0.77915   0.78972   0.83656   0.00000  Uiso   1.00
O86    O     0.93600   0.04479   0.02834   0.00000  Uiso   1.00
N87    N     0.48650   0.80630   0.00188   0.00000  Uiso   1.00
N88    N     0.71668   0.83210   0.69570   0.00000  Uiso   1.00
N89    N     0.82846   0.01386   0.11979   0.00000  Uiso   1.00
N90    N     0.57961   0.76349   0.94215   0.00000  Uiso   1.00
N91    N     0.80978   0.78929   0.63597   0.00000  Uiso   1.00
N92    N     0.92156   0.97105   0.06006   0.00000  Uiso   1.00
C93    C     0.16901   0.61214   0.72235   0.00000  Uiso   1.00
C94    C     0.14146   0.64508   0.81297   0.00000  Uiso   1.00
C95    C     0.06644   0.64892   0.85587   0.00000  Uiso   1.00
C96    C     0.05297   0.68112   0.93837   0.00000  Uiso   1.00
C97    C     0.00115   0.72812   0.07322   0.00000  Uiso   1.00
C98    C     0.20489   0.63797   0.62174   0.00000  Uiso   1.00
C99    C     0.18321   0.63584   0.50386   0.00000  Uiso   1.00
C100   C     0.22314   0.66206   0.42540   0.00000  Uiso   1.00
C101   C     0.26984   0.69800   0.26336   0.00000  Uiso   1.00
C102   C     0.23569   0.58788   0.78048   0.00000  Uiso   1.00
C103   C     0.23991   0.54363   0.79604   0.00000  Uiso   1.00
C104   C     0.30579   0.52768   0.85120   0.00000  Uiso   1.00
C105   C     0.40030   0.48584   0.93562   0.00000  Uiso   1.00
C106   C     0.27850   0.66249   0.79259   0.00000  Uiso   1.00
C107   C     0.20094   0.67242   0.85111   0.00000  Uiso   1.00
C108   C     0.18758   0.70462   0.93358   0.00000  Uiso   1.00
C109   C     0.11255   0.70852   0.97660   0.00000  Uiso   1.00
C110   C     0.26436   0.66532   0.65989   0.00000  Uiso   1.00
C111   C     0.30434   0.69154   0.58158   0.00000  Uiso   1.00
C112   C     0.28272   0.68946   0.46362   0.00000  Uiso   1.00
C113   C     0.29516   0.61523   0.81863   0.00000  Uiso   1.00
C114   C     0.36105   0.59933   0.87376   0.00000  Uiso   1.00
C115   C     0.36537   0.55507   0.88942   0.00000  Uiso   1.00
H116   H     0.12271   0.59086   0.69264   0.00000  Uiso   1.00
H117   H     0.02043   0.62776   0.82631   0.00000  Uiso   1.00
H118   H     0.13719   0.61468   0.47437   0.00000  Uiso   1.00
H119   H     0.19388   0.52248   0.76651   0.00000  Uiso   1.00
H120   H     0.93327   0.68074   0.99130   0.00000  Uiso   1.00
H121   H     0.17946   0.65315   0.24920   0.00000  Uiso   1.00
H122   H     0.29902   0.45874   0.86523   0.00000  Uiso   1.00
H123   H     0.32480   0.68378   0.82229   0.00000  Uiso   1.00
H124   H     0.23361   0.72578   0.96309   0.00000  Uiso   1.00
H125   H     0.35036   0.71270   0.61113   0.00000  Uiso   1.00
H126   H     0.40706   0.62050   0.90327   0.00000  Uiso   1.00
H127   H     0.10629   0.76030   0.10231   0.00000  Uiso   1.00
H128   H     0.35249   0.73270   0.36020   0.00000  Uiso   1.00
H129   H     0.47204   0.53829   0.97623   0.00000  Uiso   1.00
O130   O     0.95614   0.74649   0.13705   0.00000  Uiso   1.00
O131   O     0.27915   0.71028   0.16344   0.00000  Uiso   1.00
O132   O     0.43600   0.45521   0.97166   0.00000  Uiso   1.00
N133   N     0.98650   0.69370   0.99812   0.00000  Uiso   1.00
N134   N     0.21668   0.66790   0.30430   0.00000  Uiso   1.00
N135   N     0.32846   0.48614   0.88021   0.00000  Uiso   1.00
N136   N     0.07961   0.73651   0.05785   0.00000  Uiso   1.00
N137   N     0.30978   0.71071   0.36403   0.00000  Uiso   1.00
N138   N     0.42156   0.52895   0.93994   0.00000  Uiso   1.00
C139   C     0.33099   0.38786   0.22235   0.00000  Uiso   1.00
C140   C     0.35854   0.35492   0.31297   0.00000  Uiso   1.00
C141   C     0.43356   0.35108   0.35587   0.00000  Uiso   1.00
C142   C     0.44703   0.31888   0.43837   0.00000  Uiso   1.00
C143   C     0.49885   0.27188   0.57322   0.00000  Uiso   1.00
C144   C     0.29511   0.36203   0.12174   0.00000  Uiso   1.00
C145   C     0.31679   0.36416   0.00386   0.00000  Uiso   1.00
C146   C     0.27686   0.33794   0.92540   0.00000  Uiso   1.00
C147   C     0.23016   0.30200   0.76336   0.00000  Uiso   1.00
C148   C     0.26431   0.41212   0.28048   0.00000  Uiso   1.00
C149   C     0.26009   0.45637   0.29604   0.00000  Uiso   1.00
C150   C     0.19421   0.47232   0.35120   0.00000  Uiso   1.00
C151   C     0.09970   0.51416   0.43562   0.00000  Uiso   1.00
C152   C     0.22150   0.33751   0.29259   0.00000  Uiso   1.00
C153   C     0.29906   0.32758   0.35111   0.00000  Uiso   1.00
C154   C     0.31242   0.29538   0.43358   0.00000  Uiso   1.00
C155   C     0.38745   0.29148   0.47660   0.00000  Uiso   1.00
C156   C     0.23564   0.33468   0.15989   0.00000  Uiso   1.00
C157   C     0.19566   0.30846   0.08158   0.00000  Uiso   1.00
C158   C     0.21728   0.31054   0.96362   0.00000  Uiso   1.00
C159   C     0.20484   0.38477   0.31863   0.00000  Uiso   1.00
C160   C     0.13895   0.40067   0.37376   0.00000  Uiso   1.00
C161   C     0.13463   0.44493   0.38942   0.00000  Uiso   1.00
H162   H     0.37729   0.40914   0.19264   0.00000  Uiso   1.00
H163   H     0.47957   0.37224   0.32631   0.00000  Uiso   1.00
H164   H     0.36281   0.38532   0.97437   0.00000  Uiso   1.00
H165   H     0.30612   0.47752   0.26651   0.00000  Uiso   1.00
H166   H     0.56673   0.31926   0.49130   0.00000  Uiso   1.00
H167   H     0.32054   0.34685   0.74920   0.00000  Uiso   1.00
H168   H     0.20098   0.54126   0.36523   0.00000  Uiso   1.00
H169   H     0.17520   0.31622   0.32229   0.00000  Uiso   1.00
H170   H     0.26639   0.27422   0.46309   0.00000  Uiso   1.00
H171   H     0.14964   0.28730   0.11113   0.00000  Uiso   1.00
H172   H     0.09294   0.37950   0.40327   0.00000  Uiso   1.00
H173   H     0.39371   0.23970   0.60231   0.00000  Uiso   1.00
H174   H     0.14751   0.26730   0.86020   0.00000  Uiso   1.00
H175   H     0.02796   0.46171   0.47623   0.00000  Uiso   1.00
O176   O     0.54386   0.25351   0.63705   0.00000  Uiso   1.00
O177   O     0.22085   0.28972   0.66344   0.00000  Uiso   1.00
O178   O     0.06400   0.54479   0.47166   0.00000  Uiso   1.00
N179   N     0.51350   0.30630   0.49812   0.00000  Uiso   1.00
N180   N     0.28332   0.33210   0.80430   0.00000  Uiso   1.00
N181   N     0.17154   0.51386   0.38021   0.00000  Uiso   1.00
N182   N     0.42039   0.26349   0.55785   0.00000  Uiso   1.00
N183   N     0.19022   0.28929   0.86403   0.00000  Uiso   1.00
N184   N     0.07844   0.47105   0.43994   0.00000  Uiso   1.00
C185   C     0.16901   0.88786   0.22235   0.00000  Uiso   1.00
C186   C     0.14146   0.85492   0.31297   0.00000  Uiso   1.00
C187   C     0.06644   0.85108   0.35587   0.00000  Uiso   1.00
C188   C     0.05297   0.81888   0.43837   0.00000  Uiso   1.00
C189   C     0.00115   0.77188   0.57322   0.00000  Uiso   1.00
C190   C     0.20489   0.86203   0.12174   0.00000  Uiso   1.00
C191   C     0.18321   0.86416   0.00386   0.00000  Uiso   1.00
C192   C     0.22314   0.83794   0.92540   0.00000  Uiso   1.00
C193   C     0.26984   0.80200   0.76336   0.00000  Uiso   1.00
C194   C     0.23569   0.91212   0.28048   0.00000  Uiso   1.00
C195   C     0.23991   0.95637   0.29604   0.00000  Uiso   1.00
C196   C     0.30579   0.97232   0.35120   0.00000  Uiso   1.00
C197   C     0.40030   0.01416   0.43562   0.00000  Uiso   1.00
C198   C     0.27850   0.83751   0.29259   0.00000  Uiso   1.00
C199   C     0.20094   0.82758   0.35111   0.00000  Uiso   1.00
C200   C     0.18758   0.79538   0.43358   0.00000  Uiso   1.00
C201   C     0.11255   0.79148   0.47660   0.00000  Uiso   1.00
C202   C     0.26436   0.83468   0.15989   0.00000  Uiso   1.00
C203   C     0.30434   0.80846   0.08158   0.00000  Uiso   1.00
C204   C     0.28272   0.81054   0.96362   0.00000  Uiso   1.00
C205   C     0.29516   0.88477   0.31863   0.00000  Uiso   1.00
C206   C     0.36105   0.90067   0.37376   0.00000  Uiso   1.00
C207   C     0.36537   0.94493   0.38942   0.00000  Uiso   1.00
H208   H     0.12271   0.90914   0.19264   0.00000  Uiso   1.00
H209   H     0.02043   0.87224   0.32631   0.00000  Uiso   1.00
H210   H     0.13719   0.88532   0.97437   0.00000  Uiso   1.00
H211   H     0.19388   0.97752   0.26651   0.00000  Uiso   1.00
H212   H     0.93327   0.81926   0.49130   0.00000  Uiso   1.00
H213   H     0.17946   0.84685   0.74920   0.00000  Uiso   1.00
H214   H     0.29902   0.04126   0.36523   0.00000  Uiso   1.00
H215   H     0.32480   0.81622   0.32229   0.00000  Uiso   1.00
H216   H     0.23361   0.77422   0.46309   0.00000  Uiso   1.00
H217   H     0.35036   0.78730   0.11113   0.00000  Uiso   1.00
H218   H     0.40706   0.87950   0.40327   0.00000  Uiso   1.00
H219   H     0.10629   0.73970   0.60231   0.00000  Uiso   1.00
H220   H     0.35249   0.76730   0.86020   0.00000  Uiso   1.00
H221   H     0.47204   0.96171   0.47623   0.00000  Uiso   1.00
O222   O     0.95614   0.75351   0.63705   0.00000  Uiso   1.00
O223   O     0.27915   0.78972   0.66344   0.00000  Uiso   1.00
O224   O     0.43600   0.04479   0.47166   0.00000  Uiso   1.00
N225   N     0.98650   0.80630   0.49812   0.00000  Uiso   1.00
N226   N     0.21668   0.83210   0.80430   0.00000  Uiso   1.00
N227   N     0.32846   0.01386   0.38021   0.00000  Uiso   1.00
N228   N     0.07961   0.76349   0.55785   0.00000  Uiso   1.00
N229   N     0.30978   0.78929   0.86403   0.00000  Uiso   1.00
N230   N     0.42156   0.97105   0.43994   0.00000  Uiso   1.00
C231   C     0.33099   0.11214   0.72235   0.00000  Uiso   1.00
C232   C     0.35854   0.14508   0.81297   0.00000  Uiso   1.00
C233   C     0.43356   0.14892   0.85587   0.00000  Uiso   1.00
C234   C     0.44703   0.18112   0.93837   0.00000  Uiso   1.00
C235   C     0.49885   0.22812   0.07322   0.00000  Uiso   1.00
C236   C     0.29511   0.13797   0.62174   0.00000  Uiso   1.00
C237   C     0.31679   0.13584   0.50386   0.00000  Uiso   1.00
C238   C     0.27686   0.16206   0.42540   0.00000  Uiso   1.00
C239   C     0.23016   0.19800   0.26336   0.00000  Uiso   1.00
C240   C     0.26431   0.08788   0.78048   0.00000  Uiso   1.00
C241   C     0.26009   0.04363   0.79604   0.00000  Uiso   1.00
C242   C     0.19421   0.02768   0.85120   0.00000  Uiso   1.00
C243   C     0.09970   0.98584   0.93562   0.00000  Uiso   1.00
C244   C     0.22150   0.16249   0.79259   0.00000  Uiso   1.00
C245   C     0.29906   0.17242   0.85111   0.00000  Uiso   1.00
C246   C     0.31242   0.20462   0.93358   0.00000  Uiso   1.00
C247   C     0.38745   0.20852   0.97660   0.00000  Uiso   1.00
C248   C     0.23564   0.16532   0.65989   0.00000  Uiso   1.00
C249   C     0.19566   0.19154   0.58158   0.00000  Uiso   1.00
C250   C     0.21728   0.18946   0.46362   0.00000  Uiso   1.00
C251   C     0.20484   0.11523   0.81863   0.00000  Uiso   1.00
C252   C     0.13895   0.09933   0.87376   0.00000  Uiso   1.00
C253   C     0.13463   0.05507   0.88942   0.00000  Uiso   1.00
H254   H     0.37729   0.09086   0.69264   0.00000  Uiso   1.00
H255   H     0.47957   0.12776   0.82631   0.00000  Uiso   1.00
H256   H     0.36281   0.11468   0.47437   0.00000  Uiso   1.00
H257   H     0.30612   0.02248   0.76651   0.00000  Uiso   1.00
H258   H     0.56673   0.18074   0.99130   0.00000  Uiso   1.00
H259   H     0.32054   0.15315   0.24920   0.00000  Uiso   1.00
H260   H     0.20098   0.95874   0.86523   0.00000  Uiso   1.00
H261   H     0.17520   0.18378   0.82229   0.00000  Uiso   1.00
H262   H     0.26639   0.22578   0.96309   0.00000  Uiso   1.00
H263   H     0.14964   0.21270   0.61113   0.00000  Uiso   1.00
H264   H     0.09294   0.12050   0.90327   0.00000  Uiso   1.00
H265   H     0.39371   0.26030   0.10231   0.00000  Uiso   1.00
H266   H     0.14751   0.23270   0.36020   0.00000  Uiso   1.00
H267   H     0.02796   0.03829   0.97623   0.00000  Uiso   1.00
O268   O     0.54386   0.24649   0.13705   0.00000  Uiso   1.00
O269   O     0.22085   0.21028   0.16344   0.00000  Uiso   1.00
O270   O     0.06400   0.95521   0.97166   0.00000  Uiso   1.00
N271   N     0.51350   0.19370   0.99812   0.00000  Uiso   1.00
N272   N     0.28332   0.16790   0.30430   0.00000  Uiso   1.00
N273   N     0.17154   0.98614   0.88021   0.00000  Uiso   1.00
N274   N     0.42039   0.23651   0.05785   0.00000  Uiso   1.00
N275   N     0.19022   0.21071   0.36403   0.00000  Uiso   1.00
N276   N     0.07844   0.02895   0.93994   0.00000  Uiso   1.00
C277   C     0.83099   0.38786   0.27765   0.00000  Uiso   1.00
C278   C     0.85854   0.35492   0.18703   0.00000  Uiso   1.00
C279   C     0.93356   0.35108   0.14413   0.00000  Uiso   1.00
C280   C     0.94703   0.31888   0.06163   0.00000  Uiso   1.00
C281   C     0.99885   0.27188   0.92678   0.00000  Uiso   1.00
C282   C     0.79511   0.36203   0.37826   0.00000  Uiso   1.00
C283   C     0.81679   0.36416   0.49614   0.00000  Uiso   1.00
C284   C     0.77686   0.33794   0.57460   0.00000  Uiso   1.00
C285   C     0.73016   0.30200   0.73664   0.00000  Uiso   1.00
C286   C     0.76431   0.41212   0.21952   0.00000  Uiso   1.00
C287   C     0.76009   0.45637   0.20396   0.00000  Uiso   1.00
C288   C     0.69421   0.47232   0.14880   0.00000  Uiso   1.00
C289   C     0.59970   0.51416   0.06438   0.00000  Uiso   1.00
C290   C     0.72150   0.33751   0.20741   0.00000  Uiso   1.00
C291   C     0.79906   0.32758   0.14889   0.00000  Uiso   1.00
C292   C     0.81242   0.29538   0.06642   0.00000  Uiso   1.00
C293   C     0.88745   0.29148   0.02340   0.00000  Uiso   1.00
C294   C     0.73564   0.33468   0.34011   0.00000  Uiso   1.00
C295   C     0.69566   0.30846   0.41842   0.00000  Uiso   1.00
C296   C     0.71728   0.31054   0.53638   0.00000  Uiso   1.00
C297   C     0.70484   0.38477   0.18137   0.00000  Uiso   1.00
C298   C     0.63895   0.40067   0.12624   0.00000  Uiso   1.00
C299   C     0.63463   0.44493   0.11058   0.00000  Uiso   1.00
H300   H     0.87729   0.40914   0.30736   0.00000  Uiso   1.00
H301   H     0.97957   0.37224   0.17369   0.00000  Uiso   1.00
H302   H     0.86281   0.38532   0.52563   0.00000  Uiso   1.00
H303   H     0.80612   0.47752   0.23349   0.00000  Uiso   1.00
H304   H     0.06673   0.31926   0.00870   0.00000  Uiso   1.00
H305   H     0.82054   0.34685   0.75080   0.00000  Uiso   1.00
H306   H     0.70098   0.54126   0.13477   0.00000  Uiso   1.00
H307   H     0.67520   0.31622   0.17771   0.00000  Uiso   1.00
H308   H     0.76639   0.27422   0.03691   0.00000  Uiso   1.00
H309   H     0.64964   0.28730   0.38887   0.00000  Uiso   1.00
H310   H     0.59294   0.37950   0.09673   0.00000  Uiso   1.00
H311   H     0.89371   0.23970   0.89769   0.00000  Uiso   1.00
H312   H     0.64751   0.26730   0.63980   0.00000  Uiso   1.00
H313   H     0.52796   0.46171   0.02377   0.00000  Uiso   1.00
O314   O     0.04386   0.25351   0.86295   0.00000  Uiso   1.00
O315   O     0.72085   0.28972   0.83656   0.00000  Uiso   1.00
O316   O     0.56400   0.54479   0.02834   0.00000  Uiso   1.00
N317   N     0.01350   0.30630   0.00188   0.00000  Uiso   1.00
N318   N     0.78332   0.33210   0.69570   0.00000  Uiso   1.00
N319   N     0.67154   0.51386   0.11979   0.00000  Uiso   1.00
N320   N     0.92039   0.26349   0.94215   0.00000  Uiso   1.00
N321   N     0.69022   0.28929   0.63597   0.00000  Uiso   1.00
N322   N     0.57844   0.47105   0.06006   0.00000  Uiso   1.00
C323   C     0.66901   0.61214   0.77765   0.00000  Uiso   1.00
C324   C     0.64146   0.64508   0.68703   0.00000  Uiso   1.00
C325   C     0.56644   0.64892   0.64413   0.00000  Uiso   1.00
C326   C     0.55297   0.68112   0.56163   0.00000  Uiso   1.00
C327   C     0.50115   0.72812   0.42678   0.00000  Uiso   1.00
C328   C     0.70489   0.63797   0.87826   0.00000  Uiso   1.00
C329   C     0.68321   0.63584   0.99614   0.00000  Uiso   1.00
C330   C     0.72314   0.66206   0.07460   0.00000  Uiso   1.00
C331   C     0.76984   0.69800   0.23664   0.00000  Uiso   1.00
C332   C     0.73569   0.58788   0.71952   0.00000  Uiso   1.00
C333   C     0.73991   0.54363   0.70396   0.00000  Uiso   1.00
C334   C     0.80579   0.52768   0.64880   0.00000  Uiso   1.00
C335   C     0.90030   0.48584   0.56438   0.00000  Uiso   1.00
C336   C     0.77850   0.66249   0.70741   0.00000  Uiso   1.00
C337   C     0.70094   0.67242   0.64889   0.00000  Uiso   1.00
C338   C     0.68758   0.70462   0.56642   0.00000  Uiso   1.00
C339   C     0.61255   0.70852   0.52340   0.00000  Uiso   1.00
C340   C     0.76436   0.66532   0.84011   0.00000  Uiso   1.00
C341   C     0.80434   0.69154   0.91842   0.00000  Uiso   1.00
C342   C     0.78272   0.68946   0.03638   0.00000  Uiso   1.00
C343   C     0.79516   0.61523   0.68137   0.00000  Uiso   1.00
C344   C     0.86105   0.59933   0.62624   0.00000  Uiso   1.00
C345   C     0.86537   0.55507   0.61058   0.00000  Uiso   1.00
H346   H     0.62271   0.59086   0.80736   0.00000  Uiso   1.00
H347   H     0.52043   0.62776   0.67369   0.00000  Uiso   1.00
H348   H     0.63719   0.61468   0.02563   0.00000  Uiso   1.00
H349   H     0.69388   0.52248   0.73349   0.00000  Uiso   1.00
H350   H     0.43327   0.68074   0.50870   0.00000  Uiso   1.00
H351   H     0.67946   0.65315   0.25080   0.00000  Uiso   1.00
H352   H     0.79902   0.45874   0.63477   0.00000  Uiso   1.00
H353   H     0.82480   0.68378   0.67771   0.00000  Uiso   1.00
H354   H     0.73361   0.72578   0.53691   0.00000  Uiso   1.00
H355   H     0.85036   0.71270   0.88887   0.00000  Uiso   1.00
H356   H     0.90706   0.62050   0.59673   0.00000  Uiso   1.00
H357   H     0.60629   0.76030   0.39769   0.00000  Uiso   1.00
H358   H     0.85249   0.73270   0.13980   0.00000  Uiso   1.00
H359   H     0.97204   0.53829   0.52377   0.00000  Uiso   1.00
O360   O     0.45614   0.74649   0.36295   0.00000  Uiso   1.00
O361   O     0.77915   0.71028   0.33656   0.00000  Uiso   1.00
O362   O     0.93600   0.45521   0.52834   0.00000  Uiso   1.00
N363   N     0.48650   0.69370   0.50188   0.00000  Uiso   1.00
N364   N     0.71668   0.66790   0.19570   0.00000  Uiso   1.00
N365   N     0.82846   0.48614   0.61979   0.00000  Uiso   1.00
N366   N     0.57961   0.73651   0.44215   0.00000  Uiso   1.00
N367   N     0.80978   0.71071   0.13597   0.00000  Uiso   1.00
N368   N     0.92156   0.52895   0.56006   0.00000  Uiso   1.00
