data_job_01751
_audit_creation_date              2018-12-19
_audit_creation_method            'Materials Studio'
_symmetry_space_group_name_H-M    'P1'
_symmetry_Int_Tables_number       1
_symmetry_cell_setting            triclinic
loop_
_symmetry_equiv_pos_as_xyz
  x,y,z
_cell_length_a                    12.3612
_cell_length_b                    22.3538
_cell_length_c                    21.5111
_cell_angle_alpha                 90.0000
_cell_angle_beta                  111.5702
_cell_angle_gamma                 90.0000
loop_
_atom_site_label
_atom_site_type_symbol
_atom_site_fract_x
_atom_site_fract_y
_atom_site_fract_z
_atom_site_U_iso_or_equiv
_atom_site_adp_type
_atom_site_occupancy
C1     C     0.85384   0.83905   0.32608   0.00000  Uiso   1.00
C2     C     0.80775   0.83690   0.38278   0.00000  Uiso   1.00
C3     C     0.70966   0.80606   0.38175   0.00000  Uiso   1.00
C4     C     0.68196   0.80970   0.43861   0.00000  Uiso   1.00
C5     C     0.60001   0.80132   0.51814   0.00000  Uiso   1.00
C6     C     0.86027   0.90512   0.31013   0.00000  Uiso   1.00
C7     C     0.80636   0.93163   0.24802   0.00000  Uiso   1.00
C8     C     0.82289   0.99270   0.24372   0.00000  Uiso   1.00
C9     C     0.82255   0.09023   0.21044   0.00000  Uiso   1.00
C10    C     0.97932   0.81714   0.35579   0.00000  Uiso   1.00
C11    C     0.02553   0.76970   0.33206   0.00000  Uiso   1.00
C12    C     0.14231   0.75671   0.36619   0.00000  Uiso   1.00
C13    C     0.32681   0.71763   0.40381   0.00000  Uiso   1.00
C14    C     0.97907   0.90035   0.42889   0.00000  Uiso   1.00
C15    C     0.87577   0.87020   0.43862   0.00000  Uiso   1.00
C16    C     0.84821   0.87388   0.49550   0.00000  Uiso   1.00
C17    C     0.75011   0.84305   0.49455   0.00000  Uiso   1.00
C18    C     0.92829   0.93841   0.36597   0.00000  Uiso   1.00
C19    C     0.94491   0.99946   0.36176   0.00000  Uiso   1.00
C20    C     0.89103   0.02606   0.29966   0.00000  Uiso   1.00
C21    C     0.04735   0.85044   0.41163   0.00000  Uiso   1.00
C22    C     0.16408   0.83752   0.44580   0.00000  Uiso   1.00
C23    C     0.21045   0.79006   0.42213   0.00000  Uiso   1.00
H24    H     0.80089   0.81313   0.28261   0.00000  Uiso   1.00
H25    H     0.65704   0.78030   0.33852   0.00000  Uiso   1.00
H26    H     0.75374   0.90586   0.20481   0.00000  Uiso   1.00
H27    H     0.97287   0.74394   0.28884   0.00000  Uiso   1.00
H28    H     0.52753   0.75861   0.42513   0.00000  Uiso   1.00
H29    H     0.73145   0.02334   0.14319   0.00000  Uiso   1.00
H30    H     0.19353   0.68192   0.32038   0.00000  Uiso   1.00
H31    H     0.03203   0.92627   0.47237   0.00000  Uiso   1.00
H32    H     0.90087   0.89965   0.53870   0.00000  Uiso   1.00
H33    H     0.99756   0.02521   0.40498   0.00000  Uiso   1.00
H34    H     0.21669   0.86329   0.48901   0.00000  Uiso   1.00
H35    H     0.72543   0.85548   0.58760   0.00000  Uiso   1.00
H36    H     0.92935   0.12022   0.30565   0.00000  Uiso   1.00
H37    H     0.39143   0.77879   0.48285   0.00000  Uiso   1.00
O38    O     0.53600   0.78751   0.54657   0.00000  Uiso   1.00
O39    O     0.80355   0.13482   0.17666   0.00000  Uiso   1.00
O40    O     0.40979   0.68688   0.40914   0.00000  Uiso   1.00
N41    N     0.59212   0.78505   0.45427   0.00000  Uiso   1.00
N42    N     0.78276   0.03256   0.19067   0.00000  Uiso   1.00
N43    N     0.21477   0.71337   0.35632   0.00000  Uiso   1.00
N44    N     0.69861   0.83718   0.54170   0.00000  Uiso   1.00
N45    N     0.88924   0.08469   0.27809   0.00000  Uiso   1.00
N46    N     0.32126   0.76549   0.44374   0.00000  Uiso   1.00
C47    C     0.35384   0.33905   0.32608   0.00000  Uiso   1.00
C48    C     0.30775   0.33690   0.38278   0.00000  Uiso   1.00
C49    C     0.20966   0.30606   0.38175   0.00000  Uiso   1.00
C50    C     0.18196   0.30970   0.43861   0.00000  Uiso   1.00
C51    C     0.10001   0.30132   0.51814   0.00000  Uiso   1.00
C52    C     0.36027   0.40512   0.31013   0.00000  Uiso   1.00
C53    C     0.30636   0.43163   0.24802   0.00000  Uiso   1.00
C54    C     0.32289   0.49270   0.24372   0.00000  Uiso   1.00
C55    C     0.32255   0.59023   0.21044   0.00000  Uiso   1.00
C56    C     0.47932   0.31714   0.35579   0.00000  Uiso   1.00
C57    C     0.52553   0.26970   0.33206   0.00000  Uiso   1.00
C58    C     0.64231   0.25671   0.36619   0.00000  Uiso   1.00
C59    C     0.82681   0.21763   0.40381   0.00000  Uiso   1.00
C60    C     0.47907   0.40035   0.42889   0.00000  Uiso   1.00
C61    C     0.37577   0.37020   0.43862   0.00000  Uiso   1.00
C62    C     0.34821   0.37388   0.49550   0.00000  Uiso   1.00
C63    C     0.25011   0.34305   0.49455   0.00000  Uiso   1.00
C64    C     0.42829   0.43841   0.36597   0.00000  Uiso   1.00
C65    C     0.44491   0.49946   0.36176   0.00000  Uiso   1.00
C66    C     0.39103   0.52606   0.29966   0.00000  Uiso   1.00
C67    C     0.54735   0.35044   0.41163   0.00000  Uiso   1.00
C68    C     0.66408   0.33752   0.44580   0.00000  Uiso   1.00
C69    C     0.71045   0.29006   0.42213   0.00000  Uiso   1.00
H70    H     0.30089   0.31313   0.28261   0.00000  Uiso   1.00
H71    H     0.15704   0.28030   0.33852   0.00000  Uiso   1.00
H72    H     0.25374   0.40586   0.20481   0.00000  Uiso   1.00
H73    H     0.47287   0.24394   0.28884   0.00000  Uiso   1.00
H74    H     0.02753   0.25861   0.42513   0.00000  Uiso   1.00
H75    H     0.23145   0.52334   0.14319   0.00000  Uiso   1.00
H76    H     0.69353   0.18192   0.32038   0.00000  Uiso   1.00
H77    H     0.53203   0.42627   0.47237   0.00000  Uiso   1.00
H78    H     0.40087   0.39965   0.53870   0.00000  Uiso   1.00
H79    H     0.49756   0.52521   0.40498   0.00000  Uiso   1.00
H80    H     0.71669   0.36329   0.48901   0.00000  Uiso   1.00
H81    H     0.22543   0.35548   0.58760   0.00000  Uiso   1.00
H82    H     0.42935   0.62022   0.30565   0.00000  Uiso   1.00
H83    H     0.89143   0.27879   0.48285   0.00000  Uiso   1.00
O84    O     0.03600   0.28751   0.54657   0.00000  Uiso   1.00
O85    O     0.30355   0.63482   0.17666   0.00000  Uiso   1.00
O86    O     0.90979   0.18688   0.40914   0.00000  Uiso   1.00
N87    N     0.09212   0.28505   0.45427   0.00000  Uiso   1.00
N88    N     0.28276   0.53256   0.19067   0.00000  Uiso   1.00
N89    N     0.71477   0.21337   0.35632   0.00000  Uiso   1.00
N90    N     0.19861   0.33718   0.54170   0.00000  Uiso   1.00
N91    N     0.38924   0.58469   0.27809   0.00000  Uiso   1.00
N92    N     0.82126   0.26549   0.44374   0.00000  Uiso   1.00
C93    C     0.14616   0.83905   0.17392   0.00000  Uiso   1.00
C94    C     0.19225   0.83690   0.11722   0.00000  Uiso   1.00
C95    C     0.29034   0.80606   0.11825   0.00000  Uiso   1.00
C96    C     0.31804   0.80970   0.06139   0.00000  Uiso   1.00
C97    C     0.39999   0.80132   0.98186   0.00000  Uiso   1.00
C98    C     0.13973   0.90512   0.18987   0.00000  Uiso   1.00
C99    C     0.19364   0.93163   0.25198   0.00000  Uiso   1.00
C100   C     0.17711   0.99270   0.25628   0.00000  Uiso   1.00
C101   C     0.17745   0.09023   0.28956   0.00000  Uiso   1.00
C102   C     0.02068   0.81714   0.14421   0.00000  Uiso   1.00
C103   C     0.97447   0.76970   0.16794   0.00000  Uiso   1.00
C104   C     0.85769   0.75671   0.13381   0.00000  Uiso   1.00
C105   C     0.67319   0.71763   0.09619   0.00000  Uiso   1.00
C106   C     0.02093   0.90035   0.07111   0.00000  Uiso   1.00
C107   C     0.12423   0.87020   0.06138   0.00000  Uiso   1.00
C108   C     0.15179   0.87388   0.00450   0.00000  Uiso   1.00
C109   C     0.24989   0.84305   0.00545   0.00000  Uiso   1.00
C110   C     0.07171   0.93841   0.13403   0.00000  Uiso   1.00
C111   C     0.05509   0.99946   0.13824   0.00000  Uiso   1.00
C112   C     0.10897   0.02606   0.20034   0.00000  Uiso   1.00
C113   C     0.95265   0.85044   0.08837   0.00000  Uiso   1.00
C114   C     0.83592   0.83752   0.05420   0.00000  Uiso   1.00
C115   C     0.78955   0.79006   0.07787   0.00000  Uiso   1.00
H116   H     0.19911   0.81313   0.21739   0.00000  Uiso   1.00
H117   H     0.34296   0.78030   0.16148   0.00000  Uiso   1.00
H118   H     0.24626   0.90586   0.29519   0.00000  Uiso   1.00
H119   H     0.02713   0.74394   0.21116   0.00000  Uiso   1.00
H120   H     0.47247   0.75861   0.07487   0.00000  Uiso   1.00
H121   H     0.26855   0.02334   0.35681   0.00000  Uiso   1.00
H122   H     0.80647   0.68192   0.17962   0.00000  Uiso   1.00
H123   H     0.96797   0.92627   0.02763   0.00000  Uiso   1.00
H124   H     0.09913   0.89965   0.96130   0.00000  Uiso   1.00
H125   H     0.00244   0.02521   0.09502   0.00000  Uiso   1.00
H126   H     0.78331   0.86329   0.01099   0.00000  Uiso   1.00
H127   H     0.27457   0.85548   0.91240   0.00000  Uiso   1.00
H128   H     0.07065   0.12022   0.19435   0.00000  Uiso   1.00
H129   H     0.60857   0.77879   0.01715   0.00000  Uiso   1.00
O130   O     0.46400   0.78751   0.95343   0.00000  Uiso   1.00
O131   O     0.19645   0.13482   0.32334   0.00000  Uiso   1.00
O132   O     0.59021   0.68688   0.09086   0.00000  Uiso   1.00
N133   N     0.40788   0.78505   0.04573   0.00000  Uiso   1.00
N134   N     0.21724   0.03256   0.30933   0.00000  Uiso   1.00
N135   N     0.78523   0.71337   0.14368   0.00000  Uiso   1.00
N136   N     0.30139   0.83718   0.95830   0.00000  Uiso   1.00
N137   N     0.11076   0.08469   0.22191   0.00000  Uiso   1.00
N138   N     0.67874   0.76549   0.05626   0.00000  Uiso   1.00
C139   C     0.64616   0.33905   0.17392   0.00000  Uiso   1.00
C140   C     0.69225   0.33690   0.11722   0.00000  Uiso   1.00
C141   C     0.79034   0.30606   0.11825   0.00000  Uiso   1.00
C142   C     0.81804   0.30970   0.06139   0.00000  Uiso   1.00
C143   C     0.89999   0.30132   0.98186   0.00000  Uiso   1.00
C144   C     0.63973   0.40512   0.18987   0.00000  Uiso   1.00
C145   C     0.69364   0.43163   0.25198   0.00000  Uiso   1.00
C146   C     0.67711   0.49270   0.25628   0.00000  Uiso   1.00
C147   C     0.67745   0.59023   0.28956   0.00000  Uiso   1.00
C148   C     0.52068   0.31714   0.14421   0.00000  Uiso   1.00
C149   C     0.47447   0.26970   0.16794   0.00000  Uiso   1.00
C150   C     0.35769   0.25671   0.13381   0.00000  Uiso   1.00
C151   C     0.17319   0.21763   0.09619   0.00000  Uiso   1.00
C152   C     0.52093   0.40035   0.07111   0.00000  Uiso   1.00
C153   C     0.62423   0.37020   0.06138   0.00000  Uiso   1.00
C154   C     0.65179   0.37388   0.00450   0.00000  Uiso   1.00
C155   C     0.74989   0.34305   0.00545   0.00000  Uiso   1.00
C156   C     0.57171   0.43841   0.13403   0.00000  Uiso   1.00
C157   C     0.55509   0.49946   0.13824   0.00000  Uiso   1.00
C158   C     0.60897   0.52606   0.20034   0.00000  Uiso   1.00
C159   C     0.45265   0.35044   0.08837   0.00000  Uiso   1.00
C160   C     0.33592   0.33752   0.05420   0.00000  Uiso   1.00
C161   C     0.28955   0.29006   0.07787   0.00000  Uiso   1.00
H162   H     0.69911   0.31313   0.21739   0.00000  Uiso   1.00
H163   H     0.84296   0.28030   0.16148   0.00000  Uiso   1.00
H164   H     0.74626   0.40586   0.29519   0.00000  Uiso   1.00
H165   H     0.52713   0.24394   0.21116   0.00000  Uiso   1.00
H166   H     0.97247   0.25861   0.07487   0.00000  Uiso   1.00
H167   H     0.76855   0.52334   0.35681   0.00000  Uiso   1.00
H168   H     0.30647   0.18192   0.17962   0.00000  Uiso   1.00
H169   H     0.46797   0.42627   0.02763   0.00000  Uiso   1.00
H170   H     0.59913   0.39965   0.96130   0.00000  Uiso   1.00
H171   H     0.50244   0.52521   0.09502   0.00000  Uiso   1.00
H172   H     0.28331   0.36329   0.01099   0.00000  Uiso   1.00
H173   H     0.77457   0.35548   0.91240   0.00000  Uiso   1.00
H174   H     0.57065   0.62022   0.19435   0.00000  Uiso   1.00
H175   H     0.10857   0.27879   0.01715   0.00000  Uiso   1.00
O176   O     0.96400   0.28751   0.95343   0.00000  Uiso   1.00
O177   O     0.69645   0.63482   0.32334   0.00000  Uiso   1.00
O178   O     0.09021   0.18688   0.09086   0.00000  Uiso   1.00
N179   N     0.90788   0.28505   0.04573   0.00000  Uiso   1.00
N180   N     0.71724   0.53256   0.30933   0.00000  Uiso   1.00
N181   N     0.28523   0.21337   0.14368   0.00000  Uiso   1.00
N182   N     0.80139   0.33718   0.95830   0.00000  Uiso   1.00
N183   N     0.61076   0.58469   0.22191   0.00000  Uiso   1.00
N184   N     0.17874   0.26549   0.05626   0.00000  Uiso   1.00
C185   C     0.14616   0.16095   0.67392   0.00000  Uiso   1.00
C186   C     0.19225   0.16310   0.61722   0.00000  Uiso   1.00
C187   C     0.29034   0.19394   0.61825   0.00000  Uiso   1.00
C188   C     0.31804   0.19030   0.56139   0.00000  Uiso   1.00
C189   C     0.39999   0.19868   0.48186   0.00000  Uiso   1.00
C190   C     0.13973   0.09488   0.68987   0.00000  Uiso   1.00
C191   C     0.19364   0.06837   0.75198   0.00000  Uiso   1.00
C192   C     0.17711   0.00730   0.75628   0.00000  Uiso   1.00
C193   C     0.17745   0.90977   0.78956   0.00000  Uiso   1.00
C194   C     0.02068   0.18286   0.64421   0.00000  Uiso   1.00
C195   C     0.97447   0.23030   0.66794   0.00000  Uiso   1.00
C196   C     0.85769   0.24329   0.63381   0.00000  Uiso   1.00
C197   C     0.67319   0.28237   0.59619   0.00000  Uiso   1.00
C198   C     0.02093   0.09965   0.57111   0.00000  Uiso   1.00
C199   C     0.12423   0.12980   0.56138   0.00000  Uiso   1.00
C200   C     0.15179   0.12612   0.50450   0.00000  Uiso   1.00
C201   C     0.24989   0.15695   0.50545   0.00000  Uiso   1.00
C202   C     0.07171   0.06159   0.63403   0.00000  Uiso   1.00
C203   C     0.05509   0.00054   0.63824   0.00000  Uiso   1.00
C204   C     0.10897   0.97394   0.70034   0.00000  Uiso   1.00
C205   C     0.95265   0.14956   0.58837   0.00000  Uiso   1.00
C206   C     0.83592   0.16248   0.55420   0.00000  Uiso   1.00
C207   C     0.78955   0.20994   0.57787   0.00000  Uiso   1.00
H208   H     0.19911   0.18687   0.71739   0.00000  Uiso   1.00
H209   H     0.34296   0.21970   0.66148   0.00000  Uiso   1.00
H210   H     0.24626   0.09414   0.79519   0.00000  Uiso   1.00
H211   H     0.02713   0.25606   0.71116   0.00000  Uiso   1.00
H212   H     0.47247   0.24139   0.57487   0.00000  Uiso   1.00
H213   H     0.26855   0.97666   0.85681   0.00000  Uiso   1.00
H214   H     0.80647   0.31808   0.67962   0.00000  Uiso   1.00
H215   H     0.96797   0.07373   0.52763   0.00000  Uiso   1.00
H216   H     0.09913   0.10035   0.46130   0.00000  Uiso   1.00
H217   H     0.00244   0.97479   0.59502   0.00000  Uiso   1.00
H218   H     0.78331   0.13671   0.51099   0.00000  Uiso   1.00
H219   H     0.27457   0.14452   0.41240   0.00000  Uiso   1.00
H220   H     0.07065   0.87978   0.69435   0.00000  Uiso   1.00
H221   H     0.60857   0.22121   0.51715   0.00000  Uiso   1.00
O222   O     0.46400   0.21249   0.45343   0.00000  Uiso   1.00
O223   O     0.19645   0.86518   0.82334   0.00000  Uiso   1.00
O224   O     0.59021   0.31312   0.59086   0.00000  Uiso   1.00
N225   N     0.40788   0.21495   0.54573   0.00000  Uiso   1.00
N226   N     0.21724   0.96744   0.80933   0.00000  Uiso   1.00
N227   N     0.78523   0.28663   0.64368   0.00000  Uiso   1.00
N228   N     0.30139   0.16282   0.45830   0.00000  Uiso   1.00
N229   N     0.11076   0.91531   0.72191   0.00000  Uiso   1.00
N230   N     0.67874   0.23451   0.55626   0.00000  Uiso   1.00
C231   C     0.64616   0.66095   0.67392   0.00000  Uiso   1.00
C232   C     0.69225   0.66310   0.61722   0.00000  Uiso   1.00
C233   C     0.79034   0.69394   0.61825   0.00000  Uiso   1.00
C234   C     0.81804   0.69030   0.56139   0.00000  Uiso   1.00
C235   C     0.89999   0.69868   0.48186   0.00000  Uiso   1.00
C236   C     0.63973   0.59488   0.68987   0.00000  Uiso   1.00
C237   C     0.69364   0.56837   0.75198   0.00000  Uiso   1.00
C238   C     0.67711   0.50730   0.75628   0.00000  Uiso   1.00
C239   C     0.67745   0.40977   0.78956   0.00000  Uiso   1.00
C240   C     0.52068   0.68286   0.64421   0.00000  Uiso   1.00
C241   C     0.47447   0.73030   0.66794   0.00000  Uiso   1.00
C242   C     0.35769   0.74329   0.63381   0.00000  Uiso   1.00
C243   C     0.17319   0.78237   0.59619   0.00000  Uiso   1.00
C244   C     0.52093   0.59965   0.57111   0.00000  Uiso   1.00
C245   C     0.62423   0.62980   0.56138   0.00000  Uiso   1.00
C246   C     0.65179   0.62612   0.50450   0.00000  Uiso   1.00
C247   C     0.74989   0.65695   0.50545   0.00000  Uiso   1.00
C248   C     0.57171   0.56159   0.63403   0.00000  Uiso   1.00
C249   C     0.55509   0.50054   0.63824   0.00000  Uiso   1.00
C250   C     0.60897   0.47394   0.70034   0.00000  Uiso   1.00
C251   C     0.45265   0.64956   0.58837   0.00000  Uiso   1.00
C252   C     0.33592   0.66248   0.55420   0.00000  Uiso   1.00
C253   C     0.28955   0.70994   0.57787   0.00000  Uiso   1.00
H254   H     0.69911   0.68687   0.71739   0.00000  Uiso   1.00
H255   H     0.84296   0.71970   0.66148   0.00000  Uiso   1.00
H256   H     0.74626   0.59414   0.79519   0.00000  Uiso   1.00
H257   H     0.52713   0.75606   0.71116   0.00000  Uiso   1.00
H258   H     0.97247   0.74139   0.57487   0.00000  Uiso   1.00
H259   H     0.76855   0.47666   0.85681   0.00000  Uiso   1.00
H260   H     0.30647   0.81808   0.67962   0.00000  Uiso   1.00
H261   H     0.46797   0.57373   0.52763   0.00000  Uiso   1.00
H262   H     0.59913   0.60035   0.46130   0.00000  Uiso   1.00
H263   H     0.50244   0.47479   0.59502   0.00000  Uiso   1.00
H264   H     0.28331   0.63671   0.51099   0.00000  Uiso   1.00
H265   H     0.77457   0.64452   0.41240   0.00000  Uiso   1.00
H266   H     0.57065   0.37978   0.69435   0.00000  Uiso   1.00
H267   H     0.10857   0.72121   0.51715   0.00000  Uiso   1.00
O268   O     0.96400   0.71249   0.45343   0.00000  Uiso   1.00
O269   O     0.69645   0.36518   0.82334   0.00000  Uiso   1.00
O270   O     0.09021   0.81312   0.59086   0.00000  Uiso   1.00
N271   N     0.90788   0.71495   0.54573   0.00000  Uiso   1.00
N272   N     0.71724   0.46744   0.80933   0.00000  Uiso   1.00
N273   N     0.28523   0.78663   0.64368   0.00000  Uiso   1.00
N274   N     0.80139   0.66282   0.45830   0.00000  Uiso   1.00
N275   N     0.61076   0.41531   0.72191   0.00000  Uiso   1.00
N276   N     0.17874   0.73451   0.55626   0.00000  Uiso   1.00
C277   C     0.85384   0.16095   0.82608   0.00000  Uiso   1.00
C278   C     0.80775   0.16310   0.88278   0.00000  Uiso   1.00
C279   C     0.70966   0.19394   0.88175   0.00000  Uiso   1.00
C280   C     0.68196   0.19030   0.93861   0.00000  Uiso   1.00
C281   C     0.60001   0.19868   0.01814   0.00000  Uiso   1.00
C282   C     0.86027   0.09488   0.81013   0.00000  Uiso   1.00
C283   C     0.80636   0.06837   0.74802   0.00000  Uiso   1.00
C284   C     0.82289   0.00730   0.74372   0.00000  Uiso   1.00
C285   C     0.82255   0.90977   0.71044   0.00000  Uiso   1.00
C286   C     0.97932   0.18286   0.85579   0.00000  Uiso   1.00
C287   C     0.02553   0.23030   0.83206   0.00000  Uiso   1.00
C288   C     0.14231   0.24329   0.86619   0.00000  Uiso   1.00
C289   C     0.32681   0.28237   0.90381   0.00000  Uiso   1.00
C290   C     0.97907   0.09965   0.92889   0.00000  Uiso   1.00
C291   C     0.87577   0.12980   0.93862   0.00000  Uiso   1.00
C292   C     0.84821   0.12612   0.99550   0.00000  Uiso   1.00
C293   C     0.75011   0.15695   0.99455   0.00000  Uiso   1.00
C294   C     0.92829   0.06159   0.86597   0.00000  Uiso   1.00
C295   C     0.94491   0.00054   0.86176   0.00000  Uiso   1.00
C296   C     0.89103   0.97394   0.79966   0.00000  Uiso   1.00
C297   C     0.04735   0.14956   0.91163   0.00000  Uiso   1.00
C298   C     0.16408   0.16248   0.94580   0.00000  Uiso   1.00
C299   C     0.21045   0.20994   0.92213   0.00000  Uiso   1.00
H300   H     0.80089   0.18687   0.78261   0.00000  Uiso   1.00
H301   H     0.65704   0.21970   0.83852   0.00000  Uiso   1.00
H302   H     0.75374   0.09414   0.70481   0.00000  Uiso   1.00
H303   H     0.97287   0.25606   0.78884   0.00000  Uiso   1.00
H304   H     0.52753   0.24139   0.92513   0.00000  Uiso   1.00
H305   H     0.73145   0.97666   0.64319   0.00000  Uiso   1.00
H306   H     0.19353   0.31808   0.82038   0.00000  Uiso   1.00
H307   H     0.03203   0.07373   0.97237   0.00000  Uiso   1.00
H308   H     0.90087   0.10035   0.03870   0.00000  Uiso   1.00
H309   H     0.99756   0.97479   0.90498   0.00000  Uiso   1.00
H310   H     0.21669   0.13671   0.98901   0.00000  Uiso   1.00
H311   H     0.72543   0.14452   0.08760   0.00000  Uiso   1.00
H312   H     0.92935   0.87978   0.80565   0.00000  Uiso   1.00
H313   H     0.39143   0.22121   0.98285   0.00000  Uiso   1.00
O314   O     0.53600   0.21249   0.04657   0.00000  Uiso   1.00
O315   O     0.80355   0.86518   0.67666   0.00000  Uiso   1.00
O316   O     0.40979   0.31312   0.90914   0.00000  Uiso   1.00
N317   N     0.59212   0.21495   0.95427   0.00000  Uiso   1.00
N318   N     0.78276   0.96744   0.69067   0.00000  Uiso   1.00
N319   N     0.21477   0.28663   0.85632   0.00000  Uiso   1.00
N320   N     0.69861   0.16282   0.04170   0.00000  Uiso   1.00
N321   N     0.88924   0.91531   0.77809   0.00000  Uiso   1.00
N322   N     0.32126   0.23451   0.94374   0.00000  Uiso   1.00
C323   C     0.35384   0.66095   0.82608   0.00000  Uiso   1.00
C324   C     0.30775   0.66310   0.88278   0.00000  Uiso   1.00
C325   C     0.20966   0.69394   0.88175   0.00000  Uiso   1.00
C326   C     0.18196   0.69030   0.93861   0.00000  Uiso   1.00
C327   C     0.10001   0.69868   0.01814   0.00000  Uiso   1.00
C328   C     0.36027   0.59488   0.81013   0.00000  Uiso   1.00
C329   C     0.30636   0.56837   0.74802   0.00000  Uiso   1.00
C330   C     0.32289   0.50730   0.74372   0.00000  Uiso   1.00
C331   C     0.32255   0.40977   0.71044   0.00000  Uiso   1.00
C332   C     0.47932   0.68286   0.85579   0.00000  Uiso   1.00
C333   C     0.52553   0.73030   0.83206   0.00000  Uiso   1.00
C334   C     0.64231   0.74329   0.86619   0.00000  Uiso   1.00
C335   C     0.82681   0.78237   0.90381   0.00000  Uiso   1.00
C336   C     0.47907   0.59965   0.92889   0.00000  Uiso   1.00
C337   C     0.37577   0.62980   0.93862   0.00000  Uiso   1.00
C338   C     0.34821   0.62612   0.99550   0.00000  Uiso   1.00
C339   C     0.25011   0.65695   0.99455   0.00000  Uiso   1.00
C340   C     0.42829   0.56159   0.86597   0.00000  Uiso   1.00
C341   C     0.44491   0.50054   0.86176   0.00000  Uiso   1.00
C342   C     0.39103   0.47394   0.79966   0.00000  Uiso   1.00
C343   C     0.54735   0.64956   0.91163   0.00000  Uiso   1.00
C344   C     0.66408   0.66248   0.94580   0.00000  Uiso   1.00
C345   C     0.71045   0.70994   0.92213   0.00000  Uiso   1.00
H346   H     0.30089   0.68687   0.78261   0.00000  Uiso   1.00
H347   H     0.15704   0.71970   0.83852   0.00000  Uiso   1.00
H348   H     0.25374   0.59414   0.70481   0.00000  Uiso   1.00
H349   H     0.47287   0.75606   0.78884   0.00000  Uiso   1.00
H350   H     0.02753   0.74139   0.92513   0.00000  Uiso   1.00
H351   H     0.23145   0.47666   0.64319   0.00000  Uiso   1.00
H352   H     0.69353   0.81808   0.82038   0.00000  Uiso   1.00
H353   H     0.53203   0.57373   0.97237   0.00000  Uiso   1.00
H354   H     0.40087   0.60035   0.03870   0.00000  Uiso   1.00
H355   H     0.49756   0.47479   0.90498   0.00000  Uiso   1.00
H356   H     0.71669   0.63671   0.98901   0.00000  Uiso   1.00
H357   H     0.22543   0.64452   0.08760   0.00000  Uiso   1.00
H358   H     0.42935   0.37978   0.80565   0.00000  Uiso   1.00
H359   H     0.89143   0.72121   0.98285   0.00000  Uiso   1.00
O360   O     0.03600   0.71249   0.04657   0.00000  Uiso   1.00
O361   O     0.30355   0.36518   0.67666   0.00000  Uiso   1.00
O362   O     0.90979   0.81312   0.90914   0.00000  Uiso   1.00
N363   N     0.09212   0.71495   0.95427   0.00000  Uiso   1.00
N364   N     0.28276   0.46744   0.69067   0.00000  Uiso   1.00
N365   N     0.71477   0.78663   0.85632   0.00000  Uiso   1.00
N366   N     0.19861   0.66282   0.04170   0.00000  Uiso   1.00
N367   N     0.38924   0.41531   0.77809   0.00000  Uiso   1.00
N368   N     0.82126   0.73451   0.94374   0.00000  Uiso   1.00
