data_job_01874
_audit_creation_date              2018-12-19
_audit_creation_method            'Materials Studio'
_symmetry_space_group_name_H-M    'P1'
_symmetry_Int_Tables_number       1
_symmetry_cell_setting            triclinic
loop_
_symmetry_equiv_pos_as_xyz
  x,y,z
_cell_length_a                    22.0695
_cell_length_b                    8.8171
_cell_length_c                    16.9857
_cell_angle_alpha                 90.0000
_cell_angle_beta                  123.1840
_cell_angle_gamma                 90.0000
loop_
_atom_site_label
_atom_site_type_symbol
_atom_site_fract_x
_atom_site_fract_y
_atom_site_fract_z
_atom_site_U_iso_or_equiv
_atom_site_adp_type
_atom_site_occupancy
C1     C     0.18313   0.24628   0.92235   0.00000  Uiso   1.00
C2     C     0.18645   0.14280   0.99655   0.00000  Uiso   1.00
C3     C     0.17710   0.18785   0.06752   0.00000  Uiso   1.00
C4     C     0.18218   0.07599   0.12839   0.00000  Uiso   1.00
C5     C     0.18525   0.93836   0.24514   0.00000  Uiso   1.00
C6     C     0.25506   0.22597   0.93070   0.00000  Uiso   1.00
C7     C     0.30338   0.34095   0.94629   0.00000  Uiso   1.00
C8     C     0.36622   0.29908   0.95171   0.00000  Uiso   1.00
C9     C     0.47577   0.29058   0.96615   0.00000  Uiso   1.00
C10    C     0.12548   0.17904   0.82740   0.00000  Uiso   1.00
C11    C     0.06487   0.25456   0.75611   0.00000  Uiso   1.00
C12    C     0.01861   0.17319   0.67455   0.00000  Uiso   1.00
C13    C     0.92698   0.09182   0.52860   0.00000  Uiso   1.00
C14    C     0.20879   0.96750   0.90425   0.00000  Uiso   1.00
C15    C     0.20039   0.99138   0.98672   0.00000  Uiso   1.00
C16    C     0.20548   0.87941   0.04750   0.00000  Uiso   1.00
C17    C     0.19614   0.92429   0.11855   0.00000  Uiso   1.00
C18    C     0.26900   0.07455   0.92087   0.00000  Uiso   1.00
C19    C     0.33177   0.03250   0.92627   0.00000  Uiso   1.00
C20    C     0.38018   0.14738   0.94187   0.00000  Uiso   1.00
C21    C     0.13942   0.02761   0.81757   0.00000  Uiso   1.00
C22    C     0.09325   0.94611   0.73610   0.00000  Uiso   1.00
C23    C     0.03257   0.02150   0.66471   0.00000  Uiso   1.00
H24    H     0.17229   0.36417   0.93000   0.00000  Uiso   1.00
H25    H     0.16632   0.30506   0.07511   0.00000  Uiso   1.00
H26    H     0.29258   0.45812   0.95388   0.00000  Uiso   1.00
H27    H     0.05410   0.37174   0.76374   0.00000  Uiso   1.00
H28    H     0.16587   0.17274   0.23167   0.00000  Uiso   1.00
H29    H     0.43209   0.49549   0.97603   0.00000  Uiso   1.00
H30    H     0.92921   0.31335   0.57508   0.00000  Uiso   1.00
H31    H     0.21964   0.84961   0.89660   0.00000  Uiso   1.00
H32    H     0.21627   0.76224   0.03988   0.00000  Uiso   1.00
H33    H     0.34254   0.91531   0.91865   0.00000  Uiso   1.00
H34    H     0.10405   0.82894   0.72852   0.00000  Uiso   1.00
H35    H     0.20642   0.73218   0.20309   0.00000  Uiso   1.00
H36    H     0.47264   0.05493   0.94744   0.00000  Uiso   1.00
H37    H     0.96975   0.87279   0.54650   0.00000  Uiso   1.00
O38    O     0.18310   0.90428   0.31225   0.00000  Uiso   1.00
O39    O     0.53236   0.32772   0.97684   0.00000  Uiso   1.00
O40    O     0.87258   0.08876   0.45082   0.00000  Uiso   1.00
N41    N     0.17586   0.08104   0.20527   0.00000  Uiso   1.00
N42    N     0.42477   0.38279   0.96627   0.00000  Uiso   1.00
N43    N     0.95462   0.21252   0.59141   0.00000  Uiso   1.00
N44    N     0.19768   0.84397   0.18989   0.00000  Uiso   1.00
N45    N     0.44659   0.14572   0.95089   0.00000  Uiso   1.00
N46    N     0.97644   0.97545   0.57603   0.00000  Uiso   1.00
C47    C     0.81687   0.74628   0.57765   0.00000  Uiso   1.00
C48    C     0.81355   0.64280   0.50345   0.00000  Uiso   1.00
C49    C     0.82290   0.68785   0.43248   0.00000  Uiso   1.00
C50    C     0.81782   0.57599   0.37161   0.00000  Uiso   1.00
C51    C     0.81475   0.43836   0.25486   0.00000  Uiso   1.00
C52    C     0.74494   0.72597   0.56930   0.00000  Uiso   1.00
C53    C     0.69662   0.84095   0.55371   0.00000  Uiso   1.00
C54    C     0.63378   0.79908   0.54829   0.00000  Uiso   1.00
C55    C     0.52423   0.79058   0.53385   0.00000  Uiso   1.00
C56    C     0.87452   0.67904   0.67260   0.00000  Uiso   1.00
C57    C     0.93513   0.75456   0.74389   0.00000  Uiso   1.00
C58    C     0.98139   0.67319   0.82545   0.00000  Uiso   1.00
C59    C     0.07302   0.59182   0.97140   0.00000  Uiso   1.00
C60    C     0.79121   0.46750   0.59575   0.00000  Uiso   1.00
C61    C     0.79961   0.49138   0.51328   0.00000  Uiso   1.00
C62    C     0.79452   0.37941   0.45250   0.00000  Uiso   1.00
C63    C     0.80386   0.42429   0.38145   0.00000  Uiso   1.00
C64    C     0.73100   0.57455   0.57913   0.00000  Uiso   1.00
C65    C     0.66823   0.53250   0.57373   0.00000  Uiso   1.00
C66    C     0.61982   0.64738   0.55813   0.00000  Uiso   1.00
C67    C     0.86058   0.52761   0.68243   0.00000  Uiso   1.00
C68    C     0.90675   0.44611   0.76390   0.00000  Uiso   1.00
C69    C     0.96743   0.52150   0.83529   0.00000  Uiso   1.00
H70    H     0.82771   0.86417   0.57000   0.00000  Uiso   1.00
H71    H     0.83368   0.80506   0.42489   0.00000  Uiso   1.00
H72    H     0.70742   0.95812   0.54612   0.00000  Uiso   1.00
H73    H     0.94590   0.87174   0.73626   0.00000  Uiso   1.00
H74    H     0.83413   0.67274   0.26833   0.00000  Uiso   1.00
H75    H     0.56791   0.99549   0.52397   0.00000  Uiso   1.00
H76    H     0.07079   0.81335   0.92492   0.00000  Uiso   1.00
H77    H     0.78036   0.34961   0.60340   0.00000  Uiso   1.00
H78    H     0.78373   0.26224   0.46012   0.00000  Uiso   1.00
H79    H     0.65746   0.41531   0.58135   0.00000  Uiso   1.00
H80    H     0.89595   0.32894   0.77148   0.00000  Uiso   1.00
H81    H     0.79358   0.23218   0.29691   0.00000  Uiso   1.00
H82    H     0.52736   0.55493   0.55256   0.00000  Uiso   1.00
H83    H     0.03025   0.37279   0.95350   0.00000  Uiso   1.00
O84    O     0.81690   0.40428   0.18775   0.00000  Uiso   1.00
O85    O     0.46764   0.82772   0.52316   0.00000  Uiso   1.00
O86    O     0.12742   0.58876   0.04918   0.00000  Uiso   1.00
N87    N     0.82414   0.58104   0.29473   0.00000  Uiso   1.00
N88    N     0.57523   0.88279   0.53373   0.00000  Uiso   1.00
N89    N     0.04538   0.71252   0.90859   0.00000  Uiso   1.00
N90    N     0.80232   0.34397   0.31011   0.00000  Uiso   1.00
N91    N     0.55341   0.64572   0.54911   0.00000  Uiso   1.00
N92    N     0.02356   0.47545   0.92397   0.00000  Uiso   1.00
C93    C     0.81687   0.75372   0.07765   0.00000  Uiso   1.00
C94    C     0.81355   0.85720   0.00345   0.00000  Uiso   1.00
C95    C     0.82290   0.81215   0.93248   0.00000  Uiso   1.00
C96    C     0.81782   0.92401   0.87161   0.00000  Uiso   1.00
C97    C     0.81475   0.06164   0.75486   0.00000  Uiso   1.00
C98    C     0.74494   0.77403   0.06930   0.00000  Uiso   1.00
C99    C     0.69662   0.65905   0.05371   0.00000  Uiso   1.00
C100   C     0.63378   0.70092   0.04829   0.00000  Uiso   1.00
C101   C     0.52423   0.70942   0.03385   0.00000  Uiso   1.00
C102   C     0.87452   0.82096   0.17260   0.00000  Uiso   1.00
C103   C     0.93513   0.74544   0.24389   0.00000  Uiso   1.00
C104   C     0.98139   0.82681   0.32545   0.00000  Uiso   1.00
C105   C     0.07302   0.90818   0.47140   0.00000  Uiso   1.00
C106   C     0.79121   0.03250   0.09575   0.00000  Uiso   1.00
C107   C     0.79961   0.00862   0.01328   0.00000  Uiso   1.00
C108   C     0.79452   0.12059   0.95250   0.00000  Uiso   1.00
C109   C     0.80386   0.07571   0.88145   0.00000  Uiso   1.00
C110   C     0.73100   0.92545   0.07913   0.00000  Uiso   1.00
C111   C     0.66823   0.96750   0.07373   0.00000  Uiso   1.00
C112   C     0.61982   0.85262   0.05813   0.00000  Uiso   1.00
C113   C     0.86058   0.97239   0.18243   0.00000  Uiso   1.00
C114   C     0.90675   0.05389   0.26390   0.00000  Uiso   1.00
C115   C     0.96743   0.97850   0.33529   0.00000  Uiso   1.00
H116   H     0.82771   0.63583   0.07000   0.00000  Uiso   1.00
H117   H     0.83368   0.69494   0.92489   0.00000  Uiso   1.00
H118   H     0.70742   0.54188   0.04612   0.00000  Uiso   1.00
H119   H     0.94590   0.62826   0.23626   0.00000  Uiso   1.00
H120   H     0.83413   0.82726   0.76833   0.00000  Uiso   1.00
H121   H     0.56791   0.50451   0.02397   0.00000  Uiso   1.00
H122   H     0.07079   0.68665   0.42492   0.00000  Uiso   1.00
H123   H     0.78036   0.15039   0.10340   0.00000  Uiso   1.00
H124   H     0.78373   0.23776   0.96012   0.00000  Uiso   1.00
H125   H     0.65746   0.08469   0.08135   0.00000  Uiso   1.00
H126   H     0.89595   0.17106   0.27148   0.00000  Uiso   1.00
H127   H     0.79358   0.26782   0.79691   0.00000  Uiso   1.00
H128   H     0.52736   0.94507   0.05256   0.00000  Uiso   1.00
H129   H     0.03025   0.12721   0.45350   0.00000  Uiso   1.00
O130   O     0.81690   0.09572   0.68775   0.00000  Uiso   1.00
O131   O     0.46764   0.67228   0.02316   0.00000  Uiso   1.00
O132   O     0.12742   0.91124   0.54918   0.00000  Uiso   1.00
N133   N     0.82414   0.91896   0.79473   0.00000  Uiso   1.00
N134   N     0.57523   0.61721   0.03373   0.00000  Uiso   1.00
N135   N     0.04538   0.78748   0.40859   0.00000  Uiso   1.00
N136   N     0.80232   0.15603   0.81011   0.00000  Uiso   1.00
N137   N     0.55341   0.85428   0.04911   0.00000  Uiso   1.00
N138   N     0.02356   0.02455   0.42397   0.00000  Uiso   1.00
C139   C     0.18313   0.25372   0.42235   0.00000  Uiso   1.00
C140   C     0.18645   0.35720   0.49655   0.00000  Uiso   1.00
C141   C     0.17710   0.31215   0.56752   0.00000  Uiso   1.00
C142   C     0.18218   0.42401   0.62839   0.00000  Uiso   1.00
C143   C     0.18525   0.56164   0.74514   0.00000  Uiso   1.00
C144   C     0.25506   0.27403   0.43070   0.00000  Uiso   1.00
C145   C     0.30338   0.15905   0.44629   0.00000  Uiso   1.00
C146   C     0.36622   0.20092   0.45171   0.00000  Uiso   1.00
C147   C     0.47577   0.20942   0.46615   0.00000  Uiso   1.00
C148   C     0.12548   0.32096   0.32740   0.00000  Uiso   1.00
C149   C     0.06487   0.24544   0.25611   0.00000  Uiso   1.00
C150   C     0.01861   0.32681   0.17455   0.00000  Uiso   1.00
C151   C     0.92698   0.40818   0.02860   0.00000  Uiso   1.00
C152   C     0.20879   0.53250   0.40425   0.00000  Uiso   1.00
C153   C     0.20039   0.50862   0.48672   0.00000  Uiso   1.00
C154   C     0.20548   0.62059   0.54750   0.00000  Uiso   1.00
C155   C     0.19614   0.57571   0.61855   0.00000  Uiso   1.00
C156   C     0.26900   0.42545   0.42087   0.00000  Uiso   1.00
C157   C     0.33177   0.46750   0.42627   0.00000  Uiso   1.00
C158   C     0.38018   0.35262   0.44187   0.00000  Uiso   1.00
C159   C     0.13942   0.47239   0.31757   0.00000  Uiso   1.00
C160   C     0.09325   0.55389   0.23610   0.00000  Uiso   1.00
C161   C     0.03257   0.47850   0.16471   0.00000  Uiso   1.00
H162   H     0.17229   0.13583   0.43000   0.00000  Uiso   1.00
H163   H     0.16632   0.19494   0.57511   0.00000  Uiso   1.00
H164   H     0.29258   0.04188   0.45388   0.00000  Uiso   1.00
H165   H     0.05410   0.12826   0.26374   0.00000  Uiso   1.00
H166   H     0.16587   0.32726   0.73167   0.00000  Uiso   1.00
H167   H     0.43209   0.00451   0.47603   0.00000  Uiso   1.00
H168   H     0.92921   0.18665   0.07508   0.00000  Uiso   1.00
H169   H     0.21964   0.65039   0.39660   0.00000  Uiso   1.00
H170   H     0.21627   0.73776   0.53988   0.00000  Uiso   1.00
H171   H     0.34254   0.58469   0.41865   0.00000  Uiso   1.00
H172   H     0.10405   0.67106   0.22852   0.00000  Uiso   1.00
H173   H     0.20642   0.76782   0.70309   0.00000  Uiso   1.00
H174   H     0.47264   0.44507   0.44744   0.00000  Uiso   1.00
H175   H     0.96975   0.62721   0.04650   0.00000  Uiso   1.00
O176   O     0.18310   0.59572   0.81225   0.00000  Uiso   1.00
O177   O     0.53236   0.17228   0.47684   0.00000  Uiso   1.00
O178   O     0.87258   0.41124   0.95082   0.00000  Uiso   1.00
N179   N     0.17586   0.41896   0.70527   0.00000  Uiso   1.00
N180   N     0.42477   0.11721   0.46627   0.00000  Uiso   1.00
N181   N     0.95462   0.28748   0.09141   0.00000  Uiso   1.00
N182   N     0.19768   0.65603   0.68989   0.00000  Uiso   1.00
N183   N     0.44659   0.35428   0.45089   0.00000  Uiso   1.00
N184   N     0.97644   0.52455   0.07603   0.00000  Uiso   1.00
