data_job_02855
_audit_creation_date              2018-12-19
_audit_creation_method            'Materials Studio'
_symmetry_space_group_name_H-M    'P1'
_symmetry_Int_Tables_number       1
_symmetry_cell_setting            triclinic
loop_
_symmetry_equiv_pos_as_xyz
  x,y,z
_cell_length_a                    47.8893
_cell_length_b                    7.5678
_cell_length_c                    39.8841
_cell_angle_alpha                 90.0000
_cell_angle_beta                  139.6618
_cell_angle_gamma                 90.0000
loop_
_atom_site_label
_atom_site_type_symbol
_atom_site_fract_x
_atom_site_fract_y
_atom_site_fract_z
_atom_site_U_iso_or_equiv
_atom_site_adp_type
_atom_site_occupancy
C1     C     0.44050   0.54200   0.60260   0.00000  Uiso   1.00
C2     C     0.40913   0.66774   0.59115   0.00000  Uiso   1.00
C3     C     0.36763   0.62604   0.56356   0.00000  Uiso   1.00
C4     C     0.34405   0.75954   0.55728   0.00000  Uiso   1.00
C5     C     0.29269   0.92910   0.53635   0.00000  Uiso   1.00
C6     C     0.45312   0.63100   0.58128   0.00000  Uiso   1.00
C7     C     0.44862   0.55840   0.54540   0.00000  Uiso   1.00
C8     C     0.46209   0.66098   0.53082   0.00000  Uiso   1.00
C9     C     0.47906   0.77344   0.49460   0.00000  Uiso   1.00
C10    C     0.48112   0.54055   0.66134   0.00000  Uiso   1.00
C11    C     0.50016   0.39189   0.69277   0.00000  Uiso   1.00
C12    C     0.53720   0.41831   0.74559   0.00000  Uiso   1.00
C13    C     0.59764   0.39034   0.83367   0.00000  Uiso   1.00
C14    C     0.47242   0.85325   0.64051   0.00000  Uiso   1.00
C15    C     0.42646   0.83680   0.61174   0.00000  Uiso   1.00
C16    C     0.40294   0.97040   0.60551   0.00000  Uiso   1.00
C17    C     0.36142   0.92891   0.57791   0.00000  Uiso   1.00
C18    C     0.47046   0.80006   0.60187   0.00000  Uiso   1.00
C19    C     0.48393   0.90276   0.58735   0.00000  Uiso   1.00
C20    C     0.47945   0.83034   0.55145   0.00000  Uiso   1.00
C21    C     0.49845   0.70961   0.68193   0.00000  Uiso   1.00
C22    C     0.53547   0.73626   0.73471   0.00000  Uiso   1.00
C23    C     0.55457   0.58768   0.76622   0.00000  Uiso   1.00
H24    H     0.42701   0.41038   0.58656   0.00000  Uiso   1.00
H25    H     0.35423   0.49519   0.54762   0.00000  Uiso   1.00
H26    H     0.43521   0.42756   0.52948   0.00000  Uiso   1.00
H27    H     0.48674   0.26109   0.67682   0.00000  Uiso   1.00
H28    H     0.28118   0.66380   0.51352   0.00000  Uiso   1.00
H29    H     0.45195   0.52117   0.47526   0.00000  Uiso   1.00
H30    H     0.56061   0.17012   0.78597   0.00000  Uiso   1.00
H31    H     0.48591   0.98487   0.65654   0.00000  Uiso   1.00
H32    H     0.41636   0.10122   0.62145   0.00000  Uiso   1.00
H33    H     0.49735   0.03358   0.60330   0.00000  Uiso   1.00
H34    H     0.54888   0.86711   0.75064   0.00000  Uiso   1.00
H35    H     0.33161   0.15568   0.57343   0.00000  Uiso   1.00
H36    H     0.50239   0.01303   0.53518   0.00000  Uiso   1.00
H37    H     0.61104   0.66200   0.84588   0.00000  Uiso   1.00
O38    O     0.25958   0.97592   0.51911   0.00000  Uiso   1.00
O39    O     0.48363   0.78877   0.46893   0.00000  Uiso   1.00
O40    O     0.62619   0.32822   0.87656   0.00000  Uiso   1.00
N41    N     0.30259   0.76359   0.53245   0.00000  Uiso   1.00
N42    N     0.46225   0.63024   0.49667   0.00000  Uiso   1.00
N43    N     0.56384   0.30204   0.78715   0.00000  Uiso   1.00
N44    N     0.32973   0.02826   0.56469   0.00000  Uiso   1.00
N45    N     0.48939   0.89491   0.52891   0.00000  Uiso   1.00
N46    N     0.59098   0.56671   0.81939   0.00000  Uiso   1.00
C47    C     0.94050   0.04200   0.60260   0.00000  Uiso   1.00
C48    C     0.90913   0.16774   0.59115   0.00000  Uiso   1.00
C49    C     0.86763   0.12604   0.56356   0.00000  Uiso   1.00
C50    C     0.84405   0.25954   0.55728   0.00000  Uiso   1.00
C51    C     0.79269   0.42910   0.53635   0.00000  Uiso   1.00
C52    C     0.95312   0.13100   0.58128   0.00000  Uiso   1.00
C53    C     0.94862   0.05840   0.54540   0.00000  Uiso   1.00
C54    C     0.96209   0.16098   0.53082   0.00000  Uiso   1.00
C55    C     0.97906   0.27344   0.49460   0.00000  Uiso   1.00
C56    C     0.98112   0.04055   0.66134   0.00000  Uiso   1.00
C57    C     0.00016   0.89189   0.69277   0.00000  Uiso   1.00
C58    C     0.03720   0.91831   0.74559   0.00000  Uiso   1.00
C59    C     0.09764   0.89034   0.83367   0.00000  Uiso   1.00
C60    C     0.97242   0.35325   0.64051   0.00000  Uiso   1.00
C61    C     0.92646   0.33680   0.61174   0.00000  Uiso   1.00
C62    C     0.90294   0.47040   0.60551   0.00000  Uiso   1.00
C63    C     0.86142   0.42891   0.57791   0.00000  Uiso   1.00
C64    C     0.97046   0.30006   0.60187   0.00000  Uiso   1.00
C65    C     0.98393   0.40276   0.58735   0.00000  Uiso   1.00
C66    C     0.97945   0.33034   0.55145   0.00000  Uiso   1.00
C67    C     0.99845   0.20961   0.68193   0.00000  Uiso   1.00
C68    C     0.03547   0.23626   0.73471   0.00000  Uiso   1.00
C69    C     0.05457   0.08768   0.76622   0.00000  Uiso   1.00
H70    H     0.92701   0.91038   0.58656   0.00000  Uiso   1.00
H71    H     0.85423   0.99519   0.54762   0.00000  Uiso   1.00
H72    H     0.93521   0.92756   0.52948   0.00000  Uiso   1.00
H73    H     0.98674   0.76109   0.67682   0.00000  Uiso   1.00
H74    H     0.78118   0.16380   0.51352   0.00000  Uiso   1.00
H75    H     0.95195   0.02117   0.47526   0.00000  Uiso   1.00
H76    H     0.06061   0.67012   0.78597   0.00000  Uiso   1.00
H77    H     0.98591   0.48487   0.65654   0.00000  Uiso   1.00
H78    H     0.91636   0.60122   0.62145   0.00000  Uiso   1.00
H79    H     0.99735   0.53358   0.60330   0.00000  Uiso   1.00
H80    H     0.04888   0.36711   0.75064   0.00000  Uiso   1.00
H81    H     0.83161   0.65568   0.57343   0.00000  Uiso   1.00
H82    H     0.00239   0.51303   0.53518   0.00000  Uiso   1.00
H83    H     0.11104   0.16200   0.84588   0.00000  Uiso   1.00
O84    O     0.75958   0.47592   0.51911   0.00000  Uiso   1.00
O85    O     0.98363   0.28877   0.46893   0.00000  Uiso   1.00
O86    O     0.12619   0.82822   0.87656   0.00000  Uiso   1.00
N87    N     0.80259   0.26359   0.53245   0.00000  Uiso   1.00
N88    N     0.96225   0.13024   0.49667   0.00000  Uiso   1.00
N89    N     0.06384   0.80204   0.78715   0.00000  Uiso   1.00
N90    N     0.82973   0.52826   0.56469   0.00000  Uiso   1.00
N91    N     0.98939   0.39491   0.52891   0.00000  Uiso   1.00
N92    N     0.09098   0.06671   0.81939   0.00000  Uiso   1.00
C93    C     0.55950   0.54200   0.89740   0.00000  Uiso   1.00
C94    C     0.59087   0.66774   0.90885   0.00000  Uiso   1.00
C95    C     0.63237   0.62604   0.93644   0.00000  Uiso   1.00
C96    C     0.65595   0.75954   0.94272   0.00000  Uiso   1.00
C97    C     0.70731   0.92910   0.96365   0.00000  Uiso   1.00
C98    C     0.54688   0.63100   0.91872   0.00000  Uiso   1.00
C99    C     0.55138   0.55840   0.95460   0.00000  Uiso   1.00
C100   C     0.53791   0.66098   0.96918   0.00000  Uiso   1.00
C101   C     0.52094   0.77344   0.00540   0.00000  Uiso   1.00
C102   C     0.51888   0.54055   0.83866   0.00000  Uiso   1.00
C103   C     0.49984   0.39189   0.80723   0.00000  Uiso   1.00
C104   C     0.46280   0.41831   0.75441   0.00000  Uiso   1.00
C105   C     0.40236   0.39034   0.66633   0.00000  Uiso   1.00
C106   C     0.52758   0.85325   0.85949   0.00000  Uiso   1.00
C107   C     0.57354   0.83680   0.88826   0.00000  Uiso   1.00
C108   C     0.59706   0.97040   0.89449   0.00000  Uiso   1.00
C109   C     0.63858   0.92891   0.92209   0.00000  Uiso   1.00
C110   C     0.52954   0.80006   0.89813   0.00000  Uiso   1.00
C111   C     0.51607   0.90276   0.91265   0.00000  Uiso   1.00
C112   C     0.52055   0.83034   0.94855   0.00000  Uiso   1.00
C113   C     0.50155   0.70961   0.81807   0.00000  Uiso   1.00
C114   C     0.46453   0.73626   0.76529   0.00000  Uiso   1.00
C115   C     0.44543   0.58768   0.73378   0.00000  Uiso   1.00
H116   H     0.57299   0.41038   0.91344   0.00000  Uiso   1.00
H117   H     0.64577   0.49519   0.95238   0.00000  Uiso   1.00
H118   H     0.56479   0.42756   0.97052   0.00000  Uiso   1.00
H119   H     0.51326   0.26109   0.82318   0.00000  Uiso   1.00
H120   H     0.71882   0.66380   0.98648   0.00000  Uiso   1.00
H121   H     0.54805   0.52117   0.02474   0.00000  Uiso   1.00
H122   H     0.43939   0.17012   0.71403   0.00000  Uiso   1.00
H123   H     0.51409   0.98487   0.84346   0.00000  Uiso   1.00
H124   H     0.58364   0.10122   0.87855   0.00000  Uiso   1.00
H125   H     0.50265   0.03358   0.89670   0.00000  Uiso   1.00
H126   H     0.45112   0.86711   0.74936   0.00000  Uiso   1.00
H127   H     0.66839   0.15568   0.92657   0.00000  Uiso   1.00
H128   H     0.49761   0.01303   0.96482   0.00000  Uiso   1.00
H129   H     0.38896   0.66200   0.65412   0.00000  Uiso   1.00
O130   O     0.74042   0.97592   0.98089   0.00000  Uiso   1.00
O131   O     0.51637   0.78877   0.03107   0.00000  Uiso   1.00
O132   O     0.37381   0.32822   0.62344   0.00000  Uiso   1.00
N133   N     0.69741   0.76359   0.96755   0.00000  Uiso   1.00
N134   N     0.53775   0.63024   0.00333   0.00000  Uiso   1.00
N135   N     0.43616   0.30204   0.71285   0.00000  Uiso   1.00
N136   N     0.67027   0.02826   0.93531   0.00000  Uiso   1.00
N137   N     0.51061   0.89491   0.97109   0.00000  Uiso   1.00
N138   N     0.40902   0.56671   0.68061   0.00000  Uiso   1.00
C139   C     0.05950   0.04200   0.89740   0.00000  Uiso   1.00
C140   C     0.09087   0.16774   0.90885   0.00000  Uiso   1.00
C141   C     0.13237   0.12604   0.93644   0.00000  Uiso   1.00
C142   C     0.15595   0.25954   0.94272   0.00000  Uiso   1.00
C143   C     0.20731   0.42910   0.96365   0.00000  Uiso   1.00
C144   C     0.04688   0.13100   0.91872   0.00000  Uiso   1.00
C145   C     0.05138   0.05840   0.95460   0.00000  Uiso   1.00
C146   C     0.03791   0.16098   0.96918   0.00000  Uiso   1.00
C147   C     0.02094   0.27344   0.00540   0.00000  Uiso   1.00
C148   C     0.01888   0.04055   0.83866   0.00000  Uiso   1.00
C149   C     0.99984   0.89189   0.80723   0.00000  Uiso   1.00
C150   C     0.96280   0.91831   0.75441   0.00000  Uiso   1.00
C151   C     0.90236   0.89034   0.66633   0.00000  Uiso   1.00
C152   C     0.02758   0.35325   0.85949   0.00000  Uiso   1.00
C153   C     0.07354   0.33680   0.88826   0.00000  Uiso   1.00
C154   C     0.09706   0.47040   0.89449   0.00000  Uiso   1.00
C155   C     0.13858   0.42891   0.92209   0.00000  Uiso   1.00
C156   C     0.02954   0.30006   0.89813   0.00000  Uiso   1.00
C157   C     0.01607   0.40276   0.91265   0.00000  Uiso   1.00
C158   C     0.02055   0.33034   0.94855   0.00000  Uiso   1.00
C159   C     0.00155   0.20961   0.81807   0.00000  Uiso   1.00
C160   C     0.96453   0.23626   0.76529   0.00000  Uiso   1.00
C161   C     0.94543   0.08768   0.73378   0.00000  Uiso   1.00
H162   H     0.07299   0.91038   0.91344   0.00000  Uiso   1.00
H163   H     0.14577   0.99519   0.95238   0.00000  Uiso   1.00
H164   H     0.06479   0.92756   0.97052   0.00000  Uiso   1.00
H165   H     0.01326   0.76109   0.82318   0.00000  Uiso   1.00
H166   H     0.21882   0.16380   0.98648   0.00000  Uiso   1.00
H167   H     0.04805   0.02117   0.02474   0.00000  Uiso   1.00
H168   H     0.93939   0.67012   0.71403   0.00000  Uiso   1.00
H169   H     0.01409   0.48487   0.84346   0.00000  Uiso   1.00
H170   H     0.08364   0.60122   0.87855   0.00000  Uiso   1.00
H171   H     0.00265   0.53358   0.89670   0.00000  Uiso   1.00
H172   H     0.95112   0.36711   0.74936   0.00000  Uiso   1.00
H173   H     0.16839   0.65568   0.92657   0.00000  Uiso   1.00
H174   H     0.99761   0.51303   0.96482   0.00000  Uiso   1.00
H175   H     0.88896   0.16200   0.65412   0.00000  Uiso   1.00
O176   O     0.24042   0.47592   0.98089   0.00000  Uiso   1.00
O177   O     0.01637   0.28877   0.03107   0.00000  Uiso   1.00
O178   O     0.87381   0.82822   0.62344   0.00000  Uiso   1.00
N179   N     0.19741   0.26359   0.96755   0.00000  Uiso   1.00
N180   N     0.03775   0.13024   0.00333   0.00000  Uiso   1.00
N181   N     0.93616   0.80204   0.71285   0.00000  Uiso   1.00
N182   N     0.17027   0.52826   0.93531   0.00000  Uiso   1.00
N183   N     0.01061   0.39491   0.97109   0.00000  Uiso   1.00
N184   N     0.90902   0.06671   0.68061   0.00000  Uiso   1.00
C185   C     0.55950   0.45800   0.39740   0.00000  Uiso   1.00
C186   C     0.59087   0.33226   0.40885   0.00000  Uiso   1.00
C187   C     0.63237   0.37396   0.43644   0.00000  Uiso   1.00
C188   C     0.65595   0.24046   0.44272   0.00000  Uiso   1.00
C189   C     0.70731   0.07090   0.46365   0.00000  Uiso   1.00
C190   C     0.54688   0.36900   0.41872   0.00000  Uiso   1.00
C191   C     0.55138   0.44160   0.45460   0.00000  Uiso   1.00
C192   C     0.53791   0.33902   0.46918   0.00000  Uiso   1.00
C193   C     0.52094   0.22656   0.50540   0.00000  Uiso   1.00
C194   C     0.51888   0.45945   0.33866   0.00000  Uiso   1.00
C195   C     0.49984   0.60811   0.30723   0.00000  Uiso   1.00
C196   C     0.46280   0.58169   0.25441   0.00000  Uiso   1.00
C197   C     0.40236   0.60966   0.16633   0.00000  Uiso   1.00
C198   C     0.52758   0.14675   0.35949   0.00000  Uiso   1.00
C199   C     0.57354   0.16320   0.38826   0.00000  Uiso   1.00
C200   C     0.59706   0.02960   0.39449   0.00000  Uiso   1.00
C201   C     0.63858   0.07109   0.42209   0.00000  Uiso   1.00
C202   C     0.52954   0.19994   0.39813   0.00000  Uiso   1.00
C203   C     0.51607   0.09724   0.41265   0.00000  Uiso   1.00
C204   C     0.52055   0.16966   0.44855   0.00000  Uiso   1.00
C205   C     0.50155   0.29039   0.31807   0.00000  Uiso   1.00
C206   C     0.46453   0.26374   0.26529   0.00000  Uiso   1.00
C207   C     0.44543   0.41232   0.23378   0.00000  Uiso   1.00
H208   H     0.57299   0.58962   0.41344   0.00000  Uiso   1.00
H209   H     0.64577   0.50481   0.45238   0.00000  Uiso   1.00
H210   H     0.56479   0.57244   0.47052   0.00000  Uiso   1.00
H211   H     0.51326   0.73891   0.32318   0.00000  Uiso   1.00
H212   H     0.71882   0.33620   0.48648   0.00000  Uiso   1.00
H213   H     0.54805   0.47883   0.52474   0.00000  Uiso   1.00
H214   H     0.43939   0.82988   0.21403   0.00000  Uiso   1.00
H215   H     0.51409   0.01513   0.34346   0.00000  Uiso   1.00
H216   H     0.58364   0.89878   0.37855   0.00000  Uiso   1.00
H217   H     0.50265   0.96642   0.39670   0.00000  Uiso   1.00
H218   H     0.45112   0.13289   0.24936   0.00000  Uiso   1.00
H219   H     0.66839   0.84432   0.42657   0.00000  Uiso   1.00
H220   H     0.49761   0.98697   0.46482   0.00000  Uiso   1.00
H221   H     0.38896   0.33800   0.15412   0.00000  Uiso   1.00
O222   O     0.74042   0.02408   0.48089   0.00000  Uiso   1.00
O223   O     0.51637   0.21123   0.53107   0.00000  Uiso   1.00
O224   O     0.37381   0.67178   0.12344   0.00000  Uiso   1.00
N225   N     0.69741   0.23641   0.46755   0.00000  Uiso   1.00
N226   N     0.53775   0.36976   0.50333   0.00000  Uiso   1.00
N227   N     0.43616   0.69796   0.21285   0.00000  Uiso   1.00
N228   N     0.67027   0.97174   0.43531   0.00000  Uiso   1.00
N229   N     0.51061   0.10509   0.47109   0.00000  Uiso   1.00
N230   N     0.40902   0.43329   0.18061   0.00000  Uiso   1.00
C231   C     0.05950   0.95800   0.39740   0.00000  Uiso   1.00
C232   C     0.09087   0.83226   0.40885   0.00000  Uiso   1.00
C233   C     0.13237   0.87396   0.43644   0.00000  Uiso   1.00
C234   C     0.15595   0.74046   0.44272   0.00000  Uiso   1.00
C235   C     0.20731   0.57090   0.46365   0.00000  Uiso   1.00
C236   C     0.04688   0.86900   0.41872   0.00000  Uiso   1.00
C237   C     0.05138   0.94160   0.45460   0.00000  Uiso   1.00
C238   C     0.03791   0.83902   0.46918   0.00000  Uiso   1.00
C239   C     0.02094   0.72656   0.50540   0.00000  Uiso   1.00
C240   C     0.01888   0.95945   0.33866   0.00000  Uiso   1.00
C241   C     0.99984   0.10811   0.30723   0.00000  Uiso   1.00
C242   C     0.96280   0.08169   0.25441   0.00000  Uiso   1.00
C243   C     0.90236   0.10966   0.16633   0.00000  Uiso   1.00
C244   C     0.02758   0.64675   0.35949   0.00000  Uiso   1.00
C245   C     0.07354   0.66320   0.38826   0.00000  Uiso   1.00
C246   C     0.09706   0.52960   0.39449   0.00000  Uiso   1.00
C247   C     0.13858   0.57109   0.42209   0.00000  Uiso   1.00
C248   C     0.02954   0.69994   0.39813   0.00000  Uiso   1.00
C249   C     0.01607   0.59724   0.41265   0.00000  Uiso   1.00
C250   C     0.02055   0.66966   0.44855   0.00000  Uiso   1.00
C251   C     0.00155   0.79039   0.31807   0.00000  Uiso   1.00
C252   C     0.96453   0.76374   0.26529   0.00000  Uiso   1.00
C253   C     0.94543   0.91232   0.23378   0.00000  Uiso   1.00
H254   H     0.07299   0.08962   0.41344   0.00000  Uiso   1.00
H255   H     0.14577   0.00481   0.45238   0.00000  Uiso   1.00
H256   H     0.06479   0.07244   0.47052   0.00000  Uiso   1.00
H257   H     0.01326   0.23891   0.32318   0.00000  Uiso   1.00
H258   H     0.21882   0.83620   0.48648   0.00000  Uiso   1.00
H259   H     0.04805   0.97883   0.52474   0.00000  Uiso   1.00
H260   H     0.93939   0.32988   0.21403   0.00000  Uiso   1.00
H261   H     0.01409   0.51513   0.34346   0.00000  Uiso   1.00
H262   H     0.08364   0.39878   0.37855   0.00000  Uiso   1.00
H263   H     0.00265   0.46642   0.39670   0.00000  Uiso   1.00
H264   H     0.95112   0.63289   0.24936   0.00000  Uiso   1.00
H265   H     0.16839   0.34432   0.42657   0.00000  Uiso   1.00
H266   H     0.99761   0.48697   0.46482   0.00000  Uiso   1.00
H267   H     0.88896   0.83800   0.15412   0.00000  Uiso   1.00
O268   O     0.24042   0.52408   0.48089   0.00000  Uiso   1.00
O269   O     0.01637   0.71123   0.53107   0.00000  Uiso   1.00
O270   O     0.87381   0.17178   0.12344   0.00000  Uiso   1.00
N271   N     0.19741   0.73641   0.46755   0.00000  Uiso   1.00
N272   N     0.03775   0.86976   0.50333   0.00000  Uiso   1.00
N273   N     0.93616   0.19796   0.21285   0.00000  Uiso   1.00
N274   N     0.17027   0.47174   0.43531   0.00000  Uiso   1.00
N275   N     0.01061   0.60509   0.47109   0.00000  Uiso   1.00
N276   N     0.90902   0.93329   0.18061   0.00000  Uiso   1.00
C277   C     0.44050   0.45800   0.10260   0.00000  Uiso   1.00
C278   C     0.40913   0.33226   0.09115   0.00000  Uiso   1.00
C279   C     0.36763   0.37396   0.06356   0.00000  Uiso   1.00
C280   C     0.34405   0.24046   0.05728   0.00000  Uiso   1.00
C281   C     0.29269   0.07090   0.03635   0.00000  Uiso   1.00
C282   C     0.45312   0.36900   0.08128   0.00000  Uiso   1.00
C283   C     0.44862   0.44160   0.04540   0.00000  Uiso   1.00
C284   C     0.46209   0.33902   0.03082   0.00000  Uiso   1.00
C285   C     0.47906   0.22656   0.99460   0.00000  Uiso   1.00
C286   C     0.48112   0.45945   0.16134   0.00000  Uiso   1.00
C287   C     0.50016   0.60811   0.19277   0.00000  Uiso   1.00
C288   C     0.53720   0.58169   0.24559   0.00000  Uiso   1.00
C289   C     0.59764   0.60966   0.33367   0.00000  Uiso   1.00
C290   C     0.47242   0.14675   0.14051   0.00000  Uiso   1.00
C291   C     0.42646   0.16320   0.11174   0.00000  Uiso   1.00
C292   C     0.40294   0.02960   0.10551   0.00000  Uiso   1.00
C293   C     0.36142   0.07109   0.07791   0.00000  Uiso   1.00
C294   C     0.47046   0.19994   0.10187   0.00000  Uiso   1.00
C295   C     0.48393   0.09724   0.08735   0.00000  Uiso   1.00
C296   C     0.47945   0.16966   0.05145   0.00000  Uiso   1.00
C297   C     0.49845   0.29039   0.18193   0.00000  Uiso   1.00
C298   C     0.53547   0.26374   0.23471   0.00000  Uiso   1.00
C299   C     0.55457   0.41232   0.26622   0.00000  Uiso   1.00
H300   H     0.42701   0.58962   0.08656   0.00000  Uiso   1.00
H301   H     0.35423   0.50481   0.04762   0.00000  Uiso   1.00
H302   H     0.43521   0.57244   0.02948   0.00000  Uiso   1.00
H303   H     0.48674   0.73891   0.17682   0.00000  Uiso   1.00
H304   H     0.28118   0.33620   0.01352   0.00000  Uiso   1.00
H305   H     0.45195   0.47883   0.97526   0.00000  Uiso   1.00
H306   H     0.56061   0.82988   0.28597   0.00000  Uiso   1.00
H307   H     0.48591   0.01513   0.15654   0.00000  Uiso   1.00
H308   H     0.41636   0.89878   0.12145   0.00000  Uiso   1.00
H309   H     0.49735   0.96642   0.10330   0.00000  Uiso   1.00
H310   H     0.54888   0.13289   0.25064   0.00000  Uiso   1.00
H311   H     0.33161   0.84432   0.07343   0.00000  Uiso   1.00
H312   H     0.50239   0.98697   0.03518   0.00000  Uiso   1.00
H313   H     0.61104   0.33800   0.34588   0.00000  Uiso   1.00
O314   O     0.25958   0.02408   0.01911   0.00000  Uiso   1.00
O315   O     0.48363   0.21123   0.96893   0.00000  Uiso   1.00
O316   O     0.62619   0.67178   0.37656   0.00000  Uiso   1.00
N317   N     0.30259   0.23641   0.03245   0.00000  Uiso   1.00
N318   N     0.46225   0.36976   0.99667   0.00000  Uiso   1.00
N319   N     0.56384   0.69796   0.28715   0.00000  Uiso   1.00
N320   N     0.32973   0.97174   0.06469   0.00000  Uiso   1.00
N321   N     0.48939   0.10509   0.02891   0.00000  Uiso   1.00
N322   N     0.59098   0.43329   0.31939   0.00000  Uiso   1.00
C323   C     0.94050   0.95800   0.10260   0.00000  Uiso   1.00
C324   C     0.90913   0.83226   0.09115   0.00000  Uiso   1.00
C325   C     0.86763   0.87396   0.06356   0.00000  Uiso   1.00
C326   C     0.84405   0.74046   0.05728   0.00000  Uiso   1.00
C327   C     0.79269   0.57090   0.03635   0.00000  Uiso   1.00
C328   C     0.95312   0.86900   0.08128   0.00000  Uiso   1.00
C329   C     0.94862   0.94160   0.04540   0.00000  Uiso   1.00
C330   C     0.96209   0.83902   0.03082   0.00000  Uiso   1.00
C331   C     0.97906   0.72656   0.99460   0.00000  Uiso   1.00
C332   C     0.98112   0.95945   0.16134   0.00000  Uiso   1.00
C333   C     0.00016   0.10811   0.19277   0.00000  Uiso   1.00
C334   C     0.03720   0.08169   0.24559   0.00000  Uiso   1.00
C335   C     0.09764   0.10966   0.33367   0.00000  Uiso   1.00
C336   C     0.97242   0.64675   0.14051   0.00000  Uiso   1.00
C337   C     0.92646   0.66320   0.11174   0.00000  Uiso   1.00
C338   C     0.90294   0.52960   0.10551   0.00000  Uiso   1.00
C339   C     0.86142   0.57109   0.07791   0.00000  Uiso   1.00
C340   C     0.97046   0.69994   0.10187   0.00000  Uiso   1.00
C341   C     0.98393   0.59724   0.08735   0.00000  Uiso   1.00
C342   C     0.97945   0.66966   0.05145   0.00000  Uiso   1.00
C343   C     0.99845   0.79039   0.18193   0.00000  Uiso   1.00
C344   C     0.03547   0.76374   0.23471   0.00000  Uiso   1.00
C345   C     0.05457   0.91232   0.26622   0.00000  Uiso   1.00
H346   H     0.92701   0.08962   0.08656   0.00000  Uiso   1.00
H347   H     0.85423   0.00481   0.04762   0.00000  Uiso   1.00
H348   H     0.93521   0.07244   0.02948   0.00000  Uiso   1.00
H349   H     0.98674   0.23891   0.17682   0.00000  Uiso   1.00
H350   H     0.78118   0.83620   0.01352   0.00000  Uiso   1.00
H351   H     0.95195   0.97883   0.97526   0.00000  Uiso   1.00
H352   H     0.06061   0.32988   0.28597   0.00000  Uiso   1.00
H353   H     0.98591   0.51513   0.15654   0.00000  Uiso   1.00
H354   H     0.91636   0.39878   0.12145   0.00000  Uiso   1.00
H355   H     0.99735   0.46642   0.10330   0.00000  Uiso   1.00
H356   H     0.04888   0.63289   0.25064   0.00000  Uiso   1.00
H357   H     0.83161   0.34432   0.07343   0.00000  Uiso   1.00
H358   H     0.00239   0.48697   0.03518   0.00000  Uiso   1.00
H359   H     0.11104   0.83800   0.34588   0.00000  Uiso   1.00
O360   O     0.75958   0.52408   0.01911   0.00000  Uiso   1.00
O361   O     0.98363   0.71123   0.96893   0.00000  Uiso   1.00
O362   O     0.12619   0.17178   0.37656   0.00000  Uiso   1.00
N363   N     0.80259   0.73641   0.03245   0.00000  Uiso   1.00
N364   N     0.96225   0.86976   0.99667   0.00000  Uiso   1.00
N365   N     0.06384   0.19796   0.28715   0.00000  Uiso   1.00
N366   N     0.82973   0.47174   0.06469   0.00000  Uiso   1.00
N367   N     0.98939   0.60509   0.02891   0.00000  Uiso   1.00
N368   N     0.09098   0.93329   0.31939   0.00000  Uiso   1.00
