data_job_03461
_audit_creation_date              2018-12-19
_audit_creation_method            'Materials Studio'
_symmetry_space_group_name_H-M    'P1'
_symmetry_Int_Tables_number       1
_symmetry_cell_setting            triclinic
loop_
_symmetry_equiv_pos_as_xyz
  x,y,z
_cell_length_a                    10.0887
_cell_length_b                    39.2901
_cell_length_c                    7.3111
_cell_angle_alpha                 90.0000
_cell_angle_beta                  90.0000
_cell_angle_gamma                 90.0000
loop_
_atom_site_label
_atom_site_type_symbol
_atom_site_fract_x
_atom_site_fract_y
_atom_site_fract_z
_atom_site_U_iso_or_equiv
_atom_site_adp_type
_atom_site_occupancy
C1     C     0.97996   0.60190   0.48321   0.00000  Uiso   1.00
C2     C     0.89628   0.63140   0.55422   0.00000  Uiso   1.00
C3     C     0.86692   0.66100   0.45889   0.00000  Uiso   1.00
C4     C     0.78880   0.68494   0.54775   0.00000  Uiso   1.00
C5     C     0.66607   0.73158   0.63100   0.00000  Uiso   1.00
C6     C     0.09137   0.59709   0.62177   0.00000  Uiso   1.00
C7     C     0.22604   0.59783   0.58321   0.00000  Uiso   1.00
C8     C     0.31215   0.59288   0.72894   0.00000  Uiso   1.00
C9     C     0.49231   0.58623   0.91703   0.00000  Uiso   1.00
C10    C     0.89295   0.57029   0.49798   0.00000  Uiso   1.00
C11    C     0.86081   0.54849   0.35535   0.00000  Uiso   1.00
C12    C     0.77989   0.52097   0.39686   0.00000  Uiso   1.00
C13    C     0.65197   0.47270   0.39275   0.00000  Uiso   1.00
C14    C     0.89345   0.59178   0.81056   0.00000  Uiso   1.00
C15    C     0.84929   0.62590   0.73203   0.00000  Uiso   1.00
C16    C     0.77120   0.64980   0.82106   0.00000  Uiso   1.00
C17    C     0.74172   0.67943   0.72586   0.00000  Uiso   1.00
C18    C     0.04439   0.59159   0.79957   0.00000  Uiso   1.00
C19    C     0.13032   0.58663   0.94539   0.00000  Uiso   1.00
C20    C     0.26508   0.58737   0.90707   0.00000  Uiso   1.00
C21    C     0.84596   0.56479   0.67578   0.00000  Uiso   1.00
C22    C     0.76509   0.53729   0.71752   0.00000  Uiso   1.00
C23    C     0.73282   0.51546   0.57498   0.00000  Uiso   1.00
H24    H     0.01655   0.60618   0.34479   0.00000  Uiso   1.00
H25    H     0.90331   0.66524   0.32129   0.00000  Uiso   1.00
H26    H     0.26237   0.60208   0.44561   0.00000  Uiso   1.00
H27    H     0.89719   0.55275   0.21778   0.00000  Uiso   1.00
H28    H     0.75708   0.72831   0.37368   0.00000  Uiso   1.00
H29    H     0.51418   0.59511   0.63578   0.00000  Uiso   1.00
H30    H     0.74413   0.49109   0.15536   0.00000  Uiso   1.00
H31    H     0.85686   0.58750   0.94900   0.00000  Uiso   1.00
H32    H     0.73485   0.64554   0.95865   0.00000  Uiso   1.00
H33    H     0.09392   0.58238   0.08296   0.00000  Uiso   1.00
H34    H     0.72874   0.53305   0.85513   0.00000  Uiso   1.00
H35    H     0.62036   0.71231   0.89099   0.00000  Uiso   1.00
H36    H     0.37747   0.57912   0.15308   0.00000  Uiso   1.00
H37    H     0.60741   0.47510   0.67266   0.00000  Uiso   1.00
O38    O     0.61137   0.75883   0.62781   0.00000  Uiso   1.00
O39    O     0.60467   0.58408   0.97166   0.00000  Uiso   1.00
O40    O     0.59437   0.44761   0.34136   0.00000  Uiso   1.00
N41    N     0.74162   0.71657   0.49409   0.00000  Uiso   1.00
N42    N     0.44947   0.59205   0.73914   0.00000  Uiso   1.00
N43    N     0.72957   0.49479   0.28999   0.00000  Uiso   1.00
N44    N     0.66805   0.70797   0.77245   0.00000  Uiso   1.00
N45    N     0.37590   0.58345   0.01750   0.00000  Uiso   1.00
N46    N     0.65600   0.48619   0.56835   0.00000  Uiso   1.00
C47    C     0.02004   0.39810   0.48321   0.00000  Uiso   1.00
C48    C     0.10372   0.36860   0.55422   0.00000  Uiso   1.00
C49    C     0.13308   0.33900   0.45889   0.00000  Uiso   1.00
C50    C     0.21120   0.31506   0.54775   0.00000  Uiso   1.00
C51    C     0.33393   0.26842   0.63100   0.00000  Uiso   1.00
C52    C     0.90863   0.40291   0.62177   0.00000  Uiso   1.00
C53    C     0.77396   0.40217   0.58321   0.00000  Uiso   1.00
C54    C     0.68785   0.40712   0.72894   0.00000  Uiso   1.00
C55    C     0.50769   0.41377   0.91703   0.00000  Uiso   1.00
C56    C     0.10705   0.42971   0.49798   0.00000  Uiso   1.00
C57    C     0.13919   0.45151   0.35535   0.00000  Uiso   1.00
C58    C     0.22011   0.47903   0.39686   0.00000  Uiso   1.00
C59    C     0.34803   0.52730   0.39275   0.00000  Uiso   1.00
C60    C     0.10655   0.40822   0.81056   0.00000  Uiso   1.00
C61    C     0.15071   0.37410   0.73203   0.00000  Uiso   1.00
C62    C     0.22880   0.35020   0.82106   0.00000  Uiso   1.00
C63    C     0.25828   0.32057   0.72586   0.00000  Uiso   1.00
C64    C     0.95561   0.40841   0.79957   0.00000  Uiso   1.00
C65    C     0.86968   0.41337   0.94539   0.00000  Uiso   1.00
C66    C     0.73492   0.41263   0.90707   0.00000  Uiso   1.00
C67    C     0.15404   0.43521   0.67578   0.00000  Uiso   1.00
C68    C     0.23491   0.46271   0.71752   0.00000  Uiso   1.00
C69    C     0.26718   0.48454   0.57498   0.00000  Uiso   1.00
H70    H     0.98345   0.39382   0.34479   0.00000  Uiso   1.00
H71    H     0.09669   0.33476   0.32129   0.00000  Uiso   1.00
H72    H     0.73763   0.39792   0.44561   0.00000  Uiso   1.00
H73    H     0.10281   0.44725   0.21778   0.00000  Uiso   1.00
H74    H     0.24292   0.27169   0.37368   0.00000  Uiso   1.00
H75    H     0.48582   0.40489   0.63578   0.00000  Uiso   1.00
H76    H     0.25587   0.50891   0.15536   0.00000  Uiso   1.00
H77    H     0.14314   0.41250   0.94900   0.00000  Uiso   1.00
H78    H     0.26515   0.35446   0.95865   0.00000  Uiso   1.00
H79    H     0.90608   0.41762   0.08296   0.00000  Uiso   1.00
H80    H     0.27126   0.46695   0.85513   0.00000  Uiso   1.00
H81    H     0.37964   0.28769   0.89099   0.00000  Uiso   1.00
H82    H     0.62253   0.42088   0.15308   0.00000  Uiso   1.00
H83    H     0.39259   0.52490   0.67266   0.00000  Uiso   1.00
O84    O     0.38863   0.24117   0.62781   0.00000  Uiso   1.00
O85    O     0.39533   0.41592   0.97166   0.00000  Uiso   1.00
O86    O     0.40563   0.55239   0.34136   0.00000  Uiso   1.00
N87    N     0.25838   0.28343   0.49409   0.00000  Uiso   1.00
N88    N     0.55053   0.40795   0.73914   0.00000  Uiso   1.00
N89    N     0.27043   0.50521   0.28999   0.00000  Uiso   1.00
N90    N     0.33195   0.29203   0.77245   0.00000  Uiso   1.00
N91    N     0.62410   0.41655   0.01750   0.00000  Uiso   1.00
N92    N     0.34400   0.51381   0.56835   0.00000  Uiso   1.00
C93    C     0.97996   0.89810   0.98321   0.00000  Uiso   1.00
C94    C     0.89628   0.86860   0.05422   0.00000  Uiso   1.00
C95    C     0.86692   0.83900   0.95889   0.00000  Uiso   1.00
C96    C     0.78880   0.81506   0.04775   0.00000  Uiso   1.00
C97    C     0.66607   0.76842   0.13100   0.00000  Uiso   1.00
C98    C     0.09137   0.90291   0.12177   0.00000  Uiso   1.00
C99    C     0.22604   0.90217   0.08321   0.00000  Uiso   1.00
C100   C     0.31215   0.90712   0.22894   0.00000  Uiso   1.00
C101   C     0.49231   0.91377   0.41703   0.00000  Uiso   1.00
C102   C     0.89295   0.92971   0.99798   0.00000  Uiso   1.00
C103   C     0.86081   0.95151   0.85535   0.00000  Uiso   1.00
C104   C     0.77989   0.97903   0.89686   0.00000  Uiso   1.00
C105   C     0.65197   0.02730   0.89275   0.00000  Uiso   1.00
C106   C     0.89345   0.90822   0.31056   0.00000  Uiso   1.00
C107   C     0.84929   0.87410   0.23203   0.00000  Uiso   1.00
C108   C     0.77120   0.85020   0.32106   0.00000  Uiso   1.00
C109   C     0.74172   0.82057   0.22586   0.00000  Uiso   1.00
C110   C     0.04439   0.90841   0.29957   0.00000  Uiso   1.00
C111   C     0.13032   0.91337   0.44539   0.00000  Uiso   1.00
C112   C     0.26508   0.91263   0.40707   0.00000  Uiso   1.00
C113   C     0.84596   0.93521   0.17578   0.00000  Uiso   1.00
C114   C     0.76509   0.96271   0.21752   0.00000  Uiso   1.00
C115   C     0.73282   0.98454   0.07498   0.00000  Uiso   1.00
H116   H     0.01655   0.89382   0.84479   0.00000  Uiso   1.00
H117   H     0.90331   0.83476   0.82129   0.00000  Uiso   1.00
H118   H     0.26237   0.89792   0.94561   0.00000  Uiso   1.00
H119   H     0.89719   0.94725   0.71778   0.00000  Uiso   1.00
H120   H     0.75708   0.77169   0.87368   0.00000  Uiso   1.00
H121   H     0.51418   0.90489   0.13578   0.00000  Uiso   1.00
H122   H     0.74413   0.00891   0.65536   0.00000  Uiso   1.00
H123   H     0.85686   0.91250   0.44900   0.00000  Uiso   1.00
H124   H     0.73485   0.85446   0.45865   0.00000  Uiso   1.00
H125   H     0.09392   0.91762   0.58296   0.00000  Uiso   1.00
H126   H     0.72874   0.96695   0.35513   0.00000  Uiso   1.00
H127   H     0.62036   0.78769   0.39099   0.00000  Uiso   1.00
H128   H     0.37747   0.92088   0.65308   0.00000  Uiso   1.00
H129   H     0.60741   0.02490   0.17266   0.00000  Uiso   1.00
O130   O     0.61137   0.74117   0.12781   0.00000  Uiso   1.00
O131   O     0.60467   0.91592   0.47166   0.00000  Uiso   1.00
O132   O     0.59437   0.05239   0.84136   0.00000  Uiso   1.00
N133   N     0.74162   0.78343   0.99409   0.00000  Uiso   1.00
N134   N     0.44947   0.90795   0.23914   0.00000  Uiso   1.00
N135   N     0.72957   0.00521   0.78999   0.00000  Uiso   1.00
N136   N     0.66805   0.79203   0.27245   0.00000  Uiso   1.00
N137   N     0.37590   0.91655   0.51750   0.00000  Uiso   1.00
N138   N     0.65600   0.01381   0.06835   0.00000  Uiso   1.00
C139   C     0.02004   0.10190   0.98321   0.00000  Uiso   1.00
C140   C     0.10372   0.13140   0.05422   0.00000  Uiso   1.00
C141   C     0.13308   0.16100   0.95889   0.00000  Uiso   1.00
C142   C     0.21120   0.18494   0.04775   0.00000  Uiso   1.00
C143   C     0.33393   0.23158   0.13100   0.00000  Uiso   1.00
C144   C     0.90863   0.09709   0.12177   0.00000  Uiso   1.00
C145   C     0.77396   0.09783   0.08321   0.00000  Uiso   1.00
C146   C     0.68785   0.09288   0.22894   0.00000  Uiso   1.00
C147   C     0.50769   0.08623   0.41703   0.00000  Uiso   1.00
C148   C     0.10705   0.07029   0.99798   0.00000  Uiso   1.00
C149   C     0.13919   0.04849   0.85535   0.00000  Uiso   1.00
C150   C     0.22011   0.02097   0.89686   0.00000  Uiso   1.00
C151   C     0.34803   0.97270   0.89275   0.00000  Uiso   1.00
C152   C     0.10655   0.09178   0.31056   0.00000  Uiso   1.00
C153   C     0.15071   0.12590   0.23203   0.00000  Uiso   1.00
C154   C     0.22880   0.14980   0.32106   0.00000  Uiso   1.00
C155   C     0.25828   0.17943   0.22586   0.00000  Uiso   1.00
C156   C     0.95561   0.09159   0.29957   0.00000  Uiso   1.00
C157   C     0.86968   0.08663   0.44539   0.00000  Uiso   1.00
C158   C     0.73492   0.08737   0.40707   0.00000  Uiso   1.00
C159   C     0.15404   0.06479   0.17578   0.00000  Uiso   1.00
C160   C     0.23491   0.03729   0.21752   0.00000  Uiso   1.00
C161   C     0.26718   0.01546   0.07498   0.00000  Uiso   1.00
H162   H     0.98345   0.10618   0.84479   0.00000  Uiso   1.00
H163   H     0.09669   0.16524   0.82129   0.00000  Uiso   1.00
H164   H     0.73763   0.10208   0.94561   0.00000  Uiso   1.00
H165   H     0.10281   0.05275   0.71778   0.00000  Uiso   1.00
H166   H     0.24292   0.22831   0.87368   0.00000  Uiso   1.00
H167   H     0.48582   0.09511   0.13578   0.00000  Uiso   1.00
H168   H     0.25587   0.99109   0.65536   0.00000  Uiso   1.00
H169   H     0.14314   0.08750   0.44900   0.00000  Uiso   1.00
H170   H     0.26515   0.14554   0.45865   0.00000  Uiso   1.00
H171   H     0.90608   0.08238   0.58296   0.00000  Uiso   1.00
H172   H     0.27126   0.03305   0.35513   0.00000  Uiso   1.00
H173   H     0.37964   0.21231   0.39099   0.00000  Uiso   1.00
H174   H     0.62253   0.07912   0.65308   0.00000  Uiso   1.00
H175   H     0.39259   0.97510   0.17266   0.00000  Uiso   1.00
O176   O     0.38863   0.25883   0.12781   0.00000  Uiso   1.00
O177   O     0.39533   0.08408   0.47166   0.00000  Uiso   1.00
O178   O     0.40563   0.94761   0.84136   0.00000  Uiso   1.00
N179   N     0.25838   0.21657   0.99409   0.00000  Uiso   1.00
N180   N     0.55053   0.09205   0.23914   0.00000  Uiso   1.00
N181   N     0.27043   0.99479   0.78999   0.00000  Uiso   1.00
N182   N     0.33195   0.20797   0.27245   0.00000  Uiso   1.00
N183   N     0.62410   0.08345   0.51750   0.00000  Uiso   1.00
N184   N     0.34400   0.98619   0.06835   0.00000  Uiso   1.00
