data_job_06039
_audit_creation_date              2018-12-19
_audit_creation_method            'Materials Studio'
_symmetry_space_group_name_H-M    'P1'
_symmetry_Int_Tables_number       1
_symmetry_cell_setting            triclinic
loop_
_symmetry_equiv_pos_as_xyz
  x,y,z
_cell_length_a                    16.1037
_cell_length_b                    15.2894
_cell_length_c                    15.0309
_cell_angle_alpha                 103.0850
_cell_angle_beta                  102.3620
_cell_angle_gamma                 103.1470
loop_
_atom_site_label
_atom_site_type_symbol
_atom_site_fract_x
_atom_site_fract_y
_atom_site_fract_z
_atom_site_U_iso_or_equiv
_atom_site_adp_type
_atom_site_occupancy
C1     C     0.26784   0.50529   0.22705   0.00000  Uiso   1.00
C2     C     0.19634   0.43615   0.14019   0.00000  Uiso   1.00
C3     C     0.14393   0.34920   0.13705   0.00000  Uiso   1.00
C4     C     0.08230   0.29639   0.05083   0.00000  Uiso   1.00
C5     C     0.97264   0.18399   0.92814   0.00000  Uiso   1.00
C6     C     0.35317   0.52453   0.19681   0.00000  Uiso   1.00
C7     C     0.43263   0.51189   0.24128   0.00000  Uiso   1.00
C8     C     0.50303   0.53349   0.20272   0.00000  Uiso   1.00
C9     C     0.63688   0.55835   0.16799   0.00000  Uiso   1.00
C10    C     0.24288   0.59688   0.24302   0.00000  Uiso   1.00
C11    C     0.22962   0.64509   0.32636   0.00000  Uiso   1.00
C12    C     0.20717   0.72762   0.32671   0.00000  Uiso   1.00
C13    C     0.16978   0.86482   0.36373   0.00000  Uiso   1.00
C14    C     0.25158   0.56612   0.07951   0.00000  Uiso   1.00
C15    C     0.18751   0.46919   0.06006   0.00000  Uiso   1.00
C16    C     0.12594   0.41650   0.97381   0.00000  Uiso   1.00
C17    C     0.07344   0.32949   0.97054   0.00000  Uiso   1.00
C18    C     0.34434   0.55757   0.11668   0.00000  Uiso   1.00
C19    C     0.41464   0.57919   0.07805   0.00000  Uiso   1.00
C20    C     0.49418   0.56659   0.12244   0.00000  Uiso   1.00
C21    C     0.23404   0.62992   0.16289   0.00000  Uiso   1.00
C22    C     0.21162   0.71239   0.16312   0.00000  Uiso   1.00
C23    C     0.19833   0.76072   0.24643   0.00000  Uiso   1.00
H24    H     0.27472   0.47957   0.28944   0.00000  Uiso   1.00
H25    H     0.15079   0.32366   0.19908   0.00000  Uiso   1.00
H26    H     0.43945   0.48633   0.30330   0.00000  Uiso   1.00
H27    H     0.23646   0.61951   0.38836   0.00000  Uiso   1.00
H28    H     0.00951   0.16535   0.06356   0.00000  Uiso   1.00
H29    H     0.61818   0.50839   0.28333   0.00000  Uiso   1.00
H30    H     0.19014   0.78922   0.46269   0.00000  Uiso   1.00
H31    H     0.24470   0.59184   0.01711   0.00000  Uiso   1.00
H32    H     0.11912   0.44209   0.91181   0.00000  Uiso   1.00
H33    H     0.40778   0.60476   0.01603   0.00000  Uiso   1.00
H34    H     0.20479   0.73793   0.10109   0.00000  Uiso   1.00
H35    H     0.98381   0.26147   0.83039   0.00000  Uiso   1.00
H36    H     0.59248   0.60452   0.05017   0.00000  Uiso   1.00
H37    H     0.16444   0.88534   0.22953   0.00000  Uiso   1.00
O38    O     0.91461   0.11286   0.88261   0.00000  Uiso   1.00
O39    O     0.71316   0.56293   0.17096   0.00000  Uiso   1.00
O40    O     0.15158   0.93136   0.40627   0.00000  Uiso   1.00
N41    N     0.02068   0.20853   0.02314   0.00000  Uiso   1.00
N42    N     0.58975   0.52924   0.22861   0.00000  Uiso   1.00
N43    N     0.18959   0.79180   0.39630   0.00000  Uiso   1.00
N44    N     0.00685   0.26026   0.89767   0.00000  Uiso   1.00
N45    N     0.57592   0.58096   0.10314   0.00000  Uiso   1.00
N46    N     0.17576   0.84352   0.27084   0.00000  Uiso   1.00
C47    C     0.22804   0.27439   0.50756   0.00000  Uiso   1.00
C48    C     0.14515   0.20056   0.43841   0.00000  Uiso   1.00
C49    C     0.14004   0.14536   0.34920   0.00000  Uiso   1.00
C50    C     0.05814   0.08193   0.29681   0.00000  Uiso   1.00
C51    C     0.94069   0.96853   0.18401   0.00000  Uiso   1.00
C52    C     0.20304   0.36574   0.52933   0.00000  Uiso   1.00
C53    C     0.24662   0.44942   0.51658   0.00000  Uiso   1.00
C54    C     0.21346   0.52504   0.54073   0.00000  Uiso   1.00
C55    C     0.18592   0.66810   0.56915   0.00000  Uiso   1.00
C56    C     0.24248   0.24695   0.59987   0.00000  Uiso   1.00
C57    C     0.31923   0.23076   0.64644   0.00000  Uiso   1.00
C58    C     0.31929   0.20639   0.73000   0.00000  Uiso   1.00
C59    C     0.35299   0.16500   0.86794   0.00000  Uiso   1.00
C60    C     0.09168   0.25992   0.57314   0.00000  Uiso   1.00
C61    C     0.07108   0.19271   0.47404   0.00000  Uiso   1.00
C62    C     0.98917   0.12935   0.42177   0.00000  Uiso   1.00
C63    C     0.98394   0.07406   0.33250   0.00000  Uiso   1.00
C64    C     0.12897   0.35789   0.56495   0.00000  Uiso   1.00
C65    C     0.09575   0.43341   0.58914   0.00000  Uiso   1.00
C66    C     0.13926   0.51717   0.57642   0.00000  Uiso   1.00
C67    C     0.16842   0.23908   0.63550   0.00000  Uiso   1.00
C68    C     0.16836   0.21475   0.71900   0.00000  Uiso   1.00
C69    C     0.24509   0.19852   0.76569   0.00000  Uiso   1.00
H70    H     0.28570   0.28051   0.47982   0.00000  Uiso   1.00
H71    H     0.19737   0.15147   0.32166   0.00000  Uiso   1.00
H72    H     0.30394   0.45548   0.48901   0.00000  Uiso   1.00
H73    H     0.37653   0.23685   0.61886   0.00000  Uiso   1.00
H74    H     0.06677   0.00496   0.16200   0.00000  Uiso   1.00
H75    H     0.29148   0.64599   0.51491   0.00000  Uiso   1.00
H76    H     0.44458   0.18497   0.78871   0.00000  Uiso   1.00
H77    H     0.03401   0.25380   0.60088   0.00000  Uiso   1.00
H78    H     0.93187   0.12328   0.44936   0.00000  Uiso   1.00
H79    H     0.03843   0.42730   0.61671   0.00000  Uiso   1.00
H80    H     0.11103   0.20867   0.74655   0.00000  Uiso   1.00
H81    H     0.85127   0.98208   0.26564   0.00000  Uiso   1.00
H82    H     0.07599   0.62313   0.61855   0.00000  Uiso   1.00
H83    H     0.22908   0.16210   0.89235   0.00000  Uiso   1.00
O84    O     0.89636   0.90817   0.11194   0.00000  Uiso   1.00
O85    O     0.19119   0.74918   0.57496   0.00000  Uiso   1.00
O86    O     0.39204   0.14433   0.93418   0.00000  Uiso   1.00
N87    N     0.03007   0.01747   0.20719   0.00000  Uiso   1.00
N88    N     0.24016   0.61680   0.53713   0.00000  Uiso   1.00
N89    N     0.38330   0.18581   0.79312   0.00000  Uiso   1.00
N90    N     0.91412   0.00516   0.26296   0.00000  Uiso   1.00
N91    N     0.12421   0.60449   0.59290   0.00000  Uiso   1.00
N92    N     0.26734   0.17350   0.84889   0.00000  Uiso   1.00
C93    C     0.51264   0.23223   0.27794   0.00000  Uiso   1.00
C94    C     0.44569   0.14593   0.20337   0.00000  Uiso   1.00
C95    C     0.36288   0.14274   0.14955   0.00000  Uiso   1.00
C96    C     0.31148   0.05708   0.08512   0.00000  Uiso   1.00
C97    C     0.20289   0.93517   0.97091   0.00000  Uiso   1.00
C98    C     0.53243   0.20463   0.36987   0.00000  Uiso   1.00
C99    C     0.52256   0.25080   0.45603   0.00000  Uiso   1.00
C100   C     0.54419   0.21455   0.53176   0.00000  Uiso   1.00
C101   C     0.57032   0.18381   0.67605   0.00000  Uiso   1.00
C102   C     0.59816   0.24576   0.24778   0.00000  Uiso   1.00
C103   C     0.64357   0.32653   0.23131   0.00000  Uiso   1.00
C104   C     0.72055   0.32493   0.20427   0.00000  Uiso   1.00
C105   C     0.84873   0.35806   0.15899   0.00000  Uiso   1.00
C106   C     0.56862   0.08577   0.25923   0.00000  Uiso   1.00
C107   C     0.47610   0.06638   0.19321   0.00000  Uiso   1.00
C108   C     0.42482   0.98071   0.12884   0.00000  Uiso   1.00
C109   C     0.34195   0.97739   0.07493   0.00000  Uiso   1.00
C110   C     0.56284   0.12508   0.35971   0.00000  Uiso   1.00
C111   C     0.58449   0.08876   0.43532   0.00000  Uiso   1.00
C112   C     0.57465   0.13486   0.52158   0.00000  Uiso   1.00
C113   C     0.62857   0.16622   0.23761   0.00000  Uiso   1.00
C114   C     0.70550   0.16449   0.21060   0.00000  Uiso   1.00
C115   C     0.75102   0.24524   0.19409   0.00000  Uiso   1.00
H116   H     0.48897   0.29416   0.28586   0.00000  Uiso   1.00
H117   H     0.33937   0.20431   0.15744   0.00000  Uiso   1.00
H118   H     0.49903   0.31236   0.46387   0.00000  Uiso   1.00
H119   H     0.62001   0.38807   0.23918   0.00000  Uiso   1.00
H120   H     0.18691   0.06962   0.01060   0.00000  Uiso   1.00
H121   H     0.52359   0.29745   0.65674   0.00000  Uiso   1.00
H122   H     0.77872   0.45712   0.18294   0.00000  Uiso   1.00
H123   H     0.59230   0.02384   0.25132   0.00000  Uiso   1.00
H124   H     0.44837   0.91916   0.12099   0.00000  Uiso   1.00
H125   H     0.60803   0.02720   0.42743   0.00000  Uiso   1.00
H126   H     0.72901   0.10292   0.20274   0.00000  Uiso   1.00
H127   H     0.27537   0.83817   0.98102   0.00000  Uiso   1.00
H128   H     0.61206   0.06601   0.62717   0.00000  Uiso   1.00
H129   H     0.86718   0.22567   0.15336   0.00000  Uiso   1.00
O130   O     0.13458   0.88990   0.91073   0.00000  Uiso   1.00
O131   O     0.57631   0.18882   0.75845   0.00000  Uiso   1.00
O132   O     0.91103   0.39830   0.13682   0.00000  Uiso   1.00
N133   N     0.22749   0.02952   0.02151   0.00000  Uiso   1.00
N134   N     0.54225   0.24252   0.62561   0.00000  Uiso   1.00
N135   N     0.78079   0.39180   0.18267   0.00000  Uiso   1.00
N136   N     0.27509   0.90498   0.00560   0.00000  Uiso   1.00
N137   N     0.58986   0.11798   0.60970   0.00000  Uiso   1.00
N138   N     0.82839   0.26727   0.16675   0.00000  Uiso   1.00
C139   C     0.73216   0.49471   0.77295   0.00000  Uiso   1.00
C140   C     0.80367   0.56385   0.85981   0.00000  Uiso   1.00
C141   C     0.85607   0.65080   0.86295   0.00000  Uiso   1.00
C142   C     0.91771   0.70361   0.94917   0.00000  Uiso   1.00
C143   C     0.02736   0.81601   0.07186   0.00000  Uiso   1.00
C144   C     0.64683   0.47547   0.80319   0.00000  Uiso   1.00
C145   C     0.56737   0.48811   0.75872   0.00000  Uiso   1.00
C146   C     0.49697   0.46651   0.79727   0.00000  Uiso   1.00
C147   C     0.36312   0.44165   0.83201   0.00000  Uiso   1.00
C148   C     0.75713   0.40312   0.75698   0.00000  Uiso   1.00
C149   C     0.77038   0.35491   0.67364   0.00000  Uiso   1.00
C150   C     0.79283   0.27238   0.67329   0.00000  Uiso   1.00
C151   C     0.83022   0.13518   0.63627   0.00000  Uiso   1.00
C152   C     0.74842   0.43388   0.92049   0.00000  Uiso   1.00
C153   C     0.81249   0.53081   0.93994   0.00000  Uiso   1.00
C154   C     0.87407   0.58350   0.02619   0.00000  Uiso   1.00
C155   C     0.92656   0.67051   0.02946   0.00000  Uiso   1.00
C156   C     0.65566   0.44244   0.88332   0.00000  Uiso   1.00
C157   C     0.58536   0.42081   0.92195   0.00000  Uiso   1.00
C158   C     0.50582   0.43341   0.87756   0.00000  Uiso   1.00
C159   C     0.76596   0.37008   0.83711   0.00000  Uiso   1.00
C160   C     0.78838   0.28761   0.83688   0.00000  Uiso   1.00
C161   C     0.80167   0.23928   0.75357   0.00000  Uiso   1.00
H162   H     0.72528   0.52043   0.71056   0.00000  Uiso   1.00
H163   H     0.84921   0.67634   0.80092   0.00000  Uiso   1.00
H164   H     0.56055   0.51367   0.69670   0.00000  Uiso   1.00
H165   H     0.76354   0.38049   0.61164   0.00000  Uiso   1.00
H166   H     0.99049   0.83465   0.93644   0.00000  Uiso   1.00
H167   H     0.38183   0.49161   0.71667   0.00000  Uiso   1.00
H168   H     0.80986   0.21078   0.53731   0.00000  Uiso   1.00
H169   H     0.75530   0.40816   0.98289   0.00000  Uiso   1.00
H170   H     0.88088   0.55791   0.08819   0.00000  Uiso   1.00
H171   H     0.59222   0.39524   0.98397   0.00000  Uiso   1.00
H172   H     0.79521   0.26207   0.89891   0.00000  Uiso   1.00
H173   H     0.01619   0.73853   0.16961   0.00000  Uiso   1.00
H174   H     0.40752   0.39548   0.94983   0.00000  Uiso   1.00
H175   H     0.83556   0.11466   0.77047   0.00000  Uiso   1.00
O176   O     0.08539   0.88714   0.11739   0.00000  Uiso   1.00
O177   O     0.28684   0.43707   0.82904   0.00000  Uiso   1.00
O178   O     0.84842   0.06864   0.59373   0.00000  Uiso   1.00
N179   N     0.97932   0.79147   0.97686   0.00000  Uiso   1.00
N180   N     0.41025   0.47076   0.77139   0.00000  Uiso   1.00
N181   N     0.81041   0.20820   0.60370   0.00000  Uiso   1.00
N182   N     0.99315   0.73974   0.10233   0.00000  Uiso   1.00
N183   N     0.42408   0.41904   0.89686   0.00000  Uiso   1.00
N184   N     0.82424   0.15648   0.72916   0.00000  Uiso   1.00
C185   C     0.77196   0.72561   0.49244   0.00000  Uiso   1.00
C186   C     0.85485   0.79944   0.56159   0.00000  Uiso   1.00
C187   C     0.85996   0.85464   0.65080   0.00000  Uiso   1.00
C188   C     0.94186   0.91807   0.70319   0.00000  Uiso   1.00
C189   C     0.05931   0.03147   0.81599   0.00000  Uiso   1.00
C190   C     0.79696   0.63426   0.47067   0.00000  Uiso   1.00
C191   C     0.75338   0.55058   0.48342   0.00000  Uiso   1.00
C192   C     0.78654   0.47496   0.45927   0.00000  Uiso   1.00
C193   C     0.81408   0.33190   0.43085   0.00000  Uiso   1.00
C194   C     0.75752   0.75305   0.40013   0.00000  Uiso   1.00
C195   C     0.68077   0.76924   0.35356   0.00000  Uiso   1.00
C196   C     0.68071   0.79361   0.27000   0.00000  Uiso   1.00
C197   C     0.64701   0.83500   0.13206   0.00000  Uiso   1.00
C198   C     0.90832   0.74008   0.42686   0.00000  Uiso   1.00
C199   C     0.92892   0.80729   0.52596   0.00000  Uiso   1.00
C200   C     0.01083   0.87065   0.57823   0.00000  Uiso   1.00
C201   C     0.01606   0.92594   0.66750   0.00000  Uiso   1.00
C202   C     0.87103   0.64211   0.43505   0.00000  Uiso   1.00
C203   C     0.90425   0.56659   0.41086   0.00000  Uiso   1.00
C204   C     0.86074   0.48283   0.42358   0.00000  Uiso   1.00
C205   C     0.83159   0.76092   0.36450   0.00000  Uiso   1.00
C206   C     0.83164   0.78525   0.28100   0.00000  Uiso   1.00
C207   C     0.75491   0.80148   0.23431   0.00000  Uiso   1.00
H208   H     0.71430   0.71949   0.52018   0.00000  Uiso   1.00
H209   H     0.80263   0.84853   0.67834   0.00000  Uiso   1.00
H210   H     0.69606   0.54452   0.51099   0.00000  Uiso   1.00
H211   H     0.62347   0.76315   0.38114   0.00000  Uiso   1.00
H212   H     0.93323   0.99504   0.83800   0.00000  Uiso   1.00
H213   H     0.70852   0.35401   0.48509   0.00000  Uiso   1.00
H214   H     0.55542   0.81503   0.21129   0.00000  Uiso   1.00
H215   H     0.96599   0.74620   0.39912   0.00000  Uiso   1.00
H216   H     0.06814   0.87672   0.55064   0.00000  Uiso   1.00
H217   H     0.96157   0.57270   0.38329   0.00000  Uiso   1.00
H218   H     0.88897   0.79133   0.25345   0.00000  Uiso   1.00
H219   H     0.14873   0.01792   0.73436   0.00000  Uiso   1.00
H220   H     0.92401   0.37688   0.38145   0.00000  Uiso   1.00
H221   H     0.77092   0.83790   0.10765   0.00000  Uiso   1.00
O222   O     0.10364   0.09183   0.88806   0.00000  Uiso   1.00
O223   O     0.80881   0.25082   0.42504   0.00000  Uiso   1.00
O224   O     0.60796   0.85567   0.06582   0.00000  Uiso   1.00
N225   N     0.96993   0.98253   0.79281   0.00000  Uiso   1.00
N226   N     0.75984   0.38320   0.46287   0.00000  Uiso   1.00
N227   N     0.61670   0.81419   0.20688   0.00000  Uiso   1.00
N228   N     0.08588   0.99484   0.73704   0.00000  Uiso   1.00
N229   N     0.87580   0.39551   0.40710   0.00000  Uiso   1.00
N230   N     0.73266   0.82650   0.15111   0.00000  Uiso   1.00
C231   C     0.48736   0.76777   0.72206   0.00000  Uiso   1.00
C232   C     0.55431   0.85407   0.79663   0.00000  Uiso   1.00
C233   C     0.63712   0.85726   0.85045   0.00000  Uiso   1.00
C234   C     0.68852   0.94292   0.91488   0.00000  Uiso   1.00
C235   C     0.79711   0.06483   0.02909   0.00000  Uiso   1.00
C236   C     0.46757   0.79537   0.63013   0.00000  Uiso   1.00
C237   C     0.47745   0.74920   0.54397   0.00000  Uiso   1.00
C238   C     0.45581   0.78545   0.46824   0.00000  Uiso   1.00
C239   C     0.42969   0.81619   0.32395   0.00000  Uiso   1.00
C240   C     0.40184   0.75424   0.75222   0.00000  Uiso   1.00
C241   C     0.35643   0.67347   0.76869   0.00000  Uiso   1.00
C242   C     0.27945   0.67507   0.79573   0.00000  Uiso   1.00
C243   C     0.15127   0.64194   0.84101   0.00000  Uiso   1.00
C244   C     0.43138   0.91423   0.74077   0.00000  Uiso   1.00
C245   C     0.52390   0.93362   0.80679   0.00000  Uiso   1.00
C246   C     0.57518   0.01929   0.87116   0.00000  Uiso   1.00
C247   C     0.65805   0.02261   0.92507   0.00000  Uiso   1.00
C248   C     0.43717   0.87492   0.64029   0.00000  Uiso   1.00
C249   C     0.41551   0.91124   0.56468   0.00000  Uiso   1.00
C250   C     0.42535   0.86514   0.47842   0.00000  Uiso   1.00
C251   C     0.37143   0.83379   0.76239   0.00000  Uiso   1.00
C252   C     0.29450   0.83551   0.78940   0.00000  Uiso   1.00
C253   C     0.24899   0.75476   0.80591   0.00000  Uiso   1.00
H254   H     0.51103   0.70584   0.71414   0.00000  Uiso   1.00
H255   H     0.66063   0.79569   0.84256   0.00000  Uiso   1.00
H256   H     0.50097   0.68764   0.53613   0.00000  Uiso   1.00
H257   H     0.37999   0.61193   0.76082   0.00000  Uiso   1.00
H258   H     0.81309   0.93038   0.98940   0.00000  Uiso   1.00
H259   H     0.47641   0.70255   0.34326   0.00000  Uiso   1.00
H260   H     0.22128   0.54288   0.81706   0.00000  Uiso   1.00
H261   H     0.40770   0.97616   0.74868   0.00000  Uiso   1.00
H262   H     0.55163   0.08084   0.87901   0.00000  Uiso   1.00
H263   H     0.39197   0.97280   0.57257   0.00000  Uiso   1.00
H264   H     0.27099   0.89708   0.79726   0.00000  Uiso   1.00
H265   H     0.72463   0.16183   0.01898   0.00000  Uiso   1.00
H266   H     0.38794   0.93399   0.37283   0.00000  Uiso   1.00
H267   H     0.13282   0.77433   0.84664   0.00000  Uiso   1.00
O268   O     0.86542   0.11010   0.08927   0.00000  Uiso   1.00
O269   O     0.42369   0.81118   0.24155   0.00000  Uiso   1.00
O270   O     0.08897   0.60170   0.86318   0.00000  Uiso   1.00
N271   N     0.77251   0.97048   0.97849   0.00000  Uiso   1.00
N272   N     0.45775   0.75748   0.37439   0.00000  Uiso   1.00
N273   N     0.21921   0.60820   0.81733   0.00000  Uiso   1.00
N274   N     0.72491   0.09502   0.99440   0.00000  Uiso   1.00
N275   N     0.41014   0.88202   0.39030   0.00000  Uiso   1.00
N276   N     0.17161   0.73274   0.83325   0.00000  Uiso   1.00
