data_job_01346
_audit_creation_date              2018-12-19
_audit_creation_method            'Materials Studio'
_symmetry_space_group_name_H-M    'P1'
_symmetry_Int_Tables_number       1
_symmetry_cell_setting            triclinic
loop_
_symmetry_equiv_pos_as_xyz
  x,y,z
_cell_length_a                    8.5543
_cell_length_b                    18.9364
_cell_length_c                    16.2263
_cell_angle_alpha                 90.0000
_cell_angle_beta                  77.1042
_cell_angle_gamma                 90.0000
loop_
_atom_site_label
_atom_site_type_symbol
_atom_site_fract_x
_atom_site_fract_y
_atom_site_fract_z
_atom_site_U_iso_or_equiv
_atom_site_adp_type
_atom_site_occupancy
C1     C     0.89187   0.56240   0.22518   0.00000  Uiso   1.00
C2     C     0.89855   0.62696   0.28045   0.00000  Uiso   1.00
C3     C     0.77960   0.67779   0.30220   0.00000  Uiso   1.00
C4     C     0.80859   0.73280   0.35336   0.00000  Uiso   1.00
C5     C     0.79727   0.83247   0.43484   0.00000  Uiso   1.00
C6     C     0.03999   0.56668   0.15286   0.00000  Uiso   1.00
C7     C     0.03996   0.56681   0.06733   0.00000  Uiso   1.00
C8     C     0.18802   0.57106   0.01108   0.00000  Uiso   1.00
C9     C     0.39629   0.57708   0.89447   0.00000  Uiso   1.00
C10    C     0.91730   0.49857   0.27797   0.00000  Uiso   1.00
C11    C     0.81414   0.44142   0.29762   0.00000  Uiso   1.00
C12    C     0.85892   0.38832   0.34669   0.00000  Uiso   1.00
C13    C     0.87670   0.28859   0.42433   0.00000  Uiso   1.00
C14    C     0.15487   0.56971   0.27735   0.00000  Uiso   1.00
C15    C     0.04140   0.63094   0.30879   0.00000  Uiso   1.00
C16    C     0.07058   0.68588   0.35993   0.00000  Uiso   1.00
C17    C     0.95170   0.73678   0.38175   0.00000  Uiso   1.00
C18    C     0.18284   0.57065   0.18120   0.00000  Uiso   1.00
C19    C     0.33093   0.57490   0.12506   0.00000  Uiso   1.00
C20    C     0.33113   0.57504   0.03947   0.00000  Uiso   1.00
C21    C     0.06015   0.50254   0.30631   0.00000  Uiso   1.00
C22    C     0.10511   0.44952   0.35535   0.00000  Uiso   1.00
C23    C     0.00203   0.39230   0.37508   0.00000  Uiso   1.00
H24    H     0.78066   0.55930   0.20311   0.00000  Uiso   1.00
H25    H     0.66907   0.67470   0.28025   0.00000  Uiso   1.00
H26    H     0.92939   0.56373   0.04542   0.00000  Uiso   1.00
H27    H     0.70360   0.43836   0.27568   0.00000  Uiso   1.00
H28    H     0.60839   0.80440   0.37825   0.00000  Uiso   1.00
H29    H     0.15728   0.57039   0.88310   0.00000  Uiso   1.00
H30    H     0.68116   0.30603   0.36863   0.00000  Uiso   1.00
H31    H     0.26609   0.57281   0.29942   0.00000  Uiso   1.00
H32    H     0.18114   0.68895   0.38185   0.00000  Uiso   1.00
H33    H     0.44145   0.57797   0.14701   0.00000  Uiso   1.00
H34    H     0.21567   0.45261   0.37727   0.00000  Uiso   1.00
H35    H     0.02400   0.81597   0.46071   0.00000  Uiso   1.00
H36    H     0.57290   0.58195   0.96555   0.00000  Uiso   1.00
H37    H     0.09678   0.31759   0.45109   0.00000  Uiso   1.00
O38    O     0.75158   0.88635   0.47194   0.00000  Uiso   1.00
O39    O     0.47170   0.57932   0.82232   0.00000  Uiso   1.00
O40    O     0.84704   0.23249   0.45934   0.00000  Uiso   1.00
N41    N     0.71785   0.79118   0.38636   0.00000  Uiso   1.00
N42    N     0.23103   0.57240   0.92342   0.00000  Uiso   1.00
N43    N     0.78592   0.32524   0.37734   0.00000  Uiso   1.00
N44    N     0.94148   0.79740   0.43073   0.00000  Uiso   1.00
N45    N     0.45467   0.57862   0.96779   0.00000  Uiso   1.00
N46    N     0.00955   0.33146   0.42171   0.00000  Uiso   1.00
C47    C     0.10813   0.06240   0.27482   0.00000  Uiso   1.00
C48    C     0.10145   0.12696   0.21955   0.00000  Uiso   1.00
C49    C     0.22040   0.17779   0.19780   0.00000  Uiso   1.00
C50    C     0.19141   0.23280   0.14664   0.00000  Uiso   1.00
C51    C     0.20273   0.33247   0.06516   0.00000  Uiso   1.00
C52    C     0.96001   0.06668   0.34714   0.00000  Uiso   1.00
C53    C     0.96004   0.06681   0.43267   0.00000  Uiso   1.00
C54    C     0.81198   0.07106   0.48892   0.00000  Uiso   1.00
C55    C     0.60371   0.07708   0.60553   0.00000  Uiso   1.00
C56    C     0.08270   0.99857   0.22203   0.00000  Uiso   1.00
C57    C     0.18586   0.94142   0.20238   0.00000  Uiso   1.00
C58    C     0.14108   0.88832   0.15331   0.00000  Uiso   1.00
C59    C     0.12330   0.78859   0.07567   0.00000  Uiso   1.00
C60    C     0.84513   0.06971   0.22265   0.00000  Uiso   1.00
C61    C     0.95860   0.13094   0.19121   0.00000  Uiso   1.00
C62    C     0.92942   0.18588   0.14007   0.00000  Uiso   1.00
C63    C     0.04830   0.23678   0.11825   0.00000  Uiso   1.00
C64    C     0.81716   0.07065   0.31880   0.00000  Uiso   1.00
C65    C     0.66907   0.07490   0.37494   0.00000  Uiso   1.00
C66    C     0.66887   0.07504   0.46053   0.00000  Uiso   1.00
C67    C     0.93985   0.00254   0.19369   0.00000  Uiso   1.00
C68    C     0.89489   0.94952   0.14465   0.00000  Uiso   1.00
C69    C     0.99797   0.89230   0.12492   0.00000  Uiso   1.00
H70    H     0.21934   0.05930   0.29689   0.00000  Uiso   1.00
H71    H     0.33093   0.17470   0.21975   0.00000  Uiso   1.00
H72    H     0.07061   0.06373   0.45458   0.00000  Uiso   1.00
H73    H     0.29640   0.93836   0.22432   0.00000  Uiso   1.00
H74    H     0.39161   0.30440   0.12175   0.00000  Uiso   1.00
H75    H     0.84272   0.07039   0.61690   0.00000  Uiso   1.00
H76    H     0.31884   0.80603   0.13137   0.00000  Uiso   1.00
H77    H     0.73391   0.07281   0.20058   0.00000  Uiso   1.00
H78    H     0.81886   0.18895   0.11815   0.00000  Uiso   1.00
H79    H     0.55855   0.07797   0.35299   0.00000  Uiso   1.00
H80    H     0.78433   0.95261   0.12273   0.00000  Uiso   1.00
H81    H     0.97600   0.31597   0.03929   0.00000  Uiso   1.00
H82    H     0.42710   0.08195   0.53445   0.00000  Uiso   1.00
H83    H     0.90322   0.81759   0.04891   0.00000  Uiso   1.00
O84    O     0.24842   0.38635   0.02806   0.00000  Uiso   1.00
O85    O     0.52830   0.07932   0.67768   0.00000  Uiso   1.00
O86    O     0.15296   0.73249   0.04066   0.00000  Uiso   1.00
N87    N     0.28215   0.29118   0.11364   0.00000  Uiso   1.00
N88    N     0.76897   0.07240   0.57658   0.00000  Uiso   1.00
N89    N     0.21408   0.82524   0.12266   0.00000  Uiso   1.00
N90    N     0.05852   0.29740   0.06927   0.00000  Uiso   1.00
N91    N     0.54533   0.07862   0.53221   0.00000  Uiso   1.00
N92    N     0.99045   0.83146   0.07829   0.00000  Uiso   1.00
C93    C     0.10813   0.43760   0.77482   0.00000  Uiso   1.00
C94    C     0.10145   0.37304   0.71955   0.00000  Uiso   1.00
C95    C     0.22040   0.32221   0.69780   0.00000  Uiso   1.00
C96    C     0.19141   0.26720   0.64664   0.00000  Uiso   1.00
C97    C     0.20273   0.16753   0.56516   0.00000  Uiso   1.00
C98    C     0.96001   0.43332   0.84714   0.00000  Uiso   1.00
C99    C     0.96004   0.43319   0.93267   0.00000  Uiso   1.00
C100   C     0.81198   0.42894   0.98892   0.00000  Uiso   1.00
C101   C     0.60371   0.42292   0.10553   0.00000  Uiso   1.00
C102   C     0.08270   0.50143   0.72203   0.00000  Uiso   1.00
C103   C     0.18586   0.55858   0.70238   0.00000  Uiso   1.00
C104   C     0.14108   0.61168   0.65331   0.00000  Uiso   1.00
C105   C     0.12330   0.71141   0.57567   0.00000  Uiso   1.00
C106   C     0.84513   0.43029   0.72265   0.00000  Uiso   1.00
C107   C     0.95860   0.36906   0.69121   0.00000  Uiso   1.00
C108   C     0.92942   0.31412   0.64007   0.00000  Uiso   1.00
C109   C     0.04830   0.26322   0.61825   0.00000  Uiso   1.00
C110   C     0.81716   0.42935   0.81880   0.00000  Uiso   1.00
C111   C     0.66907   0.42510   0.87494   0.00000  Uiso   1.00
C112   C     0.66887   0.42496   0.96053   0.00000  Uiso   1.00
C113   C     0.93985   0.49746   0.69369   0.00000  Uiso   1.00
C114   C     0.89489   0.55048   0.64465   0.00000  Uiso   1.00
C115   C     0.99797   0.60770   0.62492   0.00000  Uiso   1.00
H116   H     0.21934   0.44070   0.79689   0.00000  Uiso   1.00
H117   H     0.33093   0.32530   0.71975   0.00000  Uiso   1.00
H118   H     0.07061   0.43627   0.95458   0.00000  Uiso   1.00
H119   H     0.29640   0.56164   0.72432   0.00000  Uiso   1.00
H120   H     0.39161   0.19560   0.62175   0.00000  Uiso   1.00
H121   H     0.84272   0.42961   0.11690   0.00000  Uiso   1.00
H122   H     0.31884   0.69397   0.63137   0.00000  Uiso   1.00
H123   H     0.73391   0.42719   0.70058   0.00000  Uiso   1.00
H124   H     0.81886   0.31105   0.61815   0.00000  Uiso   1.00
H125   H     0.55855   0.42203   0.85299   0.00000  Uiso   1.00
H126   H     0.78433   0.54739   0.62273   0.00000  Uiso   1.00
H127   H     0.97600   0.18403   0.53929   0.00000  Uiso   1.00
H128   H     0.42710   0.41805   0.03445   0.00000  Uiso   1.00
H129   H     0.90322   0.68241   0.54891   0.00000  Uiso   1.00
O130   O     0.24842   0.11365   0.52806   0.00000  Uiso   1.00
O131   O     0.52830   0.42068   0.17768   0.00000  Uiso   1.00
O132   O     0.15296   0.76751   0.54066   0.00000  Uiso   1.00
N133   N     0.28215   0.20882   0.61364   0.00000  Uiso   1.00
N134   N     0.76897   0.42760   0.07658   0.00000  Uiso   1.00
N135   N     0.21408   0.67476   0.62266   0.00000  Uiso   1.00
N136   N     0.05852   0.20260   0.56927   0.00000  Uiso   1.00
N137   N     0.54533   0.42138   0.03221   0.00000  Uiso   1.00
N138   N     0.99045   0.66854   0.57829   0.00000  Uiso   1.00
C139   C     0.89187   0.93760   0.72518   0.00000  Uiso   1.00
C140   C     0.89855   0.87304   0.78045   0.00000  Uiso   1.00
C141   C     0.77960   0.82221   0.80220   0.00000  Uiso   1.00
C142   C     0.80859   0.76720   0.85336   0.00000  Uiso   1.00
C143   C     0.79727   0.66753   0.93484   0.00000  Uiso   1.00
C144   C     0.03999   0.93332   0.65286   0.00000  Uiso   1.00
C145   C     0.03996   0.93319   0.56733   0.00000  Uiso   1.00
C146   C     0.18802   0.92894   0.51108   0.00000  Uiso   1.00
C147   C     0.39629   0.92292   0.39447   0.00000  Uiso   1.00
C148   C     0.91730   0.00143   0.77797   0.00000  Uiso   1.00
C149   C     0.81414   0.05858   0.79762   0.00000  Uiso   1.00
C150   C     0.85892   0.11168   0.84669   0.00000  Uiso   1.00
C151   C     0.87670   0.21141   0.92433   0.00000  Uiso   1.00
C152   C     0.15487   0.93029   0.77735   0.00000  Uiso   1.00
C153   C     0.04140   0.86906   0.80879   0.00000  Uiso   1.00
C154   C     0.07058   0.81412   0.85993   0.00000  Uiso   1.00
C155   C     0.95170   0.76322   0.88175   0.00000  Uiso   1.00
C156   C     0.18284   0.92935   0.68120   0.00000  Uiso   1.00
C157   C     0.33093   0.92510   0.62506   0.00000  Uiso   1.00
C158   C     0.33113   0.92496   0.53947   0.00000  Uiso   1.00
C159   C     0.06015   0.99746   0.80631   0.00000  Uiso   1.00
C160   C     0.10511   0.05048   0.85535   0.00000  Uiso   1.00
C161   C     0.00203   0.10770   0.87508   0.00000  Uiso   1.00
H162   H     0.78066   0.94070   0.70311   0.00000  Uiso   1.00
H163   H     0.66907   0.82530   0.78025   0.00000  Uiso   1.00
H164   H     0.92939   0.93627   0.54542   0.00000  Uiso   1.00
H165   H     0.70360   0.06164   0.77568   0.00000  Uiso   1.00
H166   H     0.60839   0.69560   0.87825   0.00000  Uiso   1.00
H167   H     0.15728   0.92961   0.38310   0.00000  Uiso   1.00
H168   H     0.68116   0.19397   0.86863   0.00000  Uiso   1.00
H169   H     0.26609   0.92719   0.79942   0.00000  Uiso   1.00
H170   H     0.18114   0.81105   0.88185   0.00000  Uiso   1.00
H171   H     0.44145   0.92203   0.64701   0.00000  Uiso   1.00
H172   H     0.21567   0.04739   0.87727   0.00000  Uiso   1.00
H173   H     0.02400   0.68403   0.96071   0.00000  Uiso   1.00
H174   H     0.57290   0.91805   0.46555   0.00000  Uiso   1.00
H175   H     0.09678   0.18241   0.95109   0.00000  Uiso   1.00
O176   O     0.75158   0.61365   0.97194   0.00000  Uiso   1.00
O177   O     0.47170   0.92068   0.32232   0.00000  Uiso   1.00
O178   O     0.84704   0.26751   0.95934   0.00000  Uiso   1.00
N179   N     0.71785   0.70882   0.88636   0.00000  Uiso   1.00
N180   N     0.23103   0.92760   0.42342   0.00000  Uiso   1.00
N181   N     0.78592   0.17476   0.87734   0.00000  Uiso   1.00
N182   N     0.94148   0.70260   0.93073   0.00000  Uiso   1.00
N183   N     0.45467   0.92138   0.46779   0.00000  Uiso   1.00
N184   N     0.00955   0.16854   0.92171   0.00000  Uiso   1.00
