data_job_06353
_audit_creation_date              2018-12-19
_audit_creation_method            'Materials Studio'
_symmetry_space_group_name_H-M    'P1'
_symmetry_Int_Tables_number       1
_symmetry_cell_setting            triclinic
loop_
_symmetry_equiv_pos_as_xyz
  x,y,z
_cell_length_a                    12.1547
_cell_length_b                    20.9146
_cell_length_c                    20.9398
_cell_angle_alpha                 63.5540
_cell_angle_beta                  79.2302
_cell_angle_gamma                 100.7405
loop_
_atom_site_label
_atom_site_type_symbol
_atom_site_fract_x
_atom_site_fract_y
_atom_site_fract_z
_atom_site_U_iso_or_equiv
_atom_site_adp_type
_atom_site_occupancy
C1     C     0.88796   0.97543   0.44198   0.00000  Uiso   1.00
C2     C     0.91086   0.94449   0.38887   0.00000  Uiso   1.00
C3     C     0.00663   0.92037   0.37431   0.00000  Uiso   1.00
C4     C     0.01157   0.89398   0.32395   0.00000  Uiso   1.00
C5     C     0.06050   0.84629   0.24671   0.00000  Uiso   1.00
C6     C     0.87576   0.05271   0.39536   0.00000  Uiso   1.00
C7     C     0.94201   0.11957   0.38627   0.00000  Uiso   1.00
C8     C     0.91739   0.18428   0.34137   0.00000  Uiso   1.00
C9     C     0.91176   0.30461   0.27424   0.00000  Uiso   1.00
C10    C     0.76658   0.92638   0.49815   0.00000  Uiso   1.00
C11    C     0.74102   0.88704   0.57549   0.00000  Uiso   1.00
C12    C     0.62447   0.84540   0.61714   0.00000  Uiso   1.00
C13    C     0.44934   0.76958   0.70962   0.00000  Uiso   1.00
C14    C     0.72642   0.97146   0.37843   0.00000  Uiso   1.00
C15    C     0.82311   0.94233   0.35435   0.00000  Uiso   1.00
C16    C     0.82791   0.91597   0.30400   0.00000  Uiso   1.00
C17    C     0.92367   0.89181   0.28937   0.00000  Uiso   1.00
C18    C     0.78802   0.05055   0.36084   0.00000  Uiso   1.00
C19    C     0.76329   0.11518   0.31595   0.00000  Uiso   1.00
C20    C     0.82949   0.18212   0.30679   0.00000  Uiso   1.00
C21    C     0.67884   0.92422   0.46363   0.00000  Uiso   1.00
C22    C     0.56230   0.88264   0.50517   0.00000  Uiso   1.00
C23    C     0.53657   0.84324   0.58256   0.00000  Uiso   1.00
H24    H     0.95627   0.97712   0.46885   0.00000  Uiso   1.00
H25    H     0.07452   0.92205   0.40104   0.00000  Uiso   1.00
H26    H     0.00990   0.12123   0.41299   0.00000  Uiso   1.00
H27    H     0.80894   0.88872   0.60219   0.00000  Uiso   1.00
H28    H     0.16694   0.86008   0.31060   0.00000  Uiso   1.00
H29    H     0.03066   0.28004   0.33583   0.00000  Uiso   1.00
H30    H     0.60691   0.78977   0.73479   0.00000  Uiso   1.00
H31    H     0.65811   0.96978   0.35155   0.00000  Uiso   1.00
H32    H     0.75999   0.91430   0.27729   0.00000  Uiso   1.00
H33    H     0.69538   0.11348   0.28925   0.00000  Uiso   1.00
H34    H     0.49443   0.88098   0.47844   0.00000  Uiso   1.00
H35    H     0.91167   0.85379   0.21017   0.00000  Uiso   1.00
H36    H     0.77538   0.27376   0.23540   0.00000  Uiso   1.00
H37    H     0.35164   0.78348   0.63435   0.00000  Uiso   1.00
O38    O     0.11173   0.82060   0.21363   0.00000  Uiso   1.00
O39    O     0.93291   0.37157   0.24675   0.00000  Uiso   1.00
O40    O     0.37697   0.72834   0.77016   0.00000  Uiso   1.00
N41    N     0.09287   0.86620   0.29717   0.00000  Uiso   1.00
N42    N     0.96547   0.25884   0.32074   0.00000  Uiso   1.00
N43    N     0.56929   0.80049   0.69374   0.00000  Uiso   1.00
N44    N     0.95551   0.86281   0.24312   0.00000  Uiso   1.00
N45    N     0.82810   0.25546   0.26670   0.00000  Uiso   1.00
N46    N     0.43193   0.79711   0.63969   0.00000  Uiso   1.00
C47    C     0.91168   0.58211   0.97614   0.00000  Uiso   1.00
C48    C     0.96470   0.66596   0.94558   0.00000  Uiso   1.00
C49    C     0.08366   0.70413   0.92237   0.00000  Uiso   1.00
C50    C     0.11435   0.78078   0.89620   0.00000  Uiso   1.00
C51    C     0.20964   0.90534   0.84922   0.00000  Uiso   1.00
C52    C     0.82395   0.55191   0.05293   0.00000  Uiso   1.00
C53    C     0.82457   0.49418   0.11997   0.00000  Uiso   1.00
C54    C     0.73676   0.47482   0.18417   0.00000  Uiso   1.00
C55    C     0.61349   0.42227   0.30385   0.00000  Uiso   1.00
C56    C     0.83877   0.57522   0.92633   0.00000  Uiso   1.00
C57    C     0.85183   0.53708   0.88694   0.00000  Uiso   1.00
C58    C     0.77648   0.53733   0.84456   0.00000  Uiso   1.00
C59    C     0.67622   0.52098   0.76768   0.00000  Uiso   1.00
C60    C     0.75464   0.65035   0.97093   0.00000  Uiso   1.00
C61    C     0.87939   0.70302   0.94276   0.00000  Uiso   1.00
C62    C     0.90991   0.77964   0.91661   0.00000  Uiso   1.00
C63    C     0.02890   0.81792   0.89336   0.00000  Uiso   1.00
C64    C     0.73865   0.58897   0.05011   0.00000  Uiso   1.00
C65    C     0.65082   0.56969   0.11422   0.00000  Uiso   1.00
C66    C     0.65131   0.51195   0.18134   0.00000  Uiso   1.00
C67    C     0.75347   0.61229   0.92350   0.00000  Uiso   1.00
C68    C     0.67808   0.61259   0.88118   0.00000  Uiso   1.00
C69    C     0.69102   0.57447   0.84173   0.00000  Uiso   1.00
H70    H     0.97809   0.55325   0.97834   0.00000  Uiso   1.00
H71    H     0.14965   0.67543   0.92457   0.00000  Uiso   1.00
H72    H     0.89059   0.46550   0.12214   0.00000  Uiso   1.00
H73    H     0.91784   0.50841   0.88915   0.00000  Uiso   1.00
H74    H     0.30223   0.82723   0.86374   0.00000  Uiso   1.00
H75    H     0.75597   0.38457   0.28032   0.00000  Uiso   1.00
H76    H     0.81344   0.47504   0.78901   0.00000  Uiso   1.00
H77    H     0.68822   0.67921   0.96873   0.00000  Uiso   1.00
H78    H     0.84388   0.80831   0.91443   0.00000  Uiso   1.00
H79    H     0.58482   0.59838   0.11201   0.00000  Uiso   1.00
H80    H     0.61208   0.64128   0.87901   0.00000  Uiso   1.00
H81    H     0.05406   0.93508   0.85551   0.00000  Uiso   1.00
H82    H     0.50779   0.49242   0.27210   0.00000  Uiso   1.00
H83    H     0.56527   0.58289   0.78078   0.00000  Uiso   1.00
O84    O     0.28576   0.96380   0.82410   0.00000  Uiso   1.00
O85    O     0.56908   0.38304   0.37064   0.00000  Uiso   1.00
O86    O     0.64449   0.50174   0.72604   0.00000  Uiso   1.00
N87    N     0.22246   0.83490   0.86924   0.00000  Uiso   1.00
N88    N     0.71175   0.42105   0.25872   0.00000  Uiso   1.00
N89    N     0.76546   0.50561   0.79940   0.00000  Uiso   1.00
N90    N     0.08892   0.89293   0.86481   0.00000  Uiso   1.00
N91    N     0.57821   0.47908   0.25430   0.00000  Uiso   1.00
N92    N     0.63193   0.56364   0.79497   0.00000  Uiso   1.00
C93    C     0.32863   0.44125   0.58305   0.00000  Uiso   1.00
C94    C     0.29945   0.38815   0.66690   0.00000  Uiso   1.00
C95    C     0.38060   0.37288   0.70584   0.00000  Uiso   1.00
C96    C     0.33622   0.32266   0.78234   0.00000  Uiso   1.00
C97    C     0.30934   0.24530   0.90702   0.00000  Uiso   1.00
C98    C     0.27082   0.39481   0.55226   0.00000  Uiso   1.00
C99    C     0.32791   0.38517   0.49480   0.00000  Uiso   1.00
C100   C     0.25943   0.34057   0.47479   0.00000  Uiso   1.00
C101   C     0.18810   0.27361   0.42144   0.00000  Uiso   1.00
C102   C     0.26271   0.49825   0.57566   0.00000  Uiso   1.00
C103   C     0.31297   0.57557   0.53785   0.00000  Uiso   1.00
C104   C     0.23765   0.61806   0.53753   0.00000  Uiso   1.00
C105   C     0.15373   0.71170   0.52052   0.00000  Uiso   1.00
C106   C     0.10550   0.37920   0.64967   0.00000  Uiso   1.00
C107   C     0.17825   0.35444   0.70308   0.00000  Uiso   1.00
C108   C     0.13373   0.30423   0.77955   0.00000  Uiso   1.00
C109   C     0.21480   0.28890   0.81859   0.00000  Uiso   1.00
C110   C     0.14963   0.36111   0.58844   0.00000  Uiso   1.00
C111   C     0.08104   0.31652   0.56851   0.00000  Uiso   1.00
C112   C     0.13801   0.30680   0.51104   0.00000  Uiso   1.00
C113   C     0.14151   0.46455   0.61184   0.00000  Uiso   1.00
C114   C     0.06610   0.50692   0.61157   0.00000  Uiso   1.00
C115   C     0.11624   0.58429   0.57378   0.00000  Uiso   1.00
H116   H     0.42298   0.46748   0.55488   0.00000  Uiso   1.00
H117   H     0.47438   0.39897   0.67782   0.00000  Uiso   1.00
H118   H     0.42170   0.41126   0.46680   0.00000  Uiso   1.00
H119   H     0.40676   0.60163   0.50986   0.00000  Uiso   1.00
H120   H     0.47792   0.30813   0.83007   0.00000  Uiso   1.00
H121   H     0.36683   0.33407   0.38512   0.00000  Uiso   1.00
H122   H     0.33533   0.73551   0.47591   0.00000  Uiso   1.00
H123   H     0.01114   0.35296   0.67784   0.00000  Uiso   1.00
H124   H     0.03994   0.27816   0.80753   0.00000  Uiso   1.00
H125   H     0.98726   0.29045   0.59652   0.00000  Uiso   1.00
H126   H     0.97232   0.48082   0.63958   0.00000  Uiso   1.00
H127   H     0.12531   0.21007   0.93535   0.00000  Uiso   1.00
H128   H     0.01422   0.23601   0.49039   0.00000  Uiso   1.00
H129   H     0.98272   0.63745   0.58119   0.00000  Uiso   1.00
O130   O     0.32799   0.21194   0.96580   0.00000  Uiso   1.00
O131   O     0.18225   0.24599   0.38203   0.00000  Uiso   1.00
O132   O     0.14092   0.77266   0.50115   0.00000  Uiso   1.00
N133   N     0.39098   0.29532   0.83705   0.00000  Uiso   1.00
N134   N     0.28712   0.31957   0.42105   0.00000  Uiso   1.00
N135   N     0.25767   0.69488   0.50592   0.00000  Uiso   1.00
N136   N     0.20124   0.24256   0.89370   0.00000  Uiso   1.00
N137   N     0.09739   0.26680   0.47771   0.00000  Uiso   1.00
N138   N     0.06793   0.64212   0.56257   0.00000  Uiso   1.00
C139   C     0.11204   0.02457   0.55802   0.00000  Uiso   1.00
C140   C     0.08914   0.05551   0.61113   0.00000  Uiso   1.00
C141   C     0.99337   0.07963   0.62569   0.00000  Uiso   1.00
C142   C     0.98843   0.10602   0.67605   0.00000  Uiso   1.00
C143   C     0.93950   0.15370   0.75329   0.00000  Uiso   1.00
C144   C     0.12424   0.94729   0.60464   0.00000  Uiso   1.00
C145   C     0.05799   0.88042   0.61373   0.00000  Uiso   1.00
C146   C     0.08261   0.81572   0.65863   0.00000  Uiso   1.00
C147   C     0.08824   0.69539   0.72576   0.00000  Uiso   1.00
C148   C     0.23342   0.07362   0.50185   0.00000  Uiso   1.00
C149   C     0.25898   0.11296   0.42451   0.00000  Uiso   1.00
C150   C     0.37553   0.15460   0.38286   0.00000  Uiso   1.00
C151   C     0.55066   0.23042   0.29038   0.00000  Uiso   1.00
C152   C     0.27358   0.02854   0.62157   0.00000  Uiso   1.00
C153   C     0.17689   0.05767   0.64565   0.00000  Uiso   1.00
C154   C     0.17209   0.08403   0.69600   0.00000  Uiso   1.00
C155   C     0.07633   0.10819   0.71063   0.00000  Uiso   1.00
C156   C     0.21198   0.94945   0.63916   0.00000  Uiso   1.00
C157   C     0.23671   0.88482   0.68405   0.00000  Uiso   1.00
C158   C     0.17051   0.81788   0.69321   0.00000  Uiso   1.00
C159   C     0.32116   0.07578   0.53637   0.00000  Uiso   1.00
C160   C     0.43770   0.11736   0.49483   0.00000  Uiso   1.00
C161   C     0.46343   0.15676   0.41744   0.00000  Uiso   1.00
H162   H     0.04373   0.02288   0.53115   0.00000  Uiso   1.00
H163   H     0.92548   0.07794   0.59896   0.00000  Uiso   1.00
H164   H     0.99010   0.87877   0.58701   0.00000  Uiso   1.00
H165   H     0.19106   0.11128   0.39781   0.00000  Uiso   1.00
H166   H     0.83306   0.13992   0.68940   0.00000  Uiso   1.00
H167   H     0.96934   0.71996   0.66417   0.00000  Uiso   1.00
H168   H     0.39309   0.21023   0.26521   0.00000  Uiso   1.00
H169   H     0.34189   0.03022   0.64845   0.00000  Uiso   1.00
H170   H     0.24001   0.08569   0.72271   0.00000  Uiso   1.00
H171   H     0.30462   0.88652   0.71075   0.00000  Uiso   1.00
H172   H     0.50557   0.11902   0.52156   0.00000  Uiso   1.00
H173   H     0.08833   0.14621   0.78983   0.00000  Uiso   1.00
H174   H     0.22462   0.72624   0.76460   0.00000  Uiso   1.00
H175   H     0.64836   0.21652   0.36565   0.00000  Uiso   1.00
O176   O     0.88827   0.17940   0.78637   0.00000  Uiso   1.00
O177   O     0.06709   0.62843   0.75325   0.00000  Uiso   1.00
O178   O     0.62303   0.27166   0.22984   0.00000  Uiso   1.00
N179   N     0.90713   0.13380   0.70283   0.00000  Uiso   1.00
N180   N     0.03453   0.74116   0.67926   0.00000  Uiso   1.00
N181   N     0.43071   0.19951   0.30626   0.00000  Uiso   1.00
N182   N     0.04449   0.13719   0.75688   0.00000  Uiso   1.00
N183   N     0.17190   0.74454   0.73330   0.00000  Uiso   1.00
N184   N     0.56807   0.20289   0.36031   0.00000  Uiso   1.00
C185   C     0.08832   0.41789   0.02386   0.00000  Uiso   1.00
C186   C     0.03530   0.33404   0.05442   0.00000  Uiso   1.00
C187   C     0.91634   0.29587   0.07763   0.00000  Uiso   1.00
C188   C     0.88565   0.21922   0.10380   0.00000  Uiso   1.00
C189   C     0.79036   0.09466   0.15078   0.00000  Uiso   1.00
C190   C     0.17605   0.44809   0.94707   0.00000  Uiso   1.00
C191   C     0.17543   0.50582   0.88003   0.00000  Uiso   1.00
C192   C     0.26324   0.52518   0.81583   0.00000  Uiso   1.00
C193   C     0.38651   0.57773   0.69615   0.00000  Uiso   1.00
C194   C     0.16123   0.42478   0.07366   0.00000  Uiso   1.00
C195   C     0.14817   0.46292   0.11305   0.00000  Uiso   1.00
C196   C     0.22352   0.46267   0.15544   0.00000  Uiso   1.00
C197   C     0.32378   0.47902   0.23232   0.00000  Uiso   1.00
C198   C     0.24536   0.34965   0.02907   0.00000  Uiso   1.00
C199   C     0.12061   0.29698   0.05724   0.00000  Uiso   1.00
C200   C     0.09009   0.22036   0.08339   0.00000  Uiso   1.00
C201   C     0.97110   0.18208   0.10664   0.00000  Uiso   1.00
C202   C     0.26135   0.41103   0.94989   0.00000  Uiso   1.00
C203   C     0.34918   0.43031   0.88578   0.00000  Uiso   1.00
C204   C     0.34869   0.48805   0.81866   0.00000  Uiso   1.00
C205   C     0.24653   0.38771   0.07650   0.00000  Uiso   1.00
C206   C     0.32192   0.38741   0.11882   0.00000  Uiso   1.00
C207   C     0.30898   0.42553   0.15827   0.00000  Uiso   1.00
H208   H     0.02191   0.44675   0.02166   0.00000  Uiso   1.00
H209   H     0.85035   0.32457   0.07543   0.00000  Uiso   1.00
H210   H     0.10941   0.53450   0.87786   0.00000  Uiso   1.00
H211   H     0.08216   0.49159   0.11085   0.00000  Uiso   1.00
H212   H     0.69777   0.17277   0.13626   0.00000  Uiso   1.00
H213   H     0.24403   0.61542   0.71968   0.00000  Uiso   1.00
H214   H     0.18656   0.52496   0.21099   0.00000  Uiso   1.00
H215   H     0.31178   0.32079   0.03127   0.00000  Uiso   1.00
H216   H     0.15612   0.19169   0.08557   0.00000  Uiso   1.00
H217   H     0.41518   0.40162   0.88799   0.00000  Uiso   1.00
H218   H     0.38792   0.35872   0.12099   0.00000  Uiso   1.00
H219   H     0.94594   0.06492   0.14449   0.00000  Uiso   1.00
H220   H     0.49221   0.50758   0.72790   0.00000  Uiso   1.00
H221   H     0.43473   0.41711   0.21922   0.00000  Uiso   1.00
O222   O     0.71424   0.03620   0.17590   0.00000  Uiso   1.00
O223   O     0.43092   0.61696   0.62936   0.00000  Uiso   1.00
O224   O     0.35551   0.49826   0.27396   0.00000  Uiso   1.00
N225   N     0.77754   0.16510   0.13076   0.00000  Uiso   1.00
N226   N     0.28825   0.57895   0.74128   0.00000  Uiso   1.00
N227   N     0.23454   0.49439   0.20060   0.00000  Uiso   1.00
N228   N     0.91108   0.10707   0.13519   0.00000  Uiso   1.00
N229   N     0.42179   0.52092   0.74570   0.00000  Uiso   1.00
N230   N     0.36807   0.43636   0.20503   0.00000  Uiso   1.00
C231   C     0.67137   0.55875   0.41695   0.00000  Uiso   1.00
C232   C     0.70055   0.61185   0.33310   0.00000  Uiso   1.00
C233   C     0.61940   0.62712   0.29416   0.00000  Uiso   1.00
C234   C     0.66378   0.67734   0.21766   0.00000  Uiso   1.00
C235   C     0.69066   0.75469   0.09298   0.00000  Uiso   1.00
C236   C     0.72918   0.60519   0.44774   0.00000  Uiso   1.00
C237   C     0.67209   0.61483   0.50520   0.00000  Uiso   1.00
C238   C     0.74057   0.65943   0.52521   0.00000  Uiso   1.00
C239   C     0.81190   0.72639   0.57856   0.00000  Uiso   1.00
C240   C     0.73729   0.50175   0.42434   0.00000  Uiso   1.00
C241   C     0.68703   0.42443   0.46215   0.00000  Uiso   1.00
C242   C     0.76235   0.38194   0.46247   0.00000  Uiso   1.00
C243   C     0.84627   0.28830   0.47948   0.00000  Uiso   1.00
C244   C     0.89450   0.62080   0.35033   0.00000  Uiso   1.00
C245   C     0.82175   0.64556   0.29692   0.00000  Uiso   1.00
C246   C     0.86627   0.69577   0.22045   0.00000  Uiso   1.00
C247   C     0.78520   0.71110   0.18141   0.00000  Uiso   1.00
C248   C     0.85037   0.63889   0.41156   0.00000  Uiso   1.00
C249   C     0.91896   0.68348   0.43149   0.00000  Uiso   1.00
C250   C     0.86199   0.69320   0.48896   0.00000  Uiso   1.00
C251   C     0.85849   0.53545   0.38816   0.00000  Uiso   1.00
C252   C     0.93390   0.49308   0.38843   0.00000  Uiso   1.00
C253   C     0.88376   0.41571   0.42622   0.00000  Uiso   1.00
H254   H     0.57702   0.53252   0.44512   0.00000  Uiso   1.00
H255   H     0.52562   0.60103   0.32218   0.00000  Uiso   1.00
H256   H     0.57830   0.58874   0.53320   0.00000  Uiso   1.00
H257   H     0.59324   0.39837   0.49014   0.00000  Uiso   1.00
H258   H     0.52208   0.69187   0.16993   0.00000  Uiso   1.00
H259   H     0.63317   0.66593   0.61488   0.00000  Uiso   1.00
H260   H     0.66467   0.26449   0.52409   0.00000  Uiso   1.00
H261   H     0.98886   0.64704   0.32216   0.00000  Uiso   1.00
H262   H     0.96006   0.72184   0.19247   0.00000  Uiso   1.00
H263   H     0.01274   0.70955   0.40348   0.00000  Uiso   1.00
H264   H     0.02768   0.51918   0.36042   0.00000  Uiso   1.00
H265   H     0.87469   0.78993   0.06465   0.00000  Uiso   1.00
H266   H     0.98578   0.76399   0.50961   0.00000  Uiso   1.00
H267   H     0.01728   0.36255   0.41881   0.00000  Uiso   1.00
O268   O     0.67201   0.78806   0.03420   0.00000  Uiso   1.00
O269   O     0.81775   0.75401   0.61797   0.00000  Uiso   1.00
O270   O     0.85908   0.22734   0.49885   0.00000  Uiso   1.00
N271   N     0.60902   0.70467   0.16295   0.00000  Uiso   1.00
N272   N     0.71288   0.68043   0.57895   0.00000  Uiso   1.00
N273   N     0.74233   0.30512   0.49408   0.00000  Uiso   1.00
N274   N     0.79876   0.75744   0.10630   0.00000  Uiso   1.00
N275   N     0.90261   0.73320   0.52229   0.00000  Uiso   1.00
N276   N     0.93207   0.35788   0.43743   0.00000  Uiso   1.00
