data_job_05700
_audit_creation_date              2018-12-19
_audit_creation_method            'Materials Studio'
_symmetry_space_group_name_H-M    'P1'
_symmetry_Int_Tables_number       1
_symmetry_cell_setting            triclinic
loop_
_symmetry_equiv_pos_as_xyz
  x,y,z
_cell_length_a                    21.3598
_cell_length_b                    17.6830
_cell_length_c                    17.3389
_cell_angle_alpha                 90.0000
_cell_angle_beta                  90.0000
_cell_angle_gamma                 90.0000
loop_
_atom_site_label
_atom_site_type_symbol
_atom_site_fract_x
_atom_site_fract_y
_atom_site_fract_z
_atom_site_U_iso_or_equiv
_atom_site_adp_type
_atom_site_occupancy
C1     C     0.16611   0.11530   0.51410   0.00000  Uiso   1.00
C2     C     0.23368   0.10030   0.53801   0.00000  Uiso   1.00
C3     C     0.28655   0.12023   0.49618   0.00000  Uiso   1.00
C4     C     0.34418   0.10150   0.52790   0.00000  Uiso   1.00
C5     C     0.44842   0.08385   0.55420   0.00000  Uiso   1.00
C6     C     0.13364   0.03849   0.51388   0.00000  Uiso   1.00
C7     C     0.10240   0.00647   0.45176   0.00000  Uiso   1.00
C8     C     0.07581   0.93570   0.46319   0.00000  Uiso   1.00
C9     C     0.02469   0.82213   0.45205   0.00000  Uiso   1.00
C10    C     0.13670   0.16000   0.58001   0.00000  Uiso   1.00
C11    C     0.10801   0.23012   0.57349   0.00000  Uiso   1.00
C12    C     0.08398   0.26165   0.64059   0.00000  Uiso   1.00
C13    C     0.03761   0.33672   0.73213   0.00000  Uiso   1.00
C14    C     0.17443   0.04657   0.64485   0.00000  Uiso   1.00
C15    C     0.23820   0.06297   0.60902   0.00000  Uiso   1.00
C16    C     0.29576   0.04420   0.64083   0.00000  Uiso   1.00
C17    C     0.34871   0.06410   0.59905   0.00000  Uiso   1.00
C18    C     0.13816   0.00116   0.58490   0.00000  Uiso   1.00
C19    C     0.11160   0.93043   0.59642   0.00000  Uiso   1.00
C20    C     0.08033   0.89830   0.53433   0.00000  Uiso   1.00
C21    C     0.14122   0.12267   0.65103   0.00000  Uiso   1.00
C22    C     0.11722   0.15409   0.71815   0.00000  Uiso   1.00
C23    C     0.08850   0.22425   0.71174   0.00000  Uiso   1.00
H24    H     0.16259   0.14436   0.45881   0.00000  Uiso   1.00
H25    H     0.28304   0.14912   0.44121   0.00000  Uiso   1.00
H26    H     0.09891   0.03537   0.39682   0.00000  Uiso   1.00
H27    H     0.10452   0.25899   0.51853   0.00000  Uiso   1.00
H28    H     0.41857   0.13791   0.45301   0.00000  Uiso   1.00
H29    H     0.03030   0.89808   0.35940   0.00000  Uiso   1.00
H30    H     0.04214   0.36963   0.61605   0.00000  Uiso   1.00
H31    H     0.17794   0.01751   0.70014   0.00000  Uiso   1.00
H32    H     0.29924   0.01531   0.69579   0.00000  Uiso   1.00
H33    H     0.11511   0.90156   0.65138   0.00000  Uiso   1.00
H34    H     0.12072   0.12519   0.77309   0.00000  Uiso   1.00
H35    H     0.43172   0.02930   0.65963   0.00000  Uiso   1.00
H36    H     0.04345   0.78948   0.56602   0.00000  Uiso   1.00
H37    H     0.05529   0.26103   0.82267   0.00000  Uiso   1.00
O38    O     0.50466   0.08442   0.54909   0.00000  Uiso   1.00
O39    O     0.99526   0.76979   0.42628   0.00000  Uiso   1.00
O40    O     0.01079   0.38845   0.76300   0.00000  Uiso   1.00
N41    N     0.40502   0.11266   0.50224   0.00000  Uiso   1.00
N42    N     0.04202   0.88843   0.41472   0.00000  Uiso   1.00
N43    N     0.05307   0.32928   0.65466   0.00000  Uiso   1.00
N44    N     0.41210   0.05422   0.61342   0.00000  Uiso   1.00
N45    N     0.04910   0.82999   0.52590   0.00000  Uiso   1.00
N46    N     0.06015   0.27085   0.76584   0.00000  Uiso   1.00
C47    C     0.16611   0.61530   0.01410   0.00000  Uiso   1.00
C48    C     0.23368   0.60030   0.03801   0.00000  Uiso   1.00
C49    C     0.28655   0.62023   0.99618   0.00000  Uiso   1.00
C50    C     0.34418   0.60150   0.02790   0.00000  Uiso   1.00
C51    C     0.44842   0.58385   0.05420   0.00000  Uiso   1.00
C52    C     0.13364   0.53849   0.01388   0.00000  Uiso   1.00
C53    C     0.10240   0.50647   0.95176   0.00000  Uiso   1.00
C54    C     0.07581   0.43570   0.96319   0.00000  Uiso   1.00
C55    C     0.02469   0.32213   0.95205   0.00000  Uiso   1.00
C56    C     0.13670   0.66000   0.08001   0.00000  Uiso   1.00
C57    C     0.10801   0.73012   0.07349   0.00000  Uiso   1.00
C58    C     0.08398   0.76165   0.14059   0.00000  Uiso   1.00
C59    C     0.03761   0.83672   0.23213   0.00000  Uiso   1.00
C60    C     0.17443   0.54657   0.14485   0.00000  Uiso   1.00
C61    C     0.23820   0.56297   0.10902   0.00000  Uiso   1.00
C62    C     0.29576   0.54420   0.14083   0.00000  Uiso   1.00
C63    C     0.34871   0.56410   0.09905   0.00000  Uiso   1.00
C64    C     0.13816   0.50116   0.08490   0.00000  Uiso   1.00
C65    C     0.11160   0.43043   0.09642   0.00000  Uiso   1.00
C66    C     0.08033   0.39830   0.03433   0.00000  Uiso   1.00
C67    C     0.14122   0.62267   0.15103   0.00000  Uiso   1.00
C68    C     0.11722   0.65409   0.21815   0.00000  Uiso   1.00
C69    C     0.08850   0.72425   0.21174   0.00000  Uiso   1.00
H70    H     0.16259   0.64436   0.95881   0.00000  Uiso   1.00
H71    H     0.28304   0.64912   0.94121   0.00000  Uiso   1.00
H72    H     0.09891   0.53537   0.89682   0.00000  Uiso   1.00
H73    H     0.10452   0.75899   0.01853   0.00000  Uiso   1.00
H74    H     0.41857   0.63791   0.95301   0.00000  Uiso   1.00
H75    H     0.03030   0.39808   0.85940   0.00000  Uiso   1.00
H76    H     0.04214   0.86963   0.11605   0.00000  Uiso   1.00
H77    H     0.17794   0.51751   0.20014   0.00000  Uiso   1.00
H78    H     0.29924   0.51531   0.19579   0.00000  Uiso   1.00
H79    H     0.11511   0.40156   0.15138   0.00000  Uiso   1.00
H80    H     0.12072   0.62519   0.27309   0.00000  Uiso   1.00
H81    H     0.43172   0.52930   0.15963   0.00000  Uiso   1.00
H82    H     0.04345   0.28948   0.06602   0.00000  Uiso   1.00
H83    H     0.05529   0.76103   0.32267   0.00000  Uiso   1.00
O84    O     0.50466   0.58442   0.04909   0.00000  Uiso   1.00
O85    O     0.99526   0.26979   0.92628   0.00000  Uiso   1.00
O86    O     0.01079   0.88845   0.26300   0.00000  Uiso   1.00
N87    N     0.40502   0.61266   0.00224   0.00000  Uiso   1.00
N88    N     0.04202   0.38843   0.91472   0.00000  Uiso   1.00
N89    N     0.05307   0.82928   0.15466   0.00000  Uiso   1.00
N90    N     0.41210   0.55422   0.11342   0.00000  Uiso   1.00
N91    N     0.04910   0.32999   0.02590   0.00000  Uiso   1.00
N92    N     0.06015   0.77085   0.26584   0.00000  Uiso   1.00
C93    C     0.83389   0.88470   0.51410   0.00000  Uiso   1.00
C94    C     0.76632   0.89970   0.53801   0.00000  Uiso   1.00
C95    C     0.71345   0.87977   0.49618   0.00000  Uiso   1.00
C96    C     0.65582   0.89850   0.52790   0.00000  Uiso   1.00
C97    C     0.55158   0.91615   0.55420   0.00000  Uiso   1.00
C98    C     0.86636   0.96151   0.51388   0.00000  Uiso   1.00
C99    C     0.89760   0.99353   0.45176   0.00000  Uiso   1.00
C100   C     0.92419   0.06430   0.46319   0.00000  Uiso   1.00
C101   C     0.97531   0.17787   0.45205   0.00000  Uiso   1.00
C102   C     0.86330   0.84000   0.58001   0.00000  Uiso   1.00
C103   C     0.89199   0.76988   0.57349   0.00000  Uiso   1.00
C104   C     0.91602   0.73835   0.64059   0.00000  Uiso   1.00
C105   C     0.96239   0.66328   0.73213   0.00000  Uiso   1.00
C106   C     0.82557   0.95343   0.64485   0.00000  Uiso   1.00
C107   C     0.76180   0.93703   0.60902   0.00000  Uiso   1.00
C108   C     0.70424   0.95580   0.64083   0.00000  Uiso   1.00
C109   C     0.65129   0.93590   0.59905   0.00000  Uiso   1.00
C110   C     0.86184   0.99884   0.58490   0.00000  Uiso   1.00
C111   C     0.88840   0.06957   0.59642   0.00000  Uiso   1.00
C112   C     0.91967   0.10170   0.53433   0.00000  Uiso   1.00
C113   C     0.85878   0.87733   0.65103   0.00000  Uiso   1.00
C114   C     0.88278   0.84591   0.71815   0.00000  Uiso   1.00
C115   C     0.91150   0.77575   0.71174   0.00000  Uiso   1.00
H116   H     0.83741   0.85564   0.45881   0.00000  Uiso   1.00
H117   H     0.71696   0.85088   0.44121   0.00000  Uiso   1.00
H118   H     0.90109   0.96463   0.39682   0.00000  Uiso   1.00
H119   H     0.89548   0.74101   0.51853   0.00000  Uiso   1.00
H120   H     0.58143   0.86209   0.45301   0.00000  Uiso   1.00
H121   H     0.96970   0.10192   0.35940   0.00000  Uiso   1.00
H122   H     0.95786   0.63037   0.61605   0.00000  Uiso   1.00
H123   H     0.82206   0.98249   0.70014   0.00000  Uiso   1.00
H124   H     0.70076   0.98469   0.69579   0.00000  Uiso   1.00
H125   H     0.88489   0.09844   0.65138   0.00000  Uiso   1.00
H126   H     0.87928   0.87481   0.77309   0.00000  Uiso   1.00
H127   H     0.56828   0.97070   0.65963   0.00000  Uiso   1.00
H128   H     0.95655   0.21052   0.56602   0.00000  Uiso   1.00
H129   H     0.94471   0.73897   0.82267   0.00000  Uiso   1.00
O130   O     0.49534   0.91558   0.54909   0.00000  Uiso   1.00
O131   O     0.00474   0.23021   0.42628   0.00000  Uiso   1.00
O132   O     0.98921   0.61155   0.76300   0.00000  Uiso   1.00
N133   N     0.59498   0.88734   0.50224   0.00000  Uiso   1.00
N134   N     0.95798   0.11157   0.41472   0.00000  Uiso   1.00
N135   N     0.94693   0.67072   0.65466   0.00000  Uiso   1.00
N136   N     0.58790   0.94578   0.61342   0.00000  Uiso   1.00
N137   N     0.95090   0.17001   0.52590   0.00000  Uiso   1.00
N138   N     0.93985   0.72915   0.76584   0.00000  Uiso   1.00
C139   C     0.83389   0.38470   0.01410   0.00000  Uiso   1.00
C140   C     0.76632   0.39970   0.03801   0.00000  Uiso   1.00
C141   C     0.71345   0.37977   0.99618   0.00000  Uiso   1.00
C142   C     0.65582   0.39850   0.02790   0.00000  Uiso   1.00
C143   C     0.55158   0.41615   0.05420   0.00000  Uiso   1.00
C144   C     0.86636   0.46151   0.01388   0.00000  Uiso   1.00
C145   C     0.89760   0.49353   0.95176   0.00000  Uiso   1.00
C146   C     0.92419   0.56430   0.96319   0.00000  Uiso   1.00
C147   C     0.97531   0.67787   0.95205   0.00000  Uiso   1.00
C148   C     0.86330   0.34000   0.08001   0.00000  Uiso   1.00
C149   C     0.89199   0.26988   0.07349   0.00000  Uiso   1.00
C150   C     0.91602   0.23835   0.14059   0.00000  Uiso   1.00
C151   C     0.96239   0.16328   0.23213   0.00000  Uiso   1.00
C152   C     0.82557   0.45343   0.14485   0.00000  Uiso   1.00
C153   C     0.76180   0.43703   0.10902   0.00000  Uiso   1.00
C154   C     0.70424   0.45580   0.14083   0.00000  Uiso   1.00
C155   C     0.65129   0.43590   0.09905   0.00000  Uiso   1.00
C156   C     0.86184   0.49884   0.08490   0.00000  Uiso   1.00
C157   C     0.88840   0.56957   0.09642   0.00000  Uiso   1.00
C158   C     0.91967   0.60170   0.03433   0.00000  Uiso   1.00
C159   C     0.85878   0.37733   0.15103   0.00000  Uiso   1.00
C160   C     0.88278   0.34591   0.21815   0.00000  Uiso   1.00
C161   C     0.91150   0.27575   0.21174   0.00000  Uiso   1.00
H162   H     0.83741   0.35564   0.95881   0.00000  Uiso   1.00
H163   H     0.71696   0.35088   0.94121   0.00000  Uiso   1.00
H164   H     0.90109   0.46463   0.89682   0.00000  Uiso   1.00
H165   H     0.89548   0.24101   0.01853   0.00000  Uiso   1.00
H166   H     0.58143   0.36209   0.95301   0.00000  Uiso   1.00
H167   H     0.96970   0.60192   0.85940   0.00000  Uiso   1.00
H168   H     0.95786   0.13037   0.11605   0.00000  Uiso   1.00
H169   H     0.82206   0.48249   0.20014   0.00000  Uiso   1.00
H170   H     0.70076   0.48469   0.19579   0.00000  Uiso   1.00
H171   H     0.88489   0.59844   0.15138   0.00000  Uiso   1.00
H172   H     0.87928   0.37481   0.27309   0.00000  Uiso   1.00
H173   H     0.56828   0.47070   0.15963   0.00000  Uiso   1.00
H174   H     0.95655   0.71052   0.06602   0.00000  Uiso   1.00
H175   H     0.94471   0.23897   0.32267   0.00000  Uiso   1.00
O176   O     0.49534   0.41558   0.04909   0.00000  Uiso   1.00
O177   O     0.00474   0.73021   0.92628   0.00000  Uiso   1.00
O178   O     0.98921   0.11155   0.26300   0.00000  Uiso   1.00
N179   N     0.59498   0.38734   0.00224   0.00000  Uiso   1.00
N180   N     0.95798   0.61157   0.91472   0.00000  Uiso   1.00
N181   N     0.94693   0.17072   0.15466   0.00000  Uiso   1.00
N182   N     0.58790   0.44578   0.11342   0.00000  Uiso   1.00
N183   N     0.95090   0.67001   0.02590   0.00000  Uiso   1.00
N184   N     0.93985   0.22915   0.26584   0.00000  Uiso   1.00
C185   C     0.66611   0.38470   0.51410   0.00000  Uiso   1.00
C186   C     0.73368   0.39970   0.53801   0.00000  Uiso   1.00
C187   C     0.78655   0.37977   0.49618   0.00000  Uiso   1.00
C188   C     0.84418   0.39850   0.52790   0.00000  Uiso   1.00
C189   C     0.94842   0.41615   0.55420   0.00000  Uiso   1.00
C190   C     0.63364   0.46151   0.51388   0.00000  Uiso   1.00
C191   C     0.60240   0.49353   0.45176   0.00000  Uiso   1.00
C192   C     0.57581   0.56430   0.46319   0.00000  Uiso   1.00
C193   C     0.52469   0.67787   0.45205   0.00000  Uiso   1.00
C194   C     0.63670   0.34000   0.58001   0.00000  Uiso   1.00
C195   C     0.60801   0.26988   0.57349   0.00000  Uiso   1.00
C196   C     0.58398   0.23835   0.64059   0.00000  Uiso   1.00
C197   C     0.53761   0.16328   0.73213   0.00000  Uiso   1.00
C198   C     0.67443   0.45343   0.64485   0.00000  Uiso   1.00
C199   C     0.73820   0.43703   0.60902   0.00000  Uiso   1.00
C200   C     0.79576   0.45580   0.64083   0.00000  Uiso   1.00
C201   C     0.84871   0.43590   0.59905   0.00000  Uiso   1.00
C202   C     0.63816   0.49884   0.58490   0.00000  Uiso   1.00
C203   C     0.61160   0.56957   0.59642   0.00000  Uiso   1.00
C204   C     0.58033   0.60170   0.53433   0.00000  Uiso   1.00
C205   C     0.64122   0.37733   0.65103   0.00000  Uiso   1.00
C206   C     0.61722   0.34591   0.71815   0.00000  Uiso   1.00
C207   C     0.58850   0.27575   0.71174   0.00000  Uiso   1.00
H208   H     0.66259   0.35564   0.45881   0.00000  Uiso   1.00
H209   H     0.78304   0.35088   0.44121   0.00000  Uiso   1.00
H210   H     0.59891   0.46463   0.39682   0.00000  Uiso   1.00
H211   H     0.60452   0.24101   0.51853   0.00000  Uiso   1.00
H212   H     0.91857   0.36209   0.45301   0.00000  Uiso   1.00
H213   H     0.53030   0.60192   0.35940   0.00000  Uiso   1.00
H214   H     0.54214   0.13037   0.61605   0.00000  Uiso   1.00
H215   H     0.67794   0.48249   0.70014   0.00000  Uiso   1.00
H216   H     0.79924   0.48469   0.69579   0.00000  Uiso   1.00
H217   H     0.61511   0.59844   0.65138   0.00000  Uiso   1.00
H218   H     0.62072   0.37481   0.77309   0.00000  Uiso   1.00
H219   H     0.93172   0.47070   0.65963   0.00000  Uiso   1.00
H220   H     0.54345   0.71052   0.56602   0.00000  Uiso   1.00
H221   H     0.55529   0.23897   0.82267   0.00000  Uiso   1.00
O222   O     0.00466   0.41558   0.54909   0.00000  Uiso   1.00
O223   O     0.49526   0.73021   0.42628   0.00000  Uiso   1.00
O224   O     0.51079   0.11155   0.76300   0.00000  Uiso   1.00
N225   N     0.90502   0.38734   0.50224   0.00000  Uiso   1.00
N226   N     0.54202   0.61157   0.41472   0.00000  Uiso   1.00
N227   N     0.55307   0.17072   0.65466   0.00000  Uiso   1.00
N228   N     0.91210   0.44578   0.61342   0.00000  Uiso   1.00
N229   N     0.54910   0.67001   0.52590   0.00000  Uiso   1.00
N230   N     0.56015   0.22915   0.76584   0.00000  Uiso   1.00
C231   C     0.66611   0.88470   0.01410   0.00000  Uiso   1.00
C232   C     0.73368   0.89970   0.03801   0.00000  Uiso   1.00
C233   C     0.78655   0.87977   0.99618   0.00000  Uiso   1.00
C234   C     0.84418   0.89850   0.02790   0.00000  Uiso   1.00
C235   C     0.94842   0.91615   0.05420   0.00000  Uiso   1.00
C236   C     0.63364   0.96151   0.01388   0.00000  Uiso   1.00
C237   C     0.60240   0.99353   0.95176   0.00000  Uiso   1.00
C238   C     0.57581   0.06430   0.96319   0.00000  Uiso   1.00
C239   C     0.52469   0.17787   0.95205   0.00000  Uiso   1.00
C240   C     0.63670   0.84000   0.08001   0.00000  Uiso   1.00
C241   C     0.60801   0.76988   0.07349   0.00000  Uiso   1.00
C242   C     0.58398   0.73835   0.14059   0.00000  Uiso   1.00
C243   C     0.53761   0.66328   0.23213   0.00000  Uiso   1.00
C244   C     0.67443   0.95343   0.14485   0.00000  Uiso   1.00
C245   C     0.73820   0.93703   0.10902   0.00000  Uiso   1.00
C246   C     0.79576   0.95580   0.14083   0.00000  Uiso   1.00
C247   C     0.84871   0.93590   0.09905   0.00000  Uiso   1.00
C248   C     0.63816   0.99884   0.08490   0.00000  Uiso   1.00
C249   C     0.61160   0.06957   0.09642   0.00000  Uiso   1.00
C250   C     0.58033   0.10170   0.03433   0.00000  Uiso   1.00
C251   C     0.64122   0.87733   0.15103   0.00000  Uiso   1.00
C252   C     0.61722   0.84591   0.21815   0.00000  Uiso   1.00
C253   C     0.58850   0.77575   0.21174   0.00000  Uiso   1.00
H254   H     0.66259   0.85564   0.95881   0.00000  Uiso   1.00
H255   H     0.78304   0.85088   0.94121   0.00000  Uiso   1.00
H256   H     0.59891   0.96463   0.89682   0.00000  Uiso   1.00
H257   H     0.60452   0.74101   0.01853   0.00000  Uiso   1.00
H258   H     0.91857   0.86209   0.95301   0.00000  Uiso   1.00
H259   H     0.53030   0.10192   0.85940   0.00000  Uiso   1.00
H260   H     0.54214   0.63037   0.11605   0.00000  Uiso   1.00
H261   H     0.67794   0.98249   0.20014   0.00000  Uiso   1.00
H262   H     0.79924   0.98469   0.19579   0.00000  Uiso   1.00
H263   H     0.61511   0.09844   0.15138   0.00000  Uiso   1.00
H264   H     0.62072   0.87481   0.27309   0.00000  Uiso   1.00
H265   H     0.93172   0.97070   0.15963   0.00000  Uiso   1.00
H266   H     0.54345   0.21052   0.06602   0.00000  Uiso   1.00
H267   H     0.55529   0.73897   0.32267   0.00000  Uiso   1.00
O268   O     0.00466   0.91558   0.04909   0.00000  Uiso   1.00
O269   O     0.49526   0.23021   0.92628   0.00000  Uiso   1.00
O270   O     0.51079   0.61155   0.26300   0.00000  Uiso   1.00
N271   N     0.90502   0.88734   0.00224   0.00000  Uiso   1.00
N272   N     0.54202   0.11157   0.91472   0.00000  Uiso   1.00
N273   N     0.55307   0.67072   0.15466   0.00000  Uiso   1.00
N274   N     0.91210   0.94578   0.11342   0.00000  Uiso   1.00
N275   N     0.54910   0.17001   0.02590   0.00000  Uiso   1.00
N276   N     0.56015   0.72915   0.26584   0.00000  Uiso   1.00
C277   C     0.33389   0.61530   0.51410   0.00000  Uiso   1.00
C278   C     0.26632   0.60030   0.53801   0.00000  Uiso   1.00
C279   C     0.21345   0.62023   0.49618   0.00000  Uiso   1.00
C280   C     0.15582   0.60150   0.52790   0.00000  Uiso   1.00
C281   C     0.05158   0.58385   0.55420   0.00000  Uiso   1.00
C282   C     0.36636   0.53849   0.51388   0.00000  Uiso   1.00
C283   C     0.39760   0.50647   0.45176   0.00000  Uiso   1.00
C284   C     0.42419   0.43570   0.46319   0.00000  Uiso   1.00
C285   C     0.47531   0.32213   0.45205   0.00000  Uiso   1.00
C286   C     0.36330   0.66000   0.58001   0.00000  Uiso   1.00
C287   C     0.39199   0.73012   0.57349   0.00000  Uiso   1.00
C288   C     0.41602   0.76165   0.64059   0.00000  Uiso   1.00
C289   C     0.46239   0.83672   0.73213   0.00000  Uiso   1.00
C290   C     0.32557   0.54657   0.64485   0.00000  Uiso   1.00
C291   C     0.26180   0.56297   0.60902   0.00000  Uiso   1.00
C292   C     0.20424   0.54420   0.64083   0.00000  Uiso   1.00
C293   C     0.15129   0.56410   0.59905   0.00000  Uiso   1.00
C294   C     0.36184   0.50116   0.58490   0.00000  Uiso   1.00
C295   C     0.38840   0.43043   0.59642   0.00000  Uiso   1.00
C296   C     0.41967   0.39830   0.53433   0.00000  Uiso   1.00
C297   C     0.35878   0.62267   0.65103   0.00000  Uiso   1.00
C298   C     0.38278   0.65409   0.71815   0.00000  Uiso   1.00
C299   C     0.41150   0.72425   0.71174   0.00000  Uiso   1.00
H300   H     0.33741   0.64436   0.45881   0.00000  Uiso   1.00
H301   H     0.21696   0.64912   0.44121   0.00000  Uiso   1.00
H302   H     0.40109   0.53537   0.39682   0.00000  Uiso   1.00
H303   H     0.39548   0.75899   0.51853   0.00000  Uiso   1.00
H304   H     0.08143   0.63791   0.45301   0.00000  Uiso   1.00
H305   H     0.46970   0.39808   0.35940   0.00000  Uiso   1.00
H306   H     0.45786   0.86963   0.61605   0.00000  Uiso   1.00
H307   H     0.32206   0.51751   0.70014   0.00000  Uiso   1.00
H308   H     0.20076   0.51531   0.69579   0.00000  Uiso   1.00
H309   H     0.38489   0.40156   0.65138   0.00000  Uiso   1.00
H310   H     0.37928   0.62519   0.77309   0.00000  Uiso   1.00
H311   H     0.06828   0.52930   0.65963   0.00000  Uiso   1.00
H312   H     0.45655   0.28948   0.56602   0.00000  Uiso   1.00
H313   H     0.44471   0.76103   0.82267   0.00000  Uiso   1.00
O314   O     0.99534   0.58442   0.54909   0.00000  Uiso   1.00
O315   O     0.50474   0.26979   0.42628   0.00000  Uiso   1.00
O316   O     0.48921   0.88845   0.76300   0.00000  Uiso   1.00
N317   N     0.09498   0.61266   0.50224   0.00000  Uiso   1.00
N318   N     0.45798   0.38843   0.41472   0.00000  Uiso   1.00
N319   N     0.44693   0.82928   0.65466   0.00000  Uiso   1.00
N320   N     0.08790   0.55422   0.61342   0.00000  Uiso   1.00
N321   N     0.45090   0.32999   0.52590   0.00000  Uiso   1.00
N322   N     0.43985   0.77085   0.76584   0.00000  Uiso   1.00
C323   C     0.33389   0.11530   0.01410   0.00000  Uiso   1.00
C324   C     0.26632   0.10030   0.03801   0.00000  Uiso   1.00
C325   C     0.21345   0.12023   0.99618   0.00000  Uiso   1.00
C326   C     0.15582   0.10150   0.02790   0.00000  Uiso   1.00
C327   C     0.05158   0.08385   0.05420   0.00000  Uiso   1.00
C328   C     0.36636   0.03849   0.01388   0.00000  Uiso   1.00
C329   C     0.39760   0.00647   0.95176   0.00000  Uiso   1.00
C330   C     0.42419   0.93570   0.96319   0.00000  Uiso   1.00
C331   C     0.47531   0.82213   0.95205   0.00000  Uiso   1.00
C332   C     0.36330   0.16000   0.08001   0.00000  Uiso   1.00
C333   C     0.39199   0.23012   0.07349   0.00000  Uiso   1.00
C334   C     0.41602   0.26165   0.14059   0.00000  Uiso   1.00
C335   C     0.46239   0.33672   0.23213   0.00000  Uiso   1.00
C336   C     0.32557   0.04657   0.14485   0.00000  Uiso   1.00
C337   C     0.26180   0.06297   0.10902   0.00000  Uiso   1.00
C338   C     0.20424   0.04420   0.14083   0.00000  Uiso   1.00
C339   C     0.15129   0.06410   0.09905   0.00000  Uiso   1.00
C340   C     0.36184   0.00116   0.08490   0.00000  Uiso   1.00
C341   C     0.38840   0.93043   0.09642   0.00000  Uiso   1.00
C342   C     0.41967   0.89830   0.03433   0.00000  Uiso   1.00
C343   C     0.35878   0.12267   0.15103   0.00000  Uiso   1.00
C344   C     0.38278   0.15409   0.21815   0.00000  Uiso   1.00
C345   C     0.41150   0.22425   0.21174   0.00000  Uiso   1.00
H346   H     0.33741   0.14436   0.95881   0.00000  Uiso   1.00
H347   H     0.21696   0.14912   0.94121   0.00000  Uiso   1.00
H348   H     0.40109   0.03537   0.89682   0.00000  Uiso   1.00
H349   H     0.39548   0.25899   0.01853   0.00000  Uiso   1.00
H350   H     0.08143   0.13791   0.95301   0.00000  Uiso   1.00
H351   H     0.46970   0.89808   0.85940   0.00000  Uiso   1.00
H352   H     0.45786   0.36963   0.11605   0.00000  Uiso   1.00
H353   H     0.32206   0.01751   0.20014   0.00000  Uiso   1.00
H354   H     0.20076   0.01531   0.19579   0.00000  Uiso   1.00
H355   H     0.38489   0.90156   0.15138   0.00000  Uiso   1.00
H356   H     0.37928   0.12519   0.27309   0.00000  Uiso   1.00
H357   H     0.06828   0.02930   0.15963   0.00000  Uiso   1.00
H358   H     0.45655   0.78948   0.06602   0.00000  Uiso   1.00
H359   H     0.44471   0.26103   0.32267   0.00000  Uiso   1.00
O360   O     0.99534   0.08442   0.04909   0.00000  Uiso   1.00
O361   O     0.50474   0.76979   0.92628   0.00000  Uiso   1.00
O362   O     0.48921   0.38845   0.26300   0.00000  Uiso   1.00
N363   N     0.09498   0.11266   0.00224   0.00000  Uiso   1.00
N364   N     0.45798   0.88843   0.91472   0.00000  Uiso   1.00
N365   N     0.44693   0.32928   0.15466   0.00000  Uiso   1.00
N366   N     0.08790   0.05422   0.11342   0.00000  Uiso   1.00
N367   N     0.45090   0.82999   0.02590   0.00000  Uiso   1.00
N368   N     0.43985   0.27085   0.26584   0.00000  Uiso   1.00
