data_job_02347
_audit_creation_date              2018-12-19
_audit_creation_method            'Materials Studio'
_symmetry_space_group_name_H-M    'P1'
_symmetry_Int_Tables_number       1
_symmetry_cell_setting            triclinic
loop_
_symmetry_equiv_pos_as_xyz
  x,y,z
_cell_length_a                    32.1463
_cell_length_b                    9.3864
_cell_length_c                    24.1468
_cell_angle_alpha                 90.0000
_cell_angle_beta                  123.5980
_cell_angle_gamma                 90.0000
loop_
_atom_site_label
_atom_site_type_symbol
_atom_site_fract_x
_atom_site_fract_y
_atom_site_fract_z
_atom_site_U_iso_or_equiv
_atom_site_adp_type
_atom_site_occupancy
C1     C     0.86726   0.86765   0.36091   0.00000  Uiso   1.00
C2     C     0.87305   0.02895   0.36918   0.00000  Uiso   1.00
C3     C     0.91707   0.10116   0.41311   0.00000  Uiso   1.00
C4     C     0.91461   0.24884   0.41312   0.00000  Uiso   1.00
C5     C     0.93045   0.48823   0.43238   0.00000  Uiso   1.00
C6     C     0.84545   0.83821   0.28764   0.00000  Uiso   1.00
C7     C     0.86627   0.75003   0.26303   0.00000  Uiso   1.00
C8     C     0.84057   0.73713   0.19441   0.00000  Uiso   1.00
C9     C     0.81354   0.68031   0.08709   0.00000  Uiso   1.00
C10    C     0.82663   0.82753   0.37240   0.00000  Uiso   1.00
C11    C     0.83161   0.73035   0.41903   0.00000  Uiso   1.00
C12    C     0.79006   0.70843   0.42175   0.00000  Uiso   1.00
C13    C     0.73380   0.63503   0.44603   0.00000  Uiso   1.00
C14    C     0.78461   0.00149   0.28282   0.00000  Uiso   1.00
C15    C     0.82816   0.10164   0.32676   0.00000  Uiso   1.00
C16    C     0.82564   0.24924   0.32671   0.00000  Uiso   1.00
C17    C     0.86964   0.32167   0.37063   0.00000  Uiso   1.00
C18    C     0.80057   0.91090   0.24523   0.00000  Uiso   1.00
C19    C     0.77483   0.89811   0.17663   0.00000  Uiso   1.00
C20    C     0.79560   0.80995   0.15191   0.00000  Uiso   1.00
C21    C     0.78174   0.90022   0.32998   0.00000  Uiso   1.00
C22    C     0.74017   0.87844   0.33263   0.00000  Uiso   1.00
C23    C     0.74509   0.78126   0.37926   0.00000  Uiso   1.00
H24    H     0.90220   0.81105   0.39393   0.00000  Uiso   1.00
H25    H     0.95180   0.04487   0.44592   0.00000  Uiso   1.00
H26    H     0.90100   0.69378   0.29586   0.00000  Uiso   1.00
H27    H     0.86635   0.67412   0.45184   0.00000  Uiso   1.00
H28    H     0.98700   0.33615   0.48484   0.00000  Uiso   1.00
H29    H     0.87988   0.59584   0.16843   0.00000  Uiso   1.00
H30    H     0.80681   0.55435   0.49735   0.00000  Uiso   1.00
H31    H     0.74966   0.05809   0.24979   0.00000  Uiso   1.00
H32    H     0.79089   0.30547   0.29388   0.00000  Uiso   1.00
H33    H     0.74009   0.95438   0.14382   0.00000  Uiso   1.00
H34    H     0.70544   0.93471   0.29980   0.00000  Uiso   1.00
H35    H     0.85640   0.54767   0.36143   0.00000  Uiso   1.00
H36    H     0.74928   0.80734   0.04503   0.00000  Uiso   1.00
H37    H     0.67621   0.76587   0.37394   0.00000  Uiso   1.00
O38    O     0.95158   0.60019   0.45472   0.00000  Uiso   1.00
O39    O     0.81104   0.62889   0.03961   0.00000  Uiso   1.00
O40    O     0.71517   0.57448   0.47114   0.00000  Uiso   1.00
N41    N     0.95061   0.35198   0.44975   0.00000  Uiso   1.00
N42    N     0.85046   0.65985   0.15393   0.00000  Uiso   1.00
N43    N     0.78214   0.62104   0.46143   0.00000  Uiso   1.00
N44    N     0.88033   0.46580   0.38335   0.00000  Uiso   1.00
N45    N     0.78018   0.77366   0.08753   0.00000  Uiso   1.00
N46    N     0.71186   0.73485   0.39503   0.00000  Uiso   1.00
C47    C     0.36726   0.36765   0.36091   0.00000  Uiso   1.00
C48    C     0.37305   0.52895   0.36918   0.00000  Uiso   1.00
C49    C     0.41707   0.60116   0.41311   0.00000  Uiso   1.00
C50    C     0.41461   0.74884   0.41312   0.00000  Uiso   1.00
C51    C     0.43045   0.98823   0.43238   0.00000  Uiso   1.00
C52    C     0.34545   0.33821   0.28764   0.00000  Uiso   1.00
C53    C     0.36627   0.25003   0.26303   0.00000  Uiso   1.00
C54    C     0.34057   0.23713   0.19441   0.00000  Uiso   1.00
C55    C     0.31354   0.18031   0.08709   0.00000  Uiso   1.00
C56    C     0.32663   0.32753   0.37240   0.00000  Uiso   1.00
C57    C     0.33161   0.23035   0.41903   0.00000  Uiso   1.00
C58    C     0.29006   0.20843   0.42175   0.00000  Uiso   1.00
C59    C     0.23380   0.13503   0.44603   0.00000  Uiso   1.00
C60    C     0.28461   0.50149   0.28282   0.00000  Uiso   1.00
C61    C     0.32816   0.60164   0.32676   0.00000  Uiso   1.00
C62    C     0.32564   0.74924   0.32671   0.00000  Uiso   1.00
C63    C     0.36964   0.82167   0.37063   0.00000  Uiso   1.00
C64    C     0.30057   0.41090   0.24523   0.00000  Uiso   1.00
C65    C     0.27483   0.39811   0.17663   0.00000  Uiso   1.00
C66    C     0.29560   0.30995   0.15191   0.00000  Uiso   1.00
C67    C     0.28174   0.40022   0.32998   0.00000  Uiso   1.00
C68    C     0.24017   0.37844   0.33263   0.00000  Uiso   1.00
C69    C     0.24509   0.28126   0.37926   0.00000  Uiso   1.00
H70    H     0.40220   0.31105   0.39393   0.00000  Uiso   1.00
H71    H     0.45180   0.54487   0.44592   0.00000  Uiso   1.00
H72    H     0.40100   0.19378   0.29586   0.00000  Uiso   1.00
H73    H     0.36635   0.17412   0.45184   0.00000  Uiso   1.00
H74    H     0.48700   0.83615   0.48484   0.00000  Uiso   1.00
H75    H     0.37988   0.09584   0.16843   0.00000  Uiso   1.00
H76    H     0.30681   0.05435   0.49735   0.00000  Uiso   1.00
H77    H     0.24966   0.55809   0.24979   0.00000  Uiso   1.00
H78    H     0.29089   0.80547   0.29388   0.00000  Uiso   1.00
H79    H     0.24009   0.45438   0.14382   0.00000  Uiso   1.00
H80    H     0.20544   0.43471   0.29980   0.00000  Uiso   1.00
H81    H     0.35640   0.04767   0.36143   0.00000  Uiso   1.00
H82    H     0.24928   0.30734   0.04503   0.00000  Uiso   1.00
H83    H     0.17621   0.26587   0.37394   0.00000  Uiso   1.00
O84    O     0.45158   0.10019   0.45472   0.00000  Uiso   1.00
O85    O     0.31104   0.12889   0.03961   0.00000  Uiso   1.00
O86    O     0.21517   0.07448   0.47114   0.00000  Uiso   1.00
N87    N     0.45061   0.85198   0.44975   0.00000  Uiso   1.00
N88    N     0.35046   0.15985   0.15393   0.00000  Uiso   1.00
N89    N     0.28214   0.12104   0.46143   0.00000  Uiso   1.00
N90    N     0.38033   0.96580   0.38335   0.00000  Uiso   1.00
N91    N     0.28018   0.27366   0.08753   0.00000  Uiso   1.00
N92    N     0.21186   0.23485   0.39503   0.00000  Uiso   1.00
C93    C     0.13274   0.86765   0.13909   0.00000  Uiso   1.00
C94    C     0.12695   0.02895   0.13082   0.00000  Uiso   1.00
C95    C     0.08293   0.10116   0.08689   0.00000  Uiso   1.00
C96    C     0.08539   0.24884   0.08688   0.00000  Uiso   1.00
C97    C     0.06955   0.48823   0.06762   0.00000  Uiso   1.00
C98    C     0.15455   0.83821   0.21236   0.00000  Uiso   1.00
C99    C     0.13373   0.75003   0.23697   0.00000  Uiso   1.00
C100   C     0.15943   0.73713   0.30559   0.00000  Uiso   1.00
C101   C     0.18646   0.68031   0.41291   0.00000  Uiso   1.00
C102   C     0.17337   0.82753   0.12760   0.00000  Uiso   1.00
C103   C     0.16839   0.73035   0.08097   0.00000  Uiso   1.00
C104   C     0.20994   0.70843   0.07825   0.00000  Uiso   1.00
C105   C     0.26620   0.63503   0.05397   0.00000  Uiso   1.00
C106   C     0.21539   0.00149   0.21718   0.00000  Uiso   1.00
C107   C     0.17184   0.10164   0.17324   0.00000  Uiso   1.00
C108   C     0.17436   0.24924   0.17329   0.00000  Uiso   1.00
C109   C     0.13036   0.32167   0.12937   0.00000  Uiso   1.00
C110   C     0.19943   0.91090   0.25477   0.00000  Uiso   1.00
C111   C     0.22517   0.89811   0.32337   0.00000  Uiso   1.00
C112   C     0.20440   0.80995   0.34809   0.00000  Uiso   1.00
C113   C     0.21826   0.90022   0.17002   0.00000  Uiso   1.00
C114   C     0.25983   0.87844   0.16737   0.00000  Uiso   1.00
C115   C     0.25491   0.78126   0.12074   0.00000  Uiso   1.00
H116   H     0.09780   0.81105   0.10607   0.00000  Uiso   1.00
H117   H     0.04820   0.04487   0.05408   0.00000  Uiso   1.00
H118   H     0.09900   0.69378   0.20414   0.00000  Uiso   1.00
H119   H     0.13365   0.67412   0.04816   0.00000  Uiso   1.00
H120   H     0.01300   0.33615   0.01516   0.00000  Uiso   1.00
H121   H     0.12012   0.59584   0.33157   0.00000  Uiso   1.00
H122   H     0.19319   0.55435   0.00265   0.00000  Uiso   1.00
H123   H     0.25034   0.05809   0.25021   0.00000  Uiso   1.00
H124   H     0.20911   0.30547   0.20612   0.00000  Uiso   1.00
H125   H     0.25991   0.95438   0.35618   0.00000  Uiso   1.00
H126   H     0.29456   0.93471   0.20020   0.00000  Uiso   1.00
H127   H     0.14360   0.54767   0.13857   0.00000  Uiso   1.00
H128   H     0.25072   0.80734   0.45497   0.00000  Uiso   1.00
H129   H     0.32379   0.76587   0.12606   0.00000  Uiso   1.00
O130   O     0.04842   0.60019   0.04528   0.00000  Uiso   1.00
O131   O     0.18896   0.62889   0.46039   0.00000  Uiso   1.00
O132   O     0.28483   0.57448   0.02886   0.00000  Uiso   1.00
N133   N     0.04939   0.35198   0.05025   0.00000  Uiso   1.00
N134   N     0.14954   0.65985   0.34607   0.00000  Uiso   1.00
N135   N     0.21786   0.62104   0.03857   0.00000  Uiso   1.00
N136   N     0.11967   0.46580   0.11665   0.00000  Uiso   1.00
N137   N     0.21982   0.77366   0.41247   0.00000  Uiso   1.00
N138   N     0.28814   0.73485   0.10497   0.00000  Uiso   1.00
C139   C     0.63274   0.36765   0.13909   0.00000  Uiso   1.00
C140   C     0.62695   0.52895   0.13082   0.00000  Uiso   1.00
C141   C     0.58293   0.60116   0.08689   0.00000  Uiso   1.00
C142   C     0.58539   0.74884   0.08688   0.00000  Uiso   1.00
C143   C     0.56955   0.98823   0.06762   0.00000  Uiso   1.00
C144   C     0.65455   0.33821   0.21236   0.00000  Uiso   1.00
C145   C     0.63373   0.25003   0.23697   0.00000  Uiso   1.00
C146   C     0.65943   0.23713   0.30559   0.00000  Uiso   1.00
C147   C     0.68646   0.18031   0.41291   0.00000  Uiso   1.00
C148   C     0.67337   0.32753   0.12760   0.00000  Uiso   1.00
C149   C     0.66839   0.23035   0.08097   0.00000  Uiso   1.00
C150   C     0.70994   0.20843   0.07825   0.00000  Uiso   1.00
C151   C     0.76620   0.13503   0.05397   0.00000  Uiso   1.00
C152   C     0.71539   0.50149   0.21718   0.00000  Uiso   1.00
C153   C     0.67184   0.60164   0.17324   0.00000  Uiso   1.00
C154   C     0.67436   0.74924   0.17329   0.00000  Uiso   1.00
C155   C     0.63036   0.82167   0.12937   0.00000  Uiso   1.00
C156   C     0.69943   0.41090   0.25477   0.00000  Uiso   1.00
C157   C     0.72517   0.39811   0.32337   0.00000  Uiso   1.00
C158   C     0.70440   0.30995   0.34809   0.00000  Uiso   1.00
C159   C     0.71826   0.40022   0.17002   0.00000  Uiso   1.00
C160   C     0.75983   0.37844   0.16737   0.00000  Uiso   1.00
C161   C     0.75491   0.28126   0.12074   0.00000  Uiso   1.00
H162   H     0.59780   0.31105   0.10607   0.00000  Uiso   1.00
H163   H     0.54820   0.54487   0.05408   0.00000  Uiso   1.00
H164   H     0.59900   0.19378   0.20414   0.00000  Uiso   1.00
H165   H     0.63365   0.17412   0.04816   0.00000  Uiso   1.00
H166   H     0.51300   0.83615   0.01516   0.00000  Uiso   1.00
H167   H     0.62012   0.09584   0.33157   0.00000  Uiso   1.00
H168   H     0.69319   0.05435   0.00265   0.00000  Uiso   1.00
H169   H     0.75034   0.55809   0.25021   0.00000  Uiso   1.00
H170   H     0.70911   0.80547   0.20612   0.00000  Uiso   1.00
H171   H     0.75991   0.45438   0.35618   0.00000  Uiso   1.00
H172   H     0.79456   0.43471   0.20020   0.00000  Uiso   1.00
H173   H     0.64360   0.04767   0.13857   0.00000  Uiso   1.00
H174   H     0.75072   0.30734   0.45497   0.00000  Uiso   1.00
H175   H     0.82379   0.26587   0.12606   0.00000  Uiso   1.00
O176   O     0.54842   0.10019   0.04528   0.00000  Uiso   1.00
O177   O     0.68896   0.12889   0.46039   0.00000  Uiso   1.00
O178   O     0.78483   0.07448   0.02886   0.00000  Uiso   1.00
N179   N     0.54939   0.85198   0.05025   0.00000  Uiso   1.00
N180   N     0.64954   0.15985   0.34607   0.00000  Uiso   1.00
N181   N     0.71786   0.12104   0.03857   0.00000  Uiso   1.00
N182   N     0.61967   0.96580   0.11665   0.00000  Uiso   1.00
N183   N     0.71982   0.27366   0.41247   0.00000  Uiso   1.00
N184   N     0.78814   0.23485   0.10497   0.00000  Uiso   1.00
C185   C     0.13274   0.13235   0.63909   0.00000  Uiso   1.00
C186   C     0.12695   0.97105   0.63082   0.00000  Uiso   1.00
C187   C     0.08293   0.89884   0.58689   0.00000  Uiso   1.00
C188   C     0.08539   0.75116   0.58688   0.00000  Uiso   1.00
C189   C     0.06955   0.51177   0.56762   0.00000  Uiso   1.00
C190   C     0.15455   0.16179   0.71236   0.00000  Uiso   1.00
C191   C     0.13373   0.24997   0.73697   0.00000  Uiso   1.00
C192   C     0.15943   0.26287   0.80559   0.00000  Uiso   1.00
C193   C     0.18646   0.31969   0.91291   0.00000  Uiso   1.00
C194   C     0.17337   0.17247   0.62760   0.00000  Uiso   1.00
C195   C     0.16839   0.26965   0.58097   0.00000  Uiso   1.00
C196   C     0.20994   0.29157   0.57825   0.00000  Uiso   1.00
C197   C     0.26620   0.36497   0.55397   0.00000  Uiso   1.00
C198   C     0.21539   0.99851   0.71718   0.00000  Uiso   1.00
C199   C     0.17184   0.89836   0.67324   0.00000  Uiso   1.00
C200   C     0.17436   0.75076   0.67329   0.00000  Uiso   1.00
C201   C     0.13036   0.67833   0.62937   0.00000  Uiso   1.00
C202   C     0.19943   0.08910   0.75477   0.00000  Uiso   1.00
C203   C     0.22517   0.10189   0.82337   0.00000  Uiso   1.00
C204   C     0.20440   0.19005   0.84809   0.00000  Uiso   1.00
C205   C     0.21826   0.09978   0.67002   0.00000  Uiso   1.00
C206   C     0.25983   0.12156   0.66737   0.00000  Uiso   1.00
C207   C     0.25491   0.21874   0.62074   0.00000  Uiso   1.00
H208   H     0.09780   0.18895   0.60607   0.00000  Uiso   1.00
H209   H     0.04820   0.95513   0.55408   0.00000  Uiso   1.00
H210   H     0.09900   0.30622   0.70414   0.00000  Uiso   1.00
H211   H     0.13365   0.32588   0.54816   0.00000  Uiso   1.00
H212   H     0.01300   0.66385   0.51516   0.00000  Uiso   1.00
H213   H     0.12012   0.40416   0.83157   0.00000  Uiso   1.00
H214   H     0.19319   0.44565   0.50265   0.00000  Uiso   1.00
H215   H     0.25034   0.94191   0.75021   0.00000  Uiso   1.00
H216   H     0.20911   0.69453   0.70612   0.00000  Uiso   1.00
H217   H     0.25991   0.04562   0.85618   0.00000  Uiso   1.00
H218   H     0.29456   0.06529   0.70020   0.00000  Uiso   1.00
H219   H     0.14360   0.45233   0.63857   0.00000  Uiso   1.00
H220   H     0.25072   0.19266   0.95497   0.00000  Uiso   1.00
H221   H     0.32379   0.23413   0.62606   0.00000  Uiso   1.00
O222   O     0.04842   0.39981   0.54528   0.00000  Uiso   1.00
O223   O     0.18896   0.37111   0.96039   0.00000  Uiso   1.00
O224   O     0.28483   0.42552   0.52886   0.00000  Uiso   1.00
N225   N     0.04939   0.64802   0.55025   0.00000  Uiso   1.00
N226   N     0.14954   0.34015   0.84607   0.00000  Uiso   1.00
N227   N     0.21786   0.37896   0.53857   0.00000  Uiso   1.00
N228   N     0.11967   0.53420   0.61665   0.00000  Uiso   1.00
N229   N     0.21982   0.22634   0.91247   0.00000  Uiso   1.00
N230   N     0.28814   0.26515   0.60497   0.00000  Uiso   1.00
C231   C     0.63274   0.63235   0.63909   0.00000  Uiso   1.00
C232   C     0.62695   0.47105   0.63082   0.00000  Uiso   1.00
C233   C     0.58293   0.39884   0.58689   0.00000  Uiso   1.00
C234   C     0.58539   0.25116   0.58688   0.00000  Uiso   1.00
C235   C     0.56955   0.01177   0.56762   0.00000  Uiso   1.00
C236   C     0.65455   0.66179   0.71236   0.00000  Uiso   1.00
C237   C     0.63373   0.74997   0.73697   0.00000  Uiso   1.00
C238   C     0.65943   0.76287   0.80559   0.00000  Uiso   1.00
C239   C     0.68646   0.81969   0.91291   0.00000  Uiso   1.00
C240   C     0.67337   0.67247   0.62760   0.00000  Uiso   1.00
C241   C     0.66839   0.76965   0.58097   0.00000  Uiso   1.00
C242   C     0.70994   0.79157   0.57825   0.00000  Uiso   1.00
C243   C     0.76620   0.86497   0.55397   0.00000  Uiso   1.00
C244   C     0.71539   0.49851   0.71718   0.00000  Uiso   1.00
C245   C     0.67184   0.39836   0.67324   0.00000  Uiso   1.00
C246   C     0.67436   0.25076   0.67329   0.00000  Uiso   1.00
C247   C     0.63036   0.17833   0.62937   0.00000  Uiso   1.00
C248   C     0.69943   0.58910   0.75477   0.00000  Uiso   1.00
C249   C     0.72517   0.60189   0.82337   0.00000  Uiso   1.00
C250   C     0.70440   0.69005   0.84809   0.00000  Uiso   1.00
C251   C     0.71826   0.59978   0.67002   0.00000  Uiso   1.00
C252   C     0.75983   0.62156   0.66737   0.00000  Uiso   1.00
C253   C     0.75491   0.71874   0.62074   0.00000  Uiso   1.00
H254   H     0.59780   0.68895   0.60607   0.00000  Uiso   1.00
H255   H     0.54820   0.45513   0.55408   0.00000  Uiso   1.00
H256   H     0.59900   0.80622   0.70414   0.00000  Uiso   1.00
H257   H     0.63365   0.82588   0.54816   0.00000  Uiso   1.00
H258   H     0.51300   0.16385   0.51516   0.00000  Uiso   1.00
H259   H     0.62012   0.90416   0.83157   0.00000  Uiso   1.00
H260   H     0.69319   0.94565   0.50265   0.00000  Uiso   1.00
H261   H     0.75034   0.44191   0.75021   0.00000  Uiso   1.00
H262   H     0.70911   0.19453   0.70612   0.00000  Uiso   1.00
H263   H     0.75991   0.54562   0.85618   0.00000  Uiso   1.00
H264   H     0.79456   0.56529   0.70020   0.00000  Uiso   1.00
H265   H     0.64360   0.95233   0.63857   0.00000  Uiso   1.00
H266   H     0.75072   0.69266   0.95497   0.00000  Uiso   1.00
H267   H     0.82379   0.73413   0.62606   0.00000  Uiso   1.00
O268   O     0.54842   0.89981   0.54528   0.00000  Uiso   1.00
O269   O     0.68896   0.87111   0.96039   0.00000  Uiso   1.00
O270   O     0.78483   0.92552   0.52886   0.00000  Uiso   1.00
N271   N     0.54939   0.14802   0.55025   0.00000  Uiso   1.00
N272   N     0.64954   0.84015   0.84607   0.00000  Uiso   1.00
N273   N     0.71786   0.87896   0.53857   0.00000  Uiso   1.00
N274   N     0.61967   0.03420   0.61665   0.00000  Uiso   1.00
N275   N     0.71982   0.72634   0.91247   0.00000  Uiso   1.00
N276   N     0.78814   0.76515   0.60497   0.00000  Uiso   1.00
C277   C     0.86726   0.13235   0.86091   0.00000  Uiso   1.00
C278   C     0.87305   0.97105   0.86918   0.00000  Uiso   1.00
C279   C     0.91707   0.89884   0.91311   0.00000  Uiso   1.00
C280   C     0.91461   0.75116   0.91312   0.00000  Uiso   1.00
C281   C     0.93045   0.51177   0.93238   0.00000  Uiso   1.00
C282   C     0.84545   0.16179   0.78764   0.00000  Uiso   1.00
C283   C     0.86627   0.24997   0.76303   0.00000  Uiso   1.00
C284   C     0.84057   0.26287   0.69441   0.00000  Uiso   1.00
C285   C     0.81354   0.31969   0.58709   0.00000  Uiso   1.00
C286   C     0.82663   0.17247   0.87240   0.00000  Uiso   1.00
C287   C     0.83161   0.26965   0.91903   0.00000  Uiso   1.00
C288   C     0.79006   0.29157   0.92175   0.00000  Uiso   1.00
C289   C     0.73380   0.36497   0.94603   0.00000  Uiso   1.00
C290   C     0.78461   0.99851   0.78282   0.00000  Uiso   1.00
C291   C     0.82816   0.89836   0.82676   0.00000  Uiso   1.00
C292   C     0.82564   0.75076   0.82671   0.00000  Uiso   1.00
C293   C     0.86964   0.67833   0.87063   0.00000  Uiso   1.00
C294   C     0.80057   0.08910   0.74523   0.00000  Uiso   1.00
C295   C     0.77483   0.10189   0.67663   0.00000  Uiso   1.00
C296   C     0.79560   0.19005   0.65191   0.00000  Uiso   1.00
C297   C     0.78174   0.09978   0.82998   0.00000  Uiso   1.00
C298   C     0.74017   0.12156   0.83263   0.00000  Uiso   1.00
C299   C     0.74509   0.21874   0.87926   0.00000  Uiso   1.00
H300   H     0.90220   0.18895   0.89393   0.00000  Uiso   1.00
H301   H     0.95180   0.95513   0.94592   0.00000  Uiso   1.00
H302   H     0.90100   0.30622   0.79586   0.00000  Uiso   1.00
H303   H     0.86635   0.32588   0.95184   0.00000  Uiso   1.00
H304   H     0.98700   0.66385   0.98484   0.00000  Uiso   1.00
H305   H     0.87988   0.40416   0.66843   0.00000  Uiso   1.00
H306   H     0.80681   0.44565   0.99735   0.00000  Uiso   1.00
H307   H     0.74966   0.94191   0.74979   0.00000  Uiso   1.00
H308   H     0.79089   0.69453   0.79388   0.00000  Uiso   1.00
H309   H     0.74009   0.04562   0.64382   0.00000  Uiso   1.00
H310   H     0.70544   0.06529   0.79980   0.00000  Uiso   1.00
H311   H     0.85640   0.45233   0.86143   0.00000  Uiso   1.00
H312   H     0.74928   0.19266   0.54503   0.00000  Uiso   1.00
H313   H     0.67621   0.23413   0.87394   0.00000  Uiso   1.00
O314   O     0.95158   0.39981   0.95472   0.00000  Uiso   1.00
O315   O     0.81104   0.37111   0.53961   0.00000  Uiso   1.00
O316   O     0.71517   0.42552   0.97114   0.00000  Uiso   1.00
N317   N     0.95061   0.64802   0.94975   0.00000  Uiso   1.00
N318   N     0.85046   0.34015   0.65393   0.00000  Uiso   1.00
N319   N     0.78214   0.37896   0.96143   0.00000  Uiso   1.00
N320   N     0.88033   0.53420   0.88335   0.00000  Uiso   1.00
N321   N     0.78018   0.22634   0.58753   0.00000  Uiso   1.00
N322   N     0.71186   0.26515   0.89503   0.00000  Uiso   1.00
C323   C     0.36726   0.63235   0.86091   0.00000  Uiso   1.00
C324   C     0.37305   0.47105   0.86918   0.00000  Uiso   1.00
C325   C     0.41707   0.39884   0.91311   0.00000  Uiso   1.00
C326   C     0.41461   0.25116   0.91312   0.00000  Uiso   1.00
C327   C     0.43045   0.01177   0.93238   0.00000  Uiso   1.00
C328   C     0.34545   0.66179   0.78764   0.00000  Uiso   1.00
C329   C     0.36627   0.74997   0.76303   0.00000  Uiso   1.00
C330   C     0.34057   0.76287   0.69441   0.00000  Uiso   1.00
C331   C     0.31354   0.81969   0.58709   0.00000  Uiso   1.00
C332   C     0.32663   0.67247   0.87240   0.00000  Uiso   1.00
C333   C     0.33161   0.76965   0.91903   0.00000  Uiso   1.00
C334   C     0.29006   0.79157   0.92175   0.00000  Uiso   1.00
C335   C     0.23380   0.86497   0.94603   0.00000  Uiso   1.00
C336   C     0.28461   0.49851   0.78282   0.00000  Uiso   1.00
C337   C     0.32816   0.39836   0.82676   0.00000  Uiso   1.00
C338   C     0.32564   0.25076   0.82671   0.00000  Uiso   1.00
C339   C     0.36964   0.17833   0.87063   0.00000  Uiso   1.00
C340   C     0.30057   0.58910   0.74523   0.00000  Uiso   1.00
C341   C     0.27483   0.60189   0.67663   0.00000  Uiso   1.00
C342   C     0.29560   0.69005   0.65191   0.00000  Uiso   1.00
C343   C     0.28174   0.59978   0.82998   0.00000  Uiso   1.00
C344   C     0.24017   0.62156   0.83263   0.00000  Uiso   1.00
C345   C     0.24509   0.71874   0.87926   0.00000  Uiso   1.00
H346   H     0.40220   0.68895   0.89393   0.00000  Uiso   1.00
H347   H     0.45180   0.45513   0.94592   0.00000  Uiso   1.00
H348   H     0.40100   0.80622   0.79586   0.00000  Uiso   1.00
H349   H     0.36635   0.82588   0.95184   0.00000  Uiso   1.00
H350   H     0.48700   0.16385   0.98484   0.00000  Uiso   1.00
H351   H     0.37988   0.90416   0.66843   0.00000  Uiso   1.00
H352   H     0.30681   0.94565   0.99735   0.00000  Uiso   1.00
H353   H     0.24966   0.44191   0.74979   0.00000  Uiso   1.00
H354   H     0.29089   0.19453   0.79388   0.00000  Uiso   1.00
H355   H     0.24009   0.54562   0.64382   0.00000  Uiso   1.00
H356   H     0.20544   0.56529   0.79980   0.00000  Uiso   1.00
H357   H     0.35640   0.95233   0.86143   0.00000  Uiso   1.00
H358   H     0.24928   0.69266   0.54503   0.00000  Uiso   1.00
H359   H     0.17621   0.73413   0.87394   0.00000  Uiso   1.00
O360   O     0.45158   0.89981   0.95472   0.00000  Uiso   1.00
O361   O     0.31104   0.87111   0.53961   0.00000  Uiso   1.00
O362   O     0.21517   0.92552   0.97114   0.00000  Uiso   1.00
N363   N     0.45061   0.14802   0.94975   0.00000  Uiso   1.00
N364   N     0.35046   0.84015   0.65393   0.00000  Uiso   1.00
N365   N     0.28214   0.87896   0.96143   0.00000  Uiso   1.00
N366   N     0.38033   0.03420   0.88335   0.00000  Uiso   1.00
N367   N     0.28018   0.72634   0.58753   0.00000  Uiso   1.00
N368   N     0.21186   0.76515   0.89503   0.00000  Uiso   1.00
