data_job_01400
_audit_creation_date              2018-12-19
_audit_creation_method            'Materials Studio'
_symmetry_space_group_name_H-M    'P1'
_symmetry_Int_Tables_number       1
_symmetry_cell_setting            triclinic
loop_
_symmetry_equiv_pos_as_xyz
  x,y,z
_cell_length_a                    15.5444
_cell_length_b                    12.0500
_cell_length_c                    13.6829
_cell_angle_alpha                 90.0000
_cell_angle_beta                  88.4725
_cell_angle_gamma                 90.0000
loop_
_atom_site_label
_atom_site_type_symbol
_atom_site_fract_x
_atom_site_fract_y
_atom_site_fract_z
_atom_site_U_iso_or_equiv
_atom_site_adp_type
_atom_site_occupancy
C1     C     0.28813   0.85931   0.28135   0.00000  Uiso   1.00
C2     C     0.23813   0.96270   0.25276   0.00000  Uiso   1.00
C3     C     0.24625   0.01841   0.16423   0.00000  Uiso   1.00
C4     C     0.19476   0.11132   0.15226   0.00000  Uiso   1.00
C5     C     0.12589   0.26644   0.09663   0.00000  Uiso   1.00
C6     C     0.33292   0.88850   0.37577   0.00000  Uiso   1.00
C7     C     0.42073   0.88182   0.39066   0.00000  Uiso   1.00
C8     C     0.44903   0.91225   0.48225   0.00000  Uiso   1.00
C9     C     0.52732   0.95211   0.61762   0.00000  Uiso   1.00
C10    C     0.22080   0.77191   0.30883   0.00000  Uiso   1.00
C11    C     0.21436   0.66717   0.26747   0.00000  Uiso   1.00
C12    C     0.14827   0.59943   0.30272   0.00000  Uiso   1.00
C13    C     0.05249   0.45824   0.33417   0.00000  Uiso   1.00
C14    C     0.18225   0.92522   0.41752   0.00000  Uiso   1.00
C15    C     0.18062   0.99850   0.32672   0.00000  Uiso   1.00
C16    C     0.12910   0.09133   0.31488   0.00000  Uiso   1.00
C17    C     0.13714   0.14718   0.22635   0.00000  Uiso   1.00
C18    C     0.27541   0.92430   0.44973   0.00000  Uiso   1.00
C19    C     0.30358   0.95474   0.54132   0.00000  Uiso   1.00
C20    C     0.39142   0.94812   0.55634   0.00000  Uiso   1.00
C21    C     0.16329   0.80770   0.38280   0.00000  Uiso   1.00
C22    C     0.09721   0.74010   0.41812   0.00000  Uiso   1.00
C23    C     0.09066   0.63529   0.37682   0.00000  Uiso   1.00
H24    H     0.33291   0.83144   0.22377   0.00000  Uiso   1.00
H25    H     0.29077   0.99069   0.10701   0.00000  Uiso   1.00
H26    H     0.46522   0.85411   0.33342   0.00000  Uiso   1.00
H27    H     0.25888   0.63950   0.21024   0.00000  Uiso   1.00
H28    H     0.21871   0.18306   0.01020   0.00000  Uiso   1.00
H29    H     0.58654   0.89503   0.48759   0.00000  Uiso   1.00
H30    H     0.15143   0.44248   0.22785   0.00000  Uiso   1.00
H31    H     0.13747   0.95309   0.47510   0.00000  Uiso   1.00
H32    H     0.08460   0.11902   0.37213   0.00000  Uiso   1.00
H33    H     0.25906   0.98243   0.59853   0.00000  Uiso   1.00
H34    H     0.05271   0.76783   0.47536   0.00000  Uiso   1.00
H35    H     0.05137   0.28722   0.22538   0.00000  Uiso   1.00
H36    H     0.41921   0.99918   0.70277   0.00000  Uiso   1.00
H37    H     0.98410   0.54664   0.44303   0.00000  Uiso   1.00
O38    O     0.10381   0.34212   0.04553   0.00000  Uiso   1.00
O39    O     0.58639   0.96421   0.67185   0.00000  Uiso   1.00
O40    O     0.01553   0.37049   0.33108   0.00000  Uiso   1.00
N41    N     0.18657   0.18479   0.07496   0.00000  Uiso   1.00
N42    N     0.53048   0.91551   0.52129   0.00000  Uiso   1.00
N43    N     0.12369   0.49241   0.27848   0.00000  Uiso   1.00
N44    N     0.09653   0.24083   0.19075   0.00000  Uiso   1.00
N45    N     0.44044   0.97156   0.63708   0.00000  Uiso   1.00
N46    N     0.03365   0.54846   0.39426   0.00000  Uiso   1.00
C47    C     0.69403   0.13216   0.21393   0.00000  Uiso   1.00
C48    C     0.74413   0.02907   0.24309   0.00000  Uiso   1.00
C49    C     0.73578   0.97367   0.33175   0.00000  Uiso   1.00
C50    C     0.78741   0.88101   0.34427   0.00000  Uiso   1.00
C51    C     0.85637   0.72636   0.40071   0.00000  Uiso   1.00
C52    C     0.64969   0.10244   0.11936   0.00000  Uiso   1.00
C53    C     0.56194   0.10874   0.10399   0.00000  Uiso   1.00
C54    C     0.53407   0.07785   0.01234   0.00000  Uiso   1.00
C55    C     0.45642   0.03718   0.87667   0.00000  Uiso   1.00
C56    C     0.76128   0.21971   0.18653   0.00000  Uiso   1.00
C57    C     0.76733   0.32463   0.22761   0.00000  Uiso   1.00
C58    C     0.83341   0.39248   0.19250   0.00000  Uiso   1.00
C59    C     0.92901   0.53388   0.16112   0.00000  Uiso   1.00
C60    C     0.80058   0.06611   0.07849   0.00000  Uiso   1.00
C61    C     0.80201   0.99320   0.16952   0.00000  Uiso   1.00
C62    C     0.85367   0.90059   0.18190   0.00000  Uiso   1.00
C63    C     0.84539   0.84507   0.27057   0.00000  Uiso   1.00
C64    C     0.70756   0.06656   0.04579   0.00000  Uiso   1.00
C65    C     0.67982   0.03566   0.95414   0.00000  Uiso   1.00
C66    C     0.59205   0.04191   0.93864   0.00000  Uiso   1.00
C67    C     0.81916   0.18383   0.11296   0.00000  Uiso   1.00
C68    C     0.88523   0.25154   0.07777   0.00000  Uiso   1.00
C69    C     0.89138   0.35653   0.11880   0.00000  Uiso   1.00
H70    H     0.64897   0.16010   0.27120   0.00000  Uiso   1.00
H71    H     0.69097   0.00146   0.38866   0.00000  Uiso   1.00
H72    H     0.51716   0.13652   0.16093   0.00000  Uiso   1.00
H73    H     0.72253   0.35236   0.28454   0.00000  Uiso   1.00
H74    H     0.76305   0.80974   0.48643   0.00000  Uiso   1.00
H75    H     0.39656   0.09455   0.00624   0.00000  Uiso   1.00
H76    H     0.82962   0.54970   0.26689   0.00000  Uiso   1.00
H77    H     0.84564   0.03818   0.02121   0.00000  Uiso   1.00
H78    H     0.89845   0.87285   0.12496   0.00000  Uiso   1.00
H79    H     0.72463   0.00791   0.89723   0.00000  Uiso   1.00
H80    H     0.93000   0.22375   0.02084   0.00000  Uiso   1.00
H81    H     0.93144   0.70535   0.27240   0.00000  Uiso   1.00
H82    H     0.56495   0.99017   0.79220   0.00000  Uiso   1.00
H83    H     0.99801   0.44531   0.05286   0.00000  Uiso   1.00
O84    O     0.87841   0.65096   0.45216   0.00000  Uiso   1.00
O85    O     0.39759   0.02465   0.82216   0.00000  Uiso   1.00
O86    O     0.96576   0.62179   0.16414   0.00000  Uiso   1.00
N87    N     0.79545   0.80787   0.42183   0.00000  Uiso   1.00
N88    N     0.45280   0.07414   0.97288   0.00000  Uiso   1.00
N89    N     0.85766   0.49967   0.21655   0.00000  Uiso   1.00
N90    N     0.88606   0.75170   0.30666   0.00000  Uiso   1.00
N91    N     0.54341   0.01797   0.85771   0.00000  Uiso   1.00
N92    N     0.94827   0.44351   0.10139   0.00000  Uiso   1.00
C93    C     0.71187   0.35931   0.71865   0.00000  Uiso   1.00
C94    C     0.76187   0.46270   0.74724   0.00000  Uiso   1.00
C95    C     0.75375   0.51841   0.83577   0.00000  Uiso   1.00
C96    C     0.80524   0.61132   0.84774   0.00000  Uiso   1.00
C97    C     0.87411   0.76644   0.90337   0.00000  Uiso   1.00
C98    C     0.66708   0.38850   0.62423   0.00000  Uiso   1.00
C99    C     0.57927   0.38182   0.60934   0.00000  Uiso   1.00
C100   C     0.55097   0.41225   0.51775   0.00000  Uiso   1.00
C101   C     0.47268   0.45211   0.38238   0.00000  Uiso   1.00
C102   C     0.77920   0.27191   0.69117   0.00000  Uiso   1.00
C103   C     0.78564   0.16717   0.73253   0.00000  Uiso   1.00
C104   C     0.85173   0.09943   0.69728   0.00000  Uiso   1.00
C105   C     0.94751   0.95824   0.66583   0.00000  Uiso   1.00
C106   C     0.81775   0.42522   0.58248   0.00000  Uiso   1.00
C107   C     0.81938   0.49850   0.67328   0.00000  Uiso   1.00
C108   C     0.87090   0.59133   0.68512   0.00000  Uiso   1.00
C109   C     0.86286   0.64718   0.77365   0.00000  Uiso   1.00
C110   C     0.72459   0.42430   0.55027   0.00000  Uiso   1.00
C111   C     0.69642   0.45474   0.45868   0.00000  Uiso   1.00
C112   C     0.60858   0.44812   0.44366   0.00000  Uiso   1.00
C113   C     0.83671   0.30770   0.61720   0.00000  Uiso   1.00
C114   C     0.90279   0.24010   0.58188   0.00000  Uiso   1.00
C115   C     0.90934   0.13529   0.62318   0.00000  Uiso   1.00
H116   H     0.66709   0.33144   0.77623   0.00000  Uiso   1.00
H117   H     0.70923   0.49069   0.89299   0.00000  Uiso   1.00
H118   H     0.53478   0.35411   0.66658   0.00000  Uiso   1.00
H119   H     0.74112   0.13950   0.78976   0.00000  Uiso   1.00
H120   H     0.78129   0.68306   0.98980   0.00000  Uiso   1.00
H121   H     0.41346   0.39503   0.51241   0.00000  Uiso   1.00
H122   H     0.84857   0.94248   0.77215   0.00000  Uiso   1.00
H123   H     0.86253   0.45309   0.52490   0.00000  Uiso   1.00
H124   H     0.91540   0.61902   0.62787   0.00000  Uiso   1.00
H125   H     0.74094   0.48243   0.40147   0.00000  Uiso   1.00
H126   H     0.94729   0.26783   0.52464   0.00000  Uiso   1.00
H127   H     0.94863   0.78722   0.77462   0.00000  Uiso   1.00
H128   H     0.58079   0.49918   0.29723   0.00000  Uiso   1.00
H129   H     0.01590   0.04664   0.55697   0.00000  Uiso   1.00
O130   O     0.89619   0.84212   0.95447   0.00000  Uiso   1.00
O131   O     0.41361   0.46421   0.32815   0.00000  Uiso   1.00
O132   O     0.98447   0.87049   0.66892   0.00000  Uiso   1.00
N133   N     0.81343   0.68479   0.92504   0.00000  Uiso   1.00
N134   N     0.46952   0.41551   0.47871   0.00000  Uiso   1.00
N135   N     0.87631   0.99241   0.72152   0.00000  Uiso   1.00
N136   N     0.90347   0.74083   0.80925   0.00000  Uiso   1.00
N137   N     0.55956   0.47156   0.36292   0.00000  Uiso   1.00
N138   N     0.96635   0.04846   0.60574   0.00000  Uiso   1.00
C139   C     0.30597   0.63216   0.78607   0.00000  Uiso   1.00
C140   C     0.25587   0.52907   0.75691   0.00000  Uiso   1.00
C141   C     0.26422   0.47367   0.66825   0.00000  Uiso   1.00
C142   C     0.21259   0.38101   0.65573   0.00000  Uiso   1.00
C143   C     0.14363   0.22636   0.59929   0.00000  Uiso   1.00
C144   C     0.35031   0.60244   0.88064   0.00000  Uiso   1.00
C145   C     0.43806   0.60874   0.89601   0.00000  Uiso   1.00
C146   C     0.46593   0.57785   0.98766   0.00000  Uiso   1.00
C147   C     0.54358   0.53718   0.12333   0.00000  Uiso   1.00
C148   C     0.23872   0.71971   0.81347   0.00000  Uiso   1.00
C149   C     0.23267   0.82463   0.77239   0.00000  Uiso   1.00
C150   C     0.16659   0.89248   0.80750   0.00000  Uiso   1.00
C151   C     0.07099   0.03388   0.83888   0.00000  Uiso   1.00
C152   C     0.19942   0.56611   0.92151   0.00000  Uiso   1.00
C153   C     0.19799   0.49320   0.83048   0.00000  Uiso   1.00
C154   C     0.14633   0.40059   0.81810   0.00000  Uiso   1.00
C155   C     0.15461   0.34507   0.72943   0.00000  Uiso   1.00
C156   C     0.29244   0.56656   0.95421   0.00000  Uiso   1.00
C157   C     0.32018   0.53566   0.04586   0.00000  Uiso   1.00
C158   C     0.40795   0.54191   0.06136   0.00000  Uiso   1.00
C159   C     0.18084   0.68383   0.88704   0.00000  Uiso   1.00
C160   C     0.11477   0.75154   0.92223   0.00000  Uiso   1.00
C161   C     0.10862   0.85653   0.88120   0.00000  Uiso   1.00
H162   H     0.35103   0.66010   0.72880   0.00000  Uiso   1.00
H163   H     0.30903   0.50146   0.61134   0.00000  Uiso   1.00
H164   H     0.48284   0.63652   0.83907   0.00000  Uiso   1.00
H165   H     0.27747   0.85236   0.71546   0.00000  Uiso   1.00
H166   H     0.23695   0.30974   0.51357   0.00000  Uiso   1.00
H167   H     0.60344   0.59455   0.99376   0.00000  Uiso   1.00
H168   H     0.17038   0.04970   0.73311   0.00000  Uiso   1.00
H169   H     0.15436   0.53818   0.97879   0.00000  Uiso   1.00
H170   H     0.10155   0.37285   0.87504   0.00000  Uiso   1.00
H171   H     0.27537   0.50791   0.10277   0.00000  Uiso   1.00
H172   H     0.07000   0.72375   0.97916   0.00000  Uiso   1.00
H173   H     0.06856   0.20535   0.72760   0.00000  Uiso   1.00
H174   H     0.43505   0.49017   0.20780   0.00000  Uiso   1.00
H175   H     0.00199   0.94531   0.94714   0.00000  Uiso   1.00
O176   O     0.12159   0.15096   0.54784   0.00000  Uiso   1.00
O177   O     0.60241   0.52465   0.17784   0.00000  Uiso   1.00
O178   O     0.03424   0.12179   0.83586   0.00000  Uiso   1.00
N179   N     0.20455   0.30787   0.57817   0.00000  Uiso   1.00
N180   N     0.54720   0.57414   0.02712   0.00000  Uiso   1.00
N181   N     0.14234   0.99967   0.78345   0.00000  Uiso   1.00
N182   N     0.11394   0.25170   0.69334   0.00000  Uiso   1.00
N183   N     0.45659   0.51797   0.14229   0.00000  Uiso   1.00
N184   N     0.05173   0.94351   0.89861   0.00000  Uiso   1.00
