data_job_03936
_audit_creation_date              2018-12-19
_audit_creation_method            'Materials Studio'
_symmetry_space_group_name_H-M    'P1'
_symmetry_Int_Tables_number       1
_symmetry_cell_setting            triclinic
loop_
_symmetry_equiv_pos_as_xyz
  x,y,z
_cell_length_a                    17.6764
_cell_length_b                    19.7522
_cell_length_c                    23.6027
_cell_angle_alpha                 90.0000
_cell_angle_beta                  90.0000
_cell_angle_gamma                 90.0000
loop_
_atom_site_label
_atom_site_type_symbol
_atom_site_fract_x
_atom_site_fract_y
_atom_site_fract_z
_atom_site_U_iso_or_equiv
_atom_site_adp_type
_atom_site_occupancy
C1     C     0.71418   0.91011   0.89192   0.00000  Uiso   1.00
C2     C     0.70109   0.89501   0.82933   0.00000  Uiso   1.00
C3     C     0.75633   0.87647   0.79054   0.00000  Uiso   1.00
C4     C     0.73289   0.86487   0.73524   0.00000  Uiso   1.00
C5     C     0.72412   0.84044   0.64045   0.00000  Uiso   1.00
C6     C     0.68358   0.98130   0.90191   0.00000  Uiso   1.00
C7     C     0.72410   0.03529   0.92416   0.00000  Uiso   1.00
C8     C     0.68592   0.09633   0.92997   0.00000  Uiso   1.00
C9     C     0.64996   0.20584   0.94791   0.00000  Uiso   1.00
C10    C     0.66204   0.86251   0.92451   0.00000  Uiso   1.00
C11    C     0.68443   0.81663   0.96577   0.00000  Uiso   1.00
C12    C     0.62810   0.77766   0.99061   0.00000  Uiso   1.00
C13    C     0.55868   0.70274   0.04363   0.00000  Uiso   1.00
C14    C     0.57432   0.92249   0.86270   0.00000  Uiso   1.00
C15    C     0.62512   0.90174   0.81345   0.00000  Uiso   1.00
C16    C     0.60159   0.89017   0.75820   0.00000  Uiso   1.00
C17    C     0.65678   0.87160   0.71934   0.00000  Uiso   1.00
C18    C     0.60762   0.98803   0.88604   0.00000  Uiso   1.00
C19    C     0.56937   0.04899   0.89182   0.00000  Uiso   1.00
C20    C     0.60982   0.10307   0.91407   0.00000  Uiso   1.00
C21    C     0.58607   0.86923   0.90864   0.00000  Uiso   1.00
C22    C     0.52969   0.83033   0.93343   0.00000  Uiso   1.00
C23    C     0.55200   0.78440   0.97471   0.00000  Uiso   1.00
H24    H     0.77333   0.90487   0.90428   0.00000  Uiso   1.00
H25    H     0.81511   0.87127   0.80284   0.00000  Uiso   1.00
H26    H     0.78289   0.03007   0.93644   0.00000  Uiso   1.00
H27    H     0.74322   0.81144   0.97804   0.00000  Uiso   1.00
H28    H     0.82794   0.83701   0.68336   0.00000  Uiso   1.00
H29    H     0.75999   0.17183   0.96509   0.00000  Uiso   1.00
H30    H     0.67635   0.71081   0.05281   0.00000  Uiso   1.00
H31    H     0.51518   0.92773   0.85034   0.00000  Uiso   1.00
H32    H     0.54280   0.89538   0.74593   0.00000  Uiso   1.00
H33    H     0.51058   0.05418   0.87954   0.00000  Uiso   1.00
H34    H     0.47091   0.83555   0.92113   0.00000  Uiso   1.00
H35    H     0.60692   0.85658   0.63717   0.00000  Uiso   1.00
H36    H     0.53897   0.19140   0.91891   0.00000  Uiso   1.00
H37    H     0.45533   0.73038   0.00662   0.00000  Uiso   1.00
O38    O     0.74026   0.82512   0.59255   0.00000  Uiso   1.00
O39    O     0.65111   0.26439   0.96218   0.00000  Uiso   1.00
O40    O     0.54138   0.65954   0.07726   0.00000  Uiso   1.00
N41    N     0.77213   0.84604   0.68682   0.00000  Uiso   1.00
N42    N     0.70861   0.15909   0.95021   0.00000  Uiso   1.00
N43    N     0.63040   0.72808   0.03223   0.00000  Uiso   1.00
N44    N     0.65320   0.85657   0.66197   0.00000  Uiso   1.00
N45    N     0.58968   0.16961   0.92536   0.00000  Uiso   1.00
N46    N     0.51147   0.73861   0.00738   0.00000  Uiso   1.00
C47    C     0.78582   0.58989   0.89192   0.00000  Uiso   1.00
C48    C     0.79891   0.60499   0.82933   0.00000  Uiso   1.00
C49    C     0.74367   0.62353   0.79054   0.00000  Uiso   1.00
C50    C     0.76711   0.63513   0.73524   0.00000  Uiso   1.00
C51    C     0.77588   0.65956   0.64045   0.00000  Uiso   1.00
C52    C     0.81642   0.51870   0.90191   0.00000  Uiso   1.00
C53    C     0.77590   0.46471   0.92416   0.00000  Uiso   1.00
C54    C     0.81408   0.40367   0.92997   0.00000  Uiso   1.00
C55    C     0.85004   0.29416   0.94791   0.00000  Uiso   1.00
C56    C     0.83796   0.63749   0.92451   0.00000  Uiso   1.00
C57    C     0.81557   0.68337   0.96577   0.00000  Uiso   1.00
C58    C     0.87190   0.72234   0.99061   0.00000  Uiso   1.00
C59    C     0.94132   0.79726   0.04363   0.00000  Uiso   1.00
C60    C     0.92568   0.57751   0.86270   0.00000  Uiso   1.00
C61    C     0.87488   0.59826   0.81345   0.00000  Uiso   1.00
C62    C     0.89841   0.60983   0.75820   0.00000  Uiso   1.00
C63    C     0.84322   0.62840   0.71934   0.00000  Uiso   1.00
C64    C     0.89238   0.51197   0.88604   0.00000  Uiso   1.00
C65    C     0.93063   0.45101   0.89182   0.00000  Uiso   1.00
C66    C     0.89018   0.39693   0.91407   0.00000  Uiso   1.00
C67    C     0.91393   0.63077   0.90864   0.00000  Uiso   1.00
C68    C     0.97031   0.66967   0.93343   0.00000  Uiso   1.00
C69    C     0.94800   0.71560   0.97471   0.00000  Uiso   1.00
H70    H     0.72667   0.59513   0.90428   0.00000  Uiso   1.00
H71    H     0.68489   0.62873   0.80284   0.00000  Uiso   1.00
H72    H     0.71711   0.46993   0.93644   0.00000  Uiso   1.00
H73    H     0.75678   0.68856   0.97804   0.00000  Uiso   1.00
H74    H     0.67206   0.66299   0.68336   0.00000  Uiso   1.00
H75    H     0.74001   0.32817   0.96509   0.00000  Uiso   1.00
H76    H     0.82365   0.78919   0.05281   0.00000  Uiso   1.00
H77    H     0.98482   0.57227   0.85034   0.00000  Uiso   1.00
H78    H     0.95720   0.60462   0.74593   0.00000  Uiso   1.00
H79    H     0.98942   0.44582   0.87954   0.00000  Uiso   1.00
H80    H     0.02909   0.66445   0.92113   0.00000  Uiso   1.00
H81    H     0.89308   0.64342   0.63717   0.00000  Uiso   1.00
H82    H     0.96103   0.30860   0.91891   0.00000  Uiso   1.00
H83    H     0.04467   0.76962   0.00662   0.00000  Uiso   1.00
O84    O     0.75974   0.67488   0.59255   0.00000  Uiso   1.00
O85    O     0.84889   0.23561   0.96218   0.00000  Uiso   1.00
O86    O     0.95862   0.84046   0.07726   0.00000  Uiso   1.00
N87    N     0.72787   0.65396   0.68682   0.00000  Uiso   1.00
N88    N     0.79139   0.34091   0.95021   0.00000  Uiso   1.00
N89    N     0.86960   0.77192   0.03223   0.00000  Uiso   1.00
N90    N     0.84680   0.64343   0.66197   0.00000  Uiso   1.00
N91    N     0.91032   0.33039   0.92536   0.00000  Uiso   1.00
N92    N     0.98853   0.76139   0.00738   0.00000  Uiso   1.00
C93    C     0.28582   0.41011   0.60808   0.00000  Uiso   1.00
C94    C     0.29891   0.39501   0.67067   0.00000  Uiso   1.00
C95    C     0.24367   0.37647   0.70946   0.00000  Uiso   1.00
C96    C     0.26711   0.36487   0.76476   0.00000  Uiso   1.00
C97    C     0.27588   0.34044   0.85955   0.00000  Uiso   1.00
C98    C     0.31642   0.48130   0.59809   0.00000  Uiso   1.00
C99    C     0.27590   0.53529   0.57584   0.00000  Uiso   1.00
C100   C     0.31408   0.59633   0.57003   0.00000  Uiso   1.00
C101   C     0.35004   0.70584   0.55209   0.00000  Uiso   1.00
C102   C     0.33796   0.36251   0.57549   0.00000  Uiso   1.00
C103   C     0.31557   0.31663   0.53423   0.00000  Uiso   1.00
C104   C     0.37190   0.27766   0.50939   0.00000  Uiso   1.00
C105   C     0.44132   0.20274   0.45637   0.00000  Uiso   1.00
C106   C     0.42568   0.42249   0.63730   0.00000  Uiso   1.00
C107   C     0.37488   0.40174   0.68655   0.00000  Uiso   1.00
C108   C     0.39841   0.39017   0.74180   0.00000  Uiso   1.00
C109   C     0.34322   0.37160   0.78066   0.00000  Uiso   1.00
C110   C     0.39238   0.48803   0.61396   0.00000  Uiso   1.00
C111   C     0.43063   0.54899   0.60818   0.00000  Uiso   1.00
C112   C     0.39018   0.60307   0.58593   0.00000  Uiso   1.00
C113   C     0.41393   0.36923   0.59136   0.00000  Uiso   1.00
C114   C     0.47031   0.33033   0.56657   0.00000  Uiso   1.00
C115   C     0.44800   0.28440   0.52529   0.00000  Uiso   1.00
H116   H     0.22667   0.40487   0.59572   0.00000  Uiso   1.00
H117   H     0.18489   0.37127   0.69716   0.00000  Uiso   1.00
H118   H     0.21711   0.53007   0.56356   0.00000  Uiso   1.00
H119   H     0.25678   0.31144   0.52196   0.00000  Uiso   1.00
H120   H     0.17206   0.33701   0.81664   0.00000  Uiso   1.00
H121   H     0.24001   0.67183   0.53491   0.00000  Uiso   1.00
H122   H     0.32365   0.21081   0.44719   0.00000  Uiso   1.00
H123   H     0.48482   0.42773   0.64966   0.00000  Uiso   1.00
H124   H     0.45720   0.39538   0.75407   0.00000  Uiso   1.00
H125   H     0.48942   0.55418   0.62046   0.00000  Uiso   1.00
H126   H     0.52909   0.33555   0.57887   0.00000  Uiso   1.00
H127   H     0.39308   0.35658   0.86283   0.00000  Uiso   1.00
H128   H     0.46103   0.69140   0.58109   0.00000  Uiso   1.00
H129   H     0.54467   0.23038   0.49338   0.00000  Uiso   1.00
O130   O     0.25974   0.32512   0.90745   0.00000  Uiso   1.00
O131   O     0.34889   0.76439   0.53782   0.00000  Uiso   1.00
O132   O     0.45862   0.15954   0.42274   0.00000  Uiso   1.00
N133   N     0.22787   0.34604   0.81318   0.00000  Uiso   1.00
N134   N     0.29139   0.65909   0.54979   0.00000  Uiso   1.00
N135   N     0.36960   0.22808   0.46777   0.00000  Uiso   1.00
N136   N     0.34680   0.35657   0.83803   0.00000  Uiso   1.00
N137   N     0.41032   0.66961   0.57464   0.00000  Uiso   1.00
N138   N     0.48853   0.23861   0.49262   0.00000  Uiso   1.00
C139   C     0.21418   0.08989   0.60808   0.00000  Uiso   1.00
C140   C     0.20109   0.10499   0.67067   0.00000  Uiso   1.00
C141   C     0.25633   0.12353   0.70946   0.00000  Uiso   1.00
C142   C     0.23289   0.13513   0.76476   0.00000  Uiso   1.00
C143   C     0.22412   0.15956   0.85955   0.00000  Uiso   1.00
C144   C     0.18358   0.01870   0.59809   0.00000  Uiso   1.00
C145   C     0.22410   0.96471   0.57584   0.00000  Uiso   1.00
C146   C     0.18592   0.90367   0.57003   0.00000  Uiso   1.00
C147   C     0.14996   0.79416   0.55209   0.00000  Uiso   1.00
C148   C     0.16204   0.13749   0.57549   0.00000  Uiso   1.00
C149   C     0.18443   0.18337   0.53423   0.00000  Uiso   1.00
C150   C     0.12810   0.22234   0.50939   0.00000  Uiso   1.00
C151   C     0.05868   0.29726   0.45637   0.00000  Uiso   1.00
C152   C     0.07432   0.07751   0.63730   0.00000  Uiso   1.00
C153   C     0.12512   0.09826   0.68655   0.00000  Uiso   1.00
C154   C     0.10159   0.10983   0.74180   0.00000  Uiso   1.00
C155   C     0.15678   0.12840   0.78066   0.00000  Uiso   1.00
C156   C     0.10762   0.01197   0.61396   0.00000  Uiso   1.00
C157   C     0.06937   0.95101   0.60818   0.00000  Uiso   1.00
C158   C     0.10982   0.89693   0.58593   0.00000  Uiso   1.00
C159   C     0.08607   0.13077   0.59136   0.00000  Uiso   1.00
C160   C     0.02969   0.16967   0.56657   0.00000  Uiso   1.00
C161   C     0.05200   0.21560   0.52529   0.00000  Uiso   1.00
H162   H     0.27333   0.09513   0.59572   0.00000  Uiso   1.00
H163   H     0.31511   0.12873   0.69716   0.00000  Uiso   1.00
H164   H     0.28289   0.96993   0.56356   0.00000  Uiso   1.00
H165   H     0.24322   0.18856   0.52196   0.00000  Uiso   1.00
H166   H     0.32794   0.16299   0.81664   0.00000  Uiso   1.00
H167   H     0.25999   0.82817   0.53491   0.00000  Uiso   1.00
H168   H     0.17635   0.28919   0.44719   0.00000  Uiso   1.00
H169   H     0.01518   0.07227   0.64966   0.00000  Uiso   1.00
H170   H     0.04280   0.10462   0.75407   0.00000  Uiso   1.00
H171   H     0.01058   0.94582   0.62046   0.00000  Uiso   1.00
H172   H     0.97091   0.16445   0.57887   0.00000  Uiso   1.00
H173   H     0.10692   0.14342   0.86283   0.00000  Uiso   1.00
H174   H     0.03897   0.80860   0.58109   0.00000  Uiso   1.00
H175   H     0.95533   0.26962   0.49338   0.00000  Uiso   1.00
O176   O     0.24026   0.17488   0.90745   0.00000  Uiso   1.00
O177   O     0.15111   0.73561   0.53782   0.00000  Uiso   1.00
O178   O     0.04138   0.34046   0.42274   0.00000  Uiso   1.00
N179   N     0.27213   0.15396   0.81318   0.00000  Uiso   1.00
N180   N     0.20861   0.84091   0.54979   0.00000  Uiso   1.00
N181   N     0.13040   0.27192   0.46777   0.00000  Uiso   1.00
N182   N     0.15320   0.14343   0.83803   0.00000  Uiso   1.00
N183   N     0.08968   0.83039   0.57464   0.00000  Uiso   1.00
N184   N     0.01147   0.26139   0.49262   0.00000  Uiso   1.00
C185   C     0.28582   0.08989   0.10808   0.00000  Uiso   1.00
C186   C     0.29891   0.10499   0.17067   0.00000  Uiso   1.00
C187   C     0.24367   0.12353   0.20946   0.00000  Uiso   1.00
C188   C     0.26711   0.13513   0.26476   0.00000  Uiso   1.00
C189   C     0.27588   0.15956   0.35955   0.00000  Uiso   1.00
C190   C     0.31642   0.01870   0.09809   0.00000  Uiso   1.00
C191   C     0.27590   0.96471   0.07584   0.00000  Uiso   1.00
C192   C     0.31408   0.90367   0.07003   0.00000  Uiso   1.00
C193   C     0.35004   0.79416   0.05209   0.00000  Uiso   1.00
C194   C     0.33796   0.13749   0.07549   0.00000  Uiso   1.00
C195   C     0.31557   0.18337   0.03423   0.00000  Uiso   1.00
C196   C     0.37190   0.22234   0.00939   0.00000  Uiso   1.00
C197   C     0.44132   0.29726   0.95637   0.00000  Uiso   1.00
C198   C     0.42568   0.07751   0.13730   0.00000  Uiso   1.00
C199   C     0.37488   0.09826   0.18655   0.00000  Uiso   1.00
C200   C     0.39841   0.10983   0.24180   0.00000  Uiso   1.00
C201   C     0.34322   0.12840   0.28066   0.00000  Uiso   1.00
C202   C     0.39238   0.01197   0.11396   0.00000  Uiso   1.00
C203   C     0.43063   0.95101   0.10818   0.00000  Uiso   1.00
C204   C     0.39018   0.89693   0.08593   0.00000  Uiso   1.00
C205   C     0.41393   0.13077   0.09136   0.00000  Uiso   1.00
C206   C     0.47031   0.16967   0.06657   0.00000  Uiso   1.00
C207   C     0.44800   0.21560   0.02529   0.00000  Uiso   1.00
H208   H     0.22667   0.09513   0.09572   0.00000  Uiso   1.00
H209   H     0.18489   0.12873   0.19716   0.00000  Uiso   1.00
H210   H     0.21711   0.96993   0.06356   0.00000  Uiso   1.00
H211   H     0.25678   0.18856   0.02196   0.00000  Uiso   1.00
H212   H     0.17206   0.16299   0.31664   0.00000  Uiso   1.00
H213   H     0.24001   0.82817   0.03491   0.00000  Uiso   1.00
H214   H     0.32365   0.28919   0.94719   0.00000  Uiso   1.00
H215   H     0.48482   0.07227   0.14966   0.00000  Uiso   1.00
H216   H     0.45720   0.10462   0.25407   0.00000  Uiso   1.00
H217   H     0.48942   0.94582   0.12046   0.00000  Uiso   1.00
H218   H     0.52909   0.16445   0.07887   0.00000  Uiso   1.00
H219   H     0.39308   0.14342   0.36283   0.00000  Uiso   1.00
H220   H     0.46103   0.80860   0.08109   0.00000  Uiso   1.00
H221   H     0.54467   0.26962   0.99338   0.00000  Uiso   1.00
O222   O     0.25974   0.17488   0.40745   0.00000  Uiso   1.00
O223   O     0.34889   0.73561   0.03782   0.00000  Uiso   1.00
O224   O     0.45862   0.34046   0.92274   0.00000  Uiso   1.00
N225   N     0.22787   0.15396   0.31318   0.00000  Uiso   1.00
N226   N     0.29139   0.84091   0.04979   0.00000  Uiso   1.00
N227   N     0.36960   0.27192   0.96777   0.00000  Uiso   1.00
N228   N     0.34680   0.14343   0.33803   0.00000  Uiso   1.00
N229   N     0.41032   0.83039   0.07464   0.00000  Uiso   1.00
N230   N     0.48853   0.26139   0.99262   0.00000  Uiso   1.00
C231   C     0.21418   0.41011   0.10808   0.00000  Uiso   1.00
C232   C     0.20109   0.39501   0.17067   0.00000  Uiso   1.00
C233   C     0.25633   0.37647   0.20946   0.00000  Uiso   1.00
C234   C     0.23289   0.36487   0.26476   0.00000  Uiso   1.00
C235   C     0.22412   0.34044   0.35955   0.00000  Uiso   1.00
C236   C     0.18358   0.48130   0.09809   0.00000  Uiso   1.00
C237   C     0.22410   0.53529   0.07584   0.00000  Uiso   1.00
C238   C     0.18592   0.59633   0.07003   0.00000  Uiso   1.00
C239   C     0.14996   0.70584   0.05209   0.00000  Uiso   1.00
C240   C     0.16204   0.36251   0.07549   0.00000  Uiso   1.00
C241   C     0.18443   0.31663   0.03423   0.00000  Uiso   1.00
C242   C     0.12810   0.27766   0.00939   0.00000  Uiso   1.00
C243   C     0.05868   0.20274   0.95637   0.00000  Uiso   1.00
C244   C     0.07432   0.42249   0.13730   0.00000  Uiso   1.00
C245   C     0.12512   0.40174   0.18655   0.00000  Uiso   1.00
C246   C     0.10159   0.39017   0.24180   0.00000  Uiso   1.00
C247   C     0.15678   0.37160   0.28066   0.00000  Uiso   1.00
C248   C     0.10762   0.48803   0.11396   0.00000  Uiso   1.00
C249   C     0.06937   0.54899   0.10818   0.00000  Uiso   1.00
C250   C     0.10982   0.60307   0.08593   0.00000  Uiso   1.00
C251   C     0.08607   0.36923   0.09136   0.00000  Uiso   1.00
C252   C     0.02969   0.33033   0.06657   0.00000  Uiso   1.00
C253   C     0.05200   0.28440   0.02529   0.00000  Uiso   1.00
H254   H     0.27333   0.40487   0.09572   0.00000  Uiso   1.00
H255   H     0.31511   0.37127   0.19716   0.00000  Uiso   1.00
H256   H     0.28289   0.53007   0.06356   0.00000  Uiso   1.00
H257   H     0.24322   0.31144   0.02196   0.00000  Uiso   1.00
H258   H     0.32794   0.33701   0.31664   0.00000  Uiso   1.00
H259   H     0.25999   0.67183   0.03491   0.00000  Uiso   1.00
H260   H     0.17635   0.21081   0.94719   0.00000  Uiso   1.00
H261   H     0.01518   0.42773   0.14966   0.00000  Uiso   1.00
H262   H     0.04280   0.39538   0.25407   0.00000  Uiso   1.00
H263   H     0.01058   0.55418   0.12046   0.00000  Uiso   1.00
H264   H     0.97091   0.33555   0.07887   0.00000  Uiso   1.00
H265   H     0.10692   0.35658   0.36283   0.00000  Uiso   1.00
H266   H     0.03897   0.69140   0.08109   0.00000  Uiso   1.00
H267   H     0.95533   0.23038   0.99338   0.00000  Uiso   1.00
O268   O     0.24026   0.32512   0.40745   0.00000  Uiso   1.00
O269   O     0.15111   0.76439   0.03782   0.00000  Uiso   1.00
O270   O     0.04138   0.15954   0.92274   0.00000  Uiso   1.00
N271   N     0.27213   0.34604   0.31318   0.00000  Uiso   1.00
N272   N     0.20861   0.65909   0.04979   0.00000  Uiso   1.00
N273   N     0.13040   0.22808   0.96777   0.00000  Uiso   1.00
N274   N     0.15320   0.35657   0.33803   0.00000  Uiso   1.00
N275   N     0.08968   0.66961   0.07464   0.00000  Uiso   1.00
N276   N     0.01147   0.23861   0.99262   0.00000  Uiso   1.00
C277   C     0.71418   0.58989   0.39192   0.00000  Uiso   1.00
C278   C     0.70109   0.60499   0.32933   0.00000  Uiso   1.00
C279   C     0.75633   0.62353   0.29054   0.00000  Uiso   1.00
C280   C     0.73289   0.63513   0.23524   0.00000  Uiso   1.00
C281   C     0.72412   0.65956   0.14045   0.00000  Uiso   1.00
C282   C     0.68358   0.51870   0.40191   0.00000  Uiso   1.00
C283   C     0.72410   0.46471   0.42416   0.00000  Uiso   1.00
C284   C     0.68592   0.40367   0.42997   0.00000  Uiso   1.00
C285   C     0.64996   0.29416   0.44791   0.00000  Uiso   1.00
C286   C     0.66204   0.63749   0.42451   0.00000  Uiso   1.00
C287   C     0.68443   0.68337   0.46577   0.00000  Uiso   1.00
C288   C     0.62810   0.72234   0.49061   0.00000  Uiso   1.00
C289   C     0.55868   0.79726   0.54363   0.00000  Uiso   1.00
C290   C     0.57432   0.57751   0.36270   0.00000  Uiso   1.00
C291   C     0.62512   0.59826   0.31345   0.00000  Uiso   1.00
C292   C     0.60159   0.60983   0.25820   0.00000  Uiso   1.00
C293   C     0.65678   0.62840   0.21934   0.00000  Uiso   1.00
C294   C     0.60762   0.51197   0.38604   0.00000  Uiso   1.00
C295   C     0.56937   0.45101   0.39182   0.00000  Uiso   1.00
C296   C     0.60982   0.39693   0.41407   0.00000  Uiso   1.00
C297   C     0.58607   0.63077   0.40864   0.00000  Uiso   1.00
C298   C     0.52969   0.66967   0.43343   0.00000  Uiso   1.00
C299   C     0.55200   0.71560   0.47471   0.00000  Uiso   1.00
H300   H     0.77333   0.59513   0.40428   0.00000  Uiso   1.00
H301   H     0.81511   0.62873   0.30284   0.00000  Uiso   1.00
H302   H     0.78289   0.46993   0.43644   0.00000  Uiso   1.00
H303   H     0.74322   0.68856   0.47804   0.00000  Uiso   1.00
H304   H     0.82794   0.66299   0.18336   0.00000  Uiso   1.00
H305   H     0.75999   0.32817   0.46509   0.00000  Uiso   1.00
H306   H     0.67635   0.78919   0.55281   0.00000  Uiso   1.00
H307   H     0.51518   0.57227   0.35034   0.00000  Uiso   1.00
H308   H     0.54280   0.60462   0.24593   0.00000  Uiso   1.00
H309   H     0.51058   0.44582   0.37954   0.00000  Uiso   1.00
H310   H     0.47091   0.66445   0.42113   0.00000  Uiso   1.00
H311   H     0.60692   0.64342   0.13717   0.00000  Uiso   1.00
H312   H     0.53897   0.30860   0.41891   0.00000  Uiso   1.00
H313   H     0.45533   0.76962   0.50662   0.00000  Uiso   1.00
O314   O     0.74026   0.67488   0.09255   0.00000  Uiso   1.00
O315   O     0.65111   0.23561   0.46218   0.00000  Uiso   1.00
O316   O     0.54138   0.84046   0.57726   0.00000  Uiso   1.00
N317   N     0.77213   0.65396   0.18682   0.00000  Uiso   1.00
N318   N     0.70861   0.34091   0.45021   0.00000  Uiso   1.00
N319   N     0.63040   0.77192   0.53223   0.00000  Uiso   1.00
N320   N     0.65320   0.64343   0.16197   0.00000  Uiso   1.00
N321   N     0.58968   0.33039   0.42536   0.00000  Uiso   1.00
N322   N     0.51147   0.76139   0.50738   0.00000  Uiso   1.00
C323   C     0.78582   0.91011   0.39192   0.00000  Uiso   1.00
C324   C     0.79891   0.89501   0.32933   0.00000  Uiso   1.00
C325   C     0.74367   0.87647   0.29054   0.00000  Uiso   1.00
C326   C     0.76711   0.86487   0.23524   0.00000  Uiso   1.00
C327   C     0.77588   0.84044   0.14045   0.00000  Uiso   1.00
C328   C     0.81642   0.98130   0.40191   0.00000  Uiso   1.00
C329   C     0.77590   0.03529   0.42416   0.00000  Uiso   1.00
C330   C     0.81408   0.09633   0.42997   0.00000  Uiso   1.00
C331   C     0.85004   0.20584   0.44791   0.00000  Uiso   1.00
C332   C     0.83796   0.86251   0.42451   0.00000  Uiso   1.00
C333   C     0.81557   0.81663   0.46577   0.00000  Uiso   1.00
C334   C     0.87190   0.77766   0.49061   0.00000  Uiso   1.00
C335   C     0.94132   0.70274   0.54363   0.00000  Uiso   1.00
C336   C     0.92568   0.92249   0.36270   0.00000  Uiso   1.00
C337   C     0.87488   0.90174   0.31345   0.00000  Uiso   1.00
C338   C     0.89841   0.89017   0.25820   0.00000  Uiso   1.00
C339   C     0.84322   0.87160   0.21934   0.00000  Uiso   1.00
C340   C     0.89238   0.98803   0.38604   0.00000  Uiso   1.00
C341   C     0.93063   0.04899   0.39182   0.00000  Uiso   1.00
C342   C     0.89018   0.10307   0.41407   0.00000  Uiso   1.00
C343   C     0.91393   0.86923   0.40864   0.00000  Uiso   1.00
C344   C     0.97031   0.83033   0.43343   0.00000  Uiso   1.00
C345   C     0.94800   0.78440   0.47471   0.00000  Uiso   1.00
H346   H     0.72667   0.90487   0.40428   0.00000  Uiso   1.00
H347   H     0.68489   0.87127   0.30284   0.00000  Uiso   1.00
H348   H     0.71711   0.03007   0.43644   0.00000  Uiso   1.00
H349   H     0.75678   0.81144   0.47804   0.00000  Uiso   1.00
H350   H     0.67206   0.83701   0.18336   0.00000  Uiso   1.00
H351   H     0.74001   0.17183   0.46509   0.00000  Uiso   1.00
H352   H     0.82365   0.71081   0.55281   0.00000  Uiso   1.00
H353   H     0.98482   0.92773   0.35034   0.00000  Uiso   1.00
H354   H     0.95720   0.89538   0.24593   0.00000  Uiso   1.00
H355   H     0.98942   0.05418   0.37954   0.00000  Uiso   1.00
H356   H     0.02909   0.83555   0.42113   0.00000  Uiso   1.00
H357   H     0.89308   0.85658   0.13717   0.00000  Uiso   1.00
H358   H     0.96103   0.19140   0.41891   0.00000  Uiso   1.00
H359   H     0.04467   0.73038   0.50662   0.00000  Uiso   1.00
O360   O     0.75974   0.82512   0.09255   0.00000  Uiso   1.00
O361   O     0.84889   0.26439   0.46218   0.00000  Uiso   1.00
O362   O     0.95862   0.65954   0.57726   0.00000  Uiso   1.00
N363   N     0.72787   0.84604   0.18682   0.00000  Uiso   1.00
N364   N     0.79139   0.15909   0.45021   0.00000  Uiso   1.00
N365   N     0.86960   0.72808   0.53223   0.00000  Uiso   1.00
N366   N     0.84680   0.85657   0.16197   0.00000  Uiso   1.00
N367   N     0.91032   0.16961   0.42536   0.00000  Uiso   1.00
N368   N     0.98853   0.73861   0.50738   0.00000  Uiso   1.00
