data_job_00476
_audit_creation_date              2018-12-19
_audit_creation_method            'Materials Studio'
_symmetry_space_group_name_H-M    'P1'
_symmetry_Int_Tables_number       1
_symmetry_cell_setting            triclinic
loop_
_symmetry_equiv_pos_as_xyz
  x,y,z
_cell_length_a                    12.0402
_cell_length_b                    12.0402
_cell_length_c                    14.9723
_cell_angle_alpha                 90.0000
_cell_angle_beta                  90.0000
_cell_angle_gamma                 90.0000
loop_
_atom_site_label
_atom_site_type_symbol
_atom_site_fract_x
_atom_site_fract_y
_atom_site_fract_z
_atom_site_U_iso_or_equiv
_atom_site_adp_type
_atom_site_occupancy
C1     C     0.14350   0.59413   0.41888   0.00000  Uiso   1.00
C2     C     0.14459   0.69617   0.35855   0.00000  Uiso   1.00
C3     C     0.05786   0.73109   0.30434   0.00000  Uiso   1.00
C4     C     0.07522   0.82652   0.25419   0.00000  Uiso   1.00
C5     C     0.06164   0.97605   0.15987   0.00000  Uiso   1.00
C6     C     0.24270   0.52373   0.39053   0.00000  Uiso   1.00
C7     C     0.23847   0.41366   0.36322   0.00000  Uiso   1.00
C8     C     0.33843   0.36393   0.34001   0.00000  Uiso   1.00
C9     C     0.47719   0.24573   0.29540   0.00000  Uiso   1.00
C10    C     0.17001   0.63608   0.51258   0.00000  Uiso   1.00
C11    C     0.10468   0.62045   0.58790   0.00000  Uiso   1.00
C12    C     0.14344   0.66528   0.66745   0.00000  Uiso   1.00
C13    C     0.16934   0.72152   0.81235   0.00000  Uiso   1.00
C14    C     0.32854   0.70152   0.42622   0.00000  Uiso   1.00
C15    C     0.24510   0.75450   0.36254   0.00000  Uiso   1.00
C16    C     0.26259   0.84990   0.31246   0.00000  Uiso   1.00
C17    C     0.17590   0.88496   0.25819   0.00000  Uiso   1.00
C18    C     0.34321   0.58206   0.39452   0.00000  Uiso   1.00
C19    C     0.44320   0.53248   0.37134   0.00000  Uiso   1.00
C20    C     0.43912   0.42236   0.34400   0.00000  Uiso   1.00
C21    C     0.27052   0.69441   0.51657   0.00000  Uiso   1.00
C22    C     0.30940   0.73927   0.59602   0.00000  Uiso   1.00
C23    C     0.24413   0.72372   0.67145   0.00000  Uiso   1.00
H24    H     0.06525   0.54872   0.41578   0.00000  Uiso   1.00
H25    H     0.98009   0.68592   0.30127   0.00000  Uiso   1.00
H26    H     0.16068   0.36854   0.36015   0.00000  Uiso   1.00
H27    H     0.02690   0.57531   0.58479   0.00000  Uiso   1.00
H28    H     0.93002   0.86374   0.17605   0.00000  Uiso   1.00
H29    H     0.31080   0.19452   0.30023   0.00000  Uiso   1.00
H30    H     0.02871   0.63051   0.77394   0.00000  Uiso   1.00
H31    H     0.40679   0.74693   0.42933   0.00000  Uiso   1.00
H32    H     0.34038   0.89502   0.31556   0.00000  Uiso   1.00
H33    H     0.52096   0.57764   0.37444   0.00000  Uiso   1.00
H34    H     0.38718   0.78440   0.59908   0.00000  Uiso   1.00
H35    H     0.22244   0.03345   0.18764   0.00000  Uiso   1.00
H36    H     0.60322   0.36422   0.31184   0.00000  Uiso   1.00
H37    H     0.32112   0.80022   0.78554   0.00000  Uiso   1.00
O38    O     0.02639   0.04241   0.10674   0.00000  Uiso   1.00
O39    O     0.52596   0.16442   0.26969   0.00000  Uiso   1.00
O40    O     0.15585   0.73643   0.89117   0.00000  Uiso   1.00
N41    N     0.00795   0.88337   0.19440   0.00000  Uiso   1.00
N42    N     0.36395   0.25769   0.31050   0.00000  Uiso   1.00
N43    N     0.10023   0.66528   0.75338   0.00000  Uiso   1.00
N44    N     0.16530   0.97469   0.20064   0.00000  Uiso   1.00
N45    N     0.52130   0.34901   0.31674   0.00000  Uiso   1.00
N46    N     0.25758   0.75661   0.75962   0.00000  Uiso   1.00
C47    C     0.85650   0.40587   0.91888   0.00000  Uiso   1.00
C48    C     0.85541   0.30383   0.85855   0.00000  Uiso   1.00
C49    C     0.94214   0.26891   0.80434   0.00000  Uiso   1.00
C50    C     0.92478   0.17348   0.75419   0.00000  Uiso   1.00
C51    C     0.93836   0.02395   0.65987   0.00000  Uiso   1.00
C52    C     0.75730   0.47627   0.89053   0.00000  Uiso   1.00
C53    C     0.76153   0.58634   0.86322   0.00000  Uiso   1.00
C54    C     0.66157   0.63607   0.84001   0.00000  Uiso   1.00
C55    C     0.52281   0.75427   0.79540   0.00000  Uiso   1.00
C56    C     0.82999   0.36392   0.01258   0.00000  Uiso   1.00
C57    C     0.89532   0.37955   0.08790   0.00000  Uiso   1.00
C58    C     0.85656   0.33472   0.16745   0.00000  Uiso   1.00
C59    C     0.83066   0.27848   0.31235   0.00000  Uiso   1.00
C60    C     0.67146   0.29848   0.92622   0.00000  Uiso   1.00
C61    C     0.75490   0.24550   0.86254   0.00000  Uiso   1.00
C62    C     0.73741   0.15010   0.81246   0.00000  Uiso   1.00
C63    C     0.82410   0.11504   0.75819   0.00000  Uiso   1.00
C64    C     0.65679   0.41794   0.89452   0.00000  Uiso   1.00
C65    C     0.55680   0.46752   0.87134   0.00000  Uiso   1.00
C66    C     0.56088   0.57764   0.84400   0.00000  Uiso   1.00
C67    C     0.72948   0.30559   0.01657   0.00000  Uiso   1.00
C68    C     0.69060   0.26073   0.09602   0.00000  Uiso   1.00
C69    C     0.75587   0.27628   0.17145   0.00000  Uiso   1.00
H70    H     0.93475   0.45128   0.91578   0.00000  Uiso   1.00
H71    H     0.01991   0.31408   0.80127   0.00000  Uiso   1.00
H72    H     0.83932   0.63146   0.86015   0.00000  Uiso   1.00
H73    H     0.97310   0.42469   0.08479   0.00000  Uiso   1.00
H74    H     0.06998   0.13626   0.67605   0.00000  Uiso   1.00
H75    H     0.68920   0.80548   0.80023   0.00000  Uiso   1.00
H76    H     0.97129   0.36949   0.27394   0.00000  Uiso   1.00
H77    H     0.59321   0.25307   0.92933   0.00000  Uiso   1.00
H78    H     0.65962   0.10498   0.81556   0.00000  Uiso   1.00
H79    H     0.47904   0.42236   0.87444   0.00000  Uiso   1.00
H80    H     0.61282   0.21560   0.09908   0.00000  Uiso   1.00
H81    H     0.77756   0.96655   0.68764   0.00000  Uiso   1.00
H82    H     0.39678   0.63578   0.81184   0.00000  Uiso   1.00
H83    H     0.67888   0.19978   0.28554   0.00000  Uiso   1.00
O84    O     0.97361   0.95759   0.60674   0.00000  Uiso   1.00
O85    O     0.47404   0.83558   0.76969   0.00000  Uiso   1.00
O86    O     0.84415   0.26357   0.39117   0.00000  Uiso   1.00
N87    N     0.99205   0.11663   0.69440   0.00000  Uiso   1.00
N88    N     0.63605   0.74231   0.81050   0.00000  Uiso   1.00
N89    N     0.89977   0.33472   0.25338   0.00000  Uiso   1.00
N90    N     0.83470   0.02531   0.70064   0.00000  Uiso   1.00
N91    N     0.47870   0.65099   0.81674   0.00000  Uiso   1.00
N92    N     0.74242   0.24339   0.25962   0.00000  Uiso   1.00
C93    C     0.40587   0.14350   0.66888   0.00000  Uiso   1.00
C94    C     0.30383   0.14459   0.60855   0.00000  Uiso   1.00
C95    C     0.26891   0.05786   0.55434   0.00000  Uiso   1.00
C96    C     0.17348   0.07522   0.50419   0.00000  Uiso   1.00
C97    C     0.02395   0.06164   0.40987   0.00000  Uiso   1.00
C98    C     0.47627   0.24270   0.64053   0.00000  Uiso   1.00
C99    C     0.58634   0.23847   0.61322   0.00000  Uiso   1.00
C100   C     0.63607   0.33843   0.59001   0.00000  Uiso   1.00
C101   C     0.75427   0.47719   0.54540   0.00000  Uiso   1.00
C102   C     0.36392   0.17001   0.76258   0.00000  Uiso   1.00
C103   C     0.37955   0.10468   0.83790   0.00000  Uiso   1.00
C104   C     0.33472   0.14344   0.91745   0.00000  Uiso   1.00
C105   C     0.27848   0.16934   0.06235   0.00000  Uiso   1.00
C106   C     0.29848   0.32854   0.67622   0.00000  Uiso   1.00
C107   C     0.24550   0.24510   0.61254   0.00000  Uiso   1.00
C108   C     0.15010   0.26259   0.56246   0.00000  Uiso   1.00
C109   C     0.11504   0.17590   0.50819   0.00000  Uiso   1.00
C110   C     0.41794   0.34321   0.64452   0.00000  Uiso   1.00
C111   C     0.46752   0.44320   0.62134   0.00000  Uiso   1.00
C112   C     0.57764   0.43912   0.59400   0.00000  Uiso   1.00
C113   C     0.30559   0.27052   0.76657   0.00000  Uiso   1.00
C114   C     0.26073   0.30940   0.84602   0.00000  Uiso   1.00
C115   C     0.27628   0.24413   0.92145   0.00000  Uiso   1.00
H116   H     0.45128   0.06525   0.66578   0.00000  Uiso   1.00
H117   H     0.31408   0.98009   0.55127   0.00000  Uiso   1.00
H118   H     0.63146   0.16068   0.61015   0.00000  Uiso   1.00
H119   H     0.42469   0.02690   0.83479   0.00000  Uiso   1.00
H120   H     0.13626   0.93002   0.42605   0.00000  Uiso   1.00
H121   H     0.80548   0.31080   0.55023   0.00000  Uiso   1.00
H122   H     0.36949   0.02871   0.02394   0.00000  Uiso   1.00
H123   H     0.25307   0.40679   0.67933   0.00000  Uiso   1.00
H124   H     0.10498   0.34038   0.56556   0.00000  Uiso   1.00
H125   H     0.42236   0.52096   0.62444   0.00000  Uiso   1.00
H126   H     0.21560   0.38718   0.84908   0.00000  Uiso   1.00
H127   H     0.96655   0.22244   0.43764   0.00000  Uiso   1.00
H128   H     0.63578   0.60322   0.56184   0.00000  Uiso   1.00
H129   H     0.19978   0.32112   0.03554   0.00000  Uiso   1.00
O130   O     0.95759   0.02639   0.35674   0.00000  Uiso   1.00
O131   O     0.83558   0.52596   0.51969   0.00000  Uiso   1.00
O132   O     0.26357   0.15585   0.14117   0.00000  Uiso   1.00
N133   N     0.11663   0.00795   0.44440   0.00000  Uiso   1.00
N134   N     0.74231   0.36395   0.56050   0.00000  Uiso   1.00
N135   N     0.33472   0.10023   0.00338   0.00000  Uiso   1.00
N136   N     0.02531   0.16530   0.45064   0.00000  Uiso   1.00
N137   N     0.65099   0.52130   0.56674   0.00000  Uiso   1.00
N138   N     0.24339   0.25758   0.00962   0.00000  Uiso   1.00
C139   C     0.59413   0.85650   0.16888   0.00000  Uiso   1.00
C140   C     0.69617   0.85541   0.10855   0.00000  Uiso   1.00
C141   C     0.73109   0.94214   0.05434   0.00000  Uiso   1.00
C142   C     0.82652   0.92478   0.00419   0.00000  Uiso   1.00
C143   C     0.97605   0.93836   0.90987   0.00000  Uiso   1.00
C144   C     0.52373   0.75730   0.14053   0.00000  Uiso   1.00
C145   C     0.41366   0.76153   0.11322   0.00000  Uiso   1.00
C146   C     0.36393   0.66157   0.09001   0.00000  Uiso   1.00
C147   C     0.24573   0.52281   0.04540   0.00000  Uiso   1.00
C148   C     0.63608   0.82999   0.26258   0.00000  Uiso   1.00
C149   C     0.62045   0.89532   0.33790   0.00000  Uiso   1.00
C150   C     0.66528   0.85656   0.41745   0.00000  Uiso   1.00
C151   C     0.72152   0.83066   0.56235   0.00000  Uiso   1.00
C152   C     0.70152   0.67146   0.17622   0.00000  Uiso   1.00
C153   C     0.75450   0.75490   0.11254   0.00000  Uiso   1.00
C154   C     0.84990   0.73741   0.06246   0.00000  Uiso   1.00
C155   C     0.88496   0.82410   0.00819   0.00000  Uiso   1.00
C156   C     0.58206   0.65679   0.14452   0.00000  Uiso   1.00
C157   C     0.53248   0.55680   0.12134   0.00000  Uiso   1.00
C158   C     0.42236   0.56088   0.09400   0.00000  Uiso   1.00
C159   C     0.69441   0.72948   0.26657   0.00000  Uiso   1.00
C160   C     0.73927   0.69060   0.34602   0.00000  Uiso   1.00
C161   C     0.72372   0.75587   0.42145   0.00000  Uiso   1.00
H162   H     0.54872   0.93475   0.16578   0.00000  Uiso   1.00
H163   H     0.68592   0.01991   0.05127   0.00000  Uiso   1.00
H164   H     0.36854   0.83932   0.11015   0.00000  Uiso   1.00
H165   H     0.57531   0.97310   0.33479   0.00000  Uiso   1.00
H166   H     0.86374   0.06998   0.92605   0.00000  Uiso   1.00
H167   H     0.19452   0.68920   0.05023   0.00000  Uiso   1.00
H168   H     0.63051   0.97129   0.52394   0.00000  Uiso   1.00
H169   H     0.74693   0.59321   0.17933   0.00000  Uiso   1.00
H170   H     0.89502   0.65962   0.06556   0.00000  Uiso   1.00
H171   H     0.57764   0.47904   0.12444   0.00000  Uiso   1.00
H172   H     0.78440   0.61282   0.34908   0.00000  Uiso   1.00
H173   H     0.03345   0.77756   0.93764   0.00000  Uiso   1.00
H174   H     0.36422   0.39678   0.06184   0.00000  Uiso   1.00
H175   H     0.80022   0.67888   0.53554   0.00000  Uiso   1.00
O176   O     0.04241   0.97361   0.85674   0.00000  Uiso   1.00
O177   O     0.16442   0.47404   0.01969   0.00000  Uiso   1.00
O178   O     0.73643   0.84415   0.64117   0.00000  Uiso   1.00
N179   N     0.88337   0.99205   0.94440   0.00000  Uiso   1.00
N180   N     0.25769   0.63605   0.06050   0.00000  Uiso   1.00
N181   N     0.66528   0.89977   0.50338   0.00000  Uiso   1.00
N182   N     0.97469   0.83470   0.95064   0.00000  Uiso   1.00
N183   N     0.34901   0.47870   0.06674   0.00000  Uiso   1.00
N184   N     0.75661   0.74242   0.50962   0.00000  Uiso   1.00
