data_job_01253
_audit_creation_date              2018-12-19
_audit_creation_method            'Materials Studio'
_symmetry_space_group_name_H-M    'P1'
_symmetry_Int_Tables_number       1
_symmetry_cell_setting            triclinic
loop_
_symmetry_equiv_pos_as_xyz
  x,y,z
_cell_length_a                    37.6928
_cell_length_b                    7.9852
_cell_length_c                    17.0446
_cell_angle_alpha                 90.0000
_cell_angle_beta                  90.0000
_cell_angle_gamma                 90.0000
loop_
_atom_site_label
_atom_site_type_symbol
_atom_site_fract_x
_atom_site_fract_y
_atom_site_fract_z
_atom_site_U_iso_or_equiv
_atom_site_adp_type
_atom_site_occupancy
C1     C     0.10737   0.84356   0.99709   0.00000  Uiso   1.00
C2     C     0.10583   0.70473   0.93575   0.00000  Uiso   1.00
C3     C     0.10879   0.72647   0.85523   0.00000  Uiso   1.00
C4     C     0.10669   0.58364   0.80901   0.00000  Uiso   1.00
C5     C     0.10502   0.39224   0.70872   0.00000  Uiso   1.00
C6     C     0.07302   0.83025   0.04396   0.00000  Uiso   1.00
C7     C     0.04840   0.95754   0.05443   0.00000  Uiso   1.00
C8     C     0.01869   0.92037   0.09931   0.00000  Uiso   1.00
C9     C     0.96610   0.92388   0.16706   0.00000  Uiso   1.00
C10    C     0.13709   0.79538   0.05343   0.00000  Uiso   1.00
C11    C     0.16633   0.89336   0.07189   0.00000  Uiso   1.00
C12    C     0.19055   0.82685   0.12477   0.00000  Uiso   1.00
C13    C     0.23744   0.77621   0.20722   0.00000  Uiso   1.00
C14    C     0.09838   0.55125   0.05819   0.00000  Uiso   1.00
C15    C     0.10095   0.54596   0.96893   0.00000  Uiso   1.00
C16    C     0.09884   0.40306   0.92283   0.00000  Uiso   1.00
C17    C     0.10180   0.42458   0.84226   0.00000  Uiso   1.00
C18    C     0.06814   0.67149   0.07714   0.00000  Uiso   1.00
C19    C     0.03846   0.63413   0.12202   0.00000  Uiso   1.00
C20    C     0.01380   0.76131   0.13256   0.00000  Uiso   1.00
C21    C     0.13221   0.63661   0.08662   0.00000  Uiso   1.00
C22    C     0.15639   0.56994   0.13948   0.00000  Uiso   1.00
C23    C     0.18566   0.66779   0.15801   0.00000  Uiso   1.00
H24    H     0.11117   0.96717   0.97125   0.00000  Uiso   1.00
H25    H     0.11256   0.84937   0.82957   0.00000  Uiso   1.00
H26    H     0.05219   0.08039   0.02875   0.00000  Uiso   1.00
H27    H     0.17010   0.01622   0.04620   0.00000  Uiso   1.00
H28    H     0.11194   0.64874   0.68712   0.00000  Uiso   1.00
H29    H     0.98465   0.13590   0.10711   0.00000  Uiso   1.00
H30    H     0.23329   0.00057   0.14392   0.00000  Uiso   1.00
H31    H     0.09458   0.42764   0.08402   0.00000  Uiso   1.00
H32    H     0.09506   0.28021   0.94853   0.00000  Uiso   1.00
H33    H     0.03469   0.51125   0.14770   0.00000  Uiso   1.00
H34    H     0.15260   0.44707   0.16515   0.00000  Uiso   1.00
H35    H     0.09774   0.18680   0.78367   0.00000  Uiso   1.00
H36    H     0.97044   0.67396   0.20366   0.00000  Uiso   1.00
H37    H     0.21908   0.53863   0.24047   0.00000  Uiso   1.00
O38    O     0.10545   0.33053   0.64423   0.00000  Uiso   1.00
O39    O     0.93844   0.96968   0.19525   0.00000  Uiso   1.00
O40    O     0.26466   0.79213   0.24353   0.00000  Uiso   1.00
N41    N     0.10854   0.56025   0.72844   0.00000  Uiso   1.00
N42    N     0.98952   0.01570   0.12110   0.00000  Uiso   1.00
N43    N     0.22198   0.88921   0.15552   0.00000  Uiso   1.00
N44    N     0.10090   0.31168   0.78039   0.00000  Uiso   1.00
N45    N     0.98188   0.76714   0.17305   0.00000  Uiso   1.00
N46    N     0.21433   0.64064   0.20747   0.00000  Uiso   1.00
C47    C     0.39263   0.15644   0.49709   0.00000  Uiso   1.00
C48    C     0.39417   0.29527   0.43575   0.00000  Uiso   1.00
C49    C     0.39121   0.27353   0.35523   0.00000  Uiso   1.00
C50    C     0.39331   0.41636   0.30901   0.00000  Uiso   1.00
C51    C     0.39498   0.60776   0.20872   0.00000  Uiso   1.00
C52    C     0.42698   0.16975   0.54396   0.00000  Uiso   1.00
C53    C     0.45160   0.04246   0.55443   0.00000  Uiso   1.00
C54    C     0.48131   0.07963   0.59931   0.00000  Uiso   1.00
C55    C     0.53390   0.07612   0.66706   0.00000  Uiso   1.00
C56    C     0.36291   0.20462   0.55343   0.00000  Uiso   1.00
C57    C     0.33367   0.10664   0.57189   0.00000  Uiso   1.00
C58    C     0.30945   0.17315   0.62477   0.00000  Uiso   1.00
C59    C     0.26256   0.22379   0.70722   0.00000  Uiso   1.00
C60    C     0.40162   0.44875   0.55819   0.00000  Uiso   1.00
C61    C     0.39905   0.45404   0.46893   0.00000  Uiso   1.00
C62    C     0.40116   0.59694   0.42283   0.00000  Uiso   1.00
C63    C     0.39820   0.57542   0.34226   0.00000  Uiso   1.00
C64    C     0.43186   0.32851   0.57714   0.00000  Uiso   1.00
C65    C     0.46154   0.36587   0.62202   0.00000  Uiso   1.00
C66    C     0.48620   0.23869   0.63256   0.00000  Uiso   1.00
C67    C     0.36779   0.36339   0.58662   0.00000  Uiso   1.00
C68    C     0.34361   0.43006   0.63948   0.00000  Uiso   1.00
C69    C     0.31434   0.33221   0.65801   0.00000  Uiso   1.00
H70    H     0.38883   0.03283   0.47125   0.00000  Uiso   1.00
H71    H     0.38744   0.15063   0.32957   0.00000  Uiso   1.00
H72    H     0.44781   0.91961   0.52875   0.00000  Uiso   1.00
H73    H     0.32990   0.98378   0.54620   0.00000  Uiso   1.00
H74    H     0.38806   0.35126   0.18712   0.00000  Uiso   1.00
H75    H     0.51535   0.86410   0.60711   0.00000  Uiso   1.00
H76    H     0.26671   0.99943   0.64392   0.00000  Uiso   1.00
H77    H     0.40542   0.57236   0.58402   0.00000  Uiso   1.00
H78    H     0.40494   0.71979   0.44853   0.00000  Uiso   1.00
H79    H     0.46531   0.48875   0.64770   0.00000  Uiso   1.00
H80    H     0.34740   0.55293   0.66515   0.00000  Uiso   1.00
H81    H     0.40226   0.81320   0.28367   0.00000  Uiso   1.00
H82    H     0.52956   0.32604   0.70366   0.00000  Uiso   1.00
H83    H     0.28092   0.46137   0.74047   0.00000  Uiso   1.00
O84    O     0.39455   0.66947   0.14423   0.00000  Uiso   1.00
O85    O     0.56156   0.03032   0.69525   0.00000  Uiso   1.00
O86    O     0.23534   0.20787   0.74353   0.00000  Uiso   1.00
N87    N     0.39146   0.43975   0.22844   0.00000  Uiso   1.00
N88    N     0.51048   0.98430   0.62110   0.00000  Uiso   1.00
N89    N     0.27802   0.11079   0.65552   0.00000  Uiso   1.00
N90    N     0.39910   0.68832   0.28039   0.00000  Uiso   1.00
N91    N     0.51812   0.23286   0.67305   0.00000  Uiso   1.00
N92    N     0.28567   0.35936   0.70747   0.00000  Uiso   1.00
C93    C     0.89263   0.34356   0.50291   0.00000  Uiso   1.00
C94    C     0.89417   0.20473   0.56425   0.00000  Uiso   1.00
C95    C     0.89121   0.22647   0.64477   0.00000  Uiso   1.00
C96    C     0.89331   0.08364   0.69099   0.00000  Uiso   1.00
C97    C     0.89498   0.89224   0.79128   0.00000  Uiso   1.00
C98    C     0.92698   0.33025   0.45604   0.00000  Uiso   1.00
C99    C     0.95160   0.45754   0.44557   0.00000  Uiso   1.00
C100   C     0.98131   0.42037   0.40069   0.00000  Uiso   1.00
C101   C     0.03390   0.42388   0.33294   0.00000  Uiso   1.00
C102   C     0.86291   0.29538   0.44657   0.00000  Uiso   1.00
C103   C     0.83367   0.39336   0.42811   0.00000  Uiso   1.00
C104   C     0.80945   0.32685   0.37523   0.00000  Uiso   1.00
C105   C     0.76256   0.27621   0.29278   0.00000  Uiso   1.00
C106   C     0.90162   0.05125   0.44181   0.00000  Uiso   1.00
C107   C     0.89905   0.04596   0.53107   0.00000  Uiso   1.00
C108   C     0.90116   0.90306   0.57717   0.00000  Uiso   1.00
C109   C     0.89820   0.92458   0.65774   0.00000  Uiso   1.00
C110   C     0.93186   0.17149   0.42286   0.00000  Uiso   1.00
C111   C     0.96154   0.13413   0.37798   0.00000  Uiso   1.00
C112   C     0.98620   0.26131   0.36744   0.00000  Uiso   1.00
C113   C     0.86779   0.13661   0.41338   0.00000  Uiso   1.00
C114   C     0.84361   0.06994   0.36052   0.00000  Uiso   1.00
C115   C     0.81434   0.16779   0.34199   0.00000  Uiso   1.00
H116   H     0.88883   0.46717   0.52875   0.00000  Uiso   1.00
H117   H     0.88744   0.34937   0.67043   0.00000  Uiso   1.00
H118   H     0.94781   0.58039   0.47125   0.00000  Uiso   1.00
H119   H     0.82990   0.51622   0.45380   0.00000  Uiso   1.00
H120   H     0.88806   0.14874   0.81288   0.00000  Uiso   1.00
H121   H     0.01535   0.63590   0.39289   0.00000  Uiso   1.00
H122   H     0.76671   0.50057   0.35608   0.00000  Uiso   1.00
H123   H     0.90542   0.92764   0.41598   0.00000  Uiso   1.00
H124   H     0.90494   0.78021   0.55147   0.00000  Uiso   1.00
H125   H     0.96531   0.01125   0.35230   0.00000  Uiso   1.00
H126   H     0.84740   0.94707   0.33485   0.00000  Uiso   1.00
H127   H     0.90226   0.68680   0.71633   0.00000  Uiso   1.00
H128   H     0.02956   0.17396   0.29634   0.00000  Uiso   1.00
H129   H     0.78092   0.03863   0.25953   0.00000  Uiso   1.00
O130   O     0.89455   0.83053   0.85577   0.00000  Uiso   1.00
O131   O     0.06156   0.46968   0.30475   0.00000  Uiso   1.00
O132   O     0.73534   0.29213   0.25647   0.00000  Uiso   1.00
N133   N     0.89146   0.06025   0.77156   0.00000  Uiso   1.00
N134   N     0.01048   0.51570   0.37890   0.00000  Uiso   1.00
N135   N     0.77802   0.38921   0.34448   0.00000  Uiso   1.00
N136   N     0.89910   0.81168   0.71961   0.00000  Uiso   1.00
N137   N     0.01812   0.26714   0.32695   0.00000  Uiso   1.00
N138   N     0.78567   0.14064   0.29253   0.00000  Uiso   1.00
C139   C     0.60737   0.65644   0.00291   0.00000  Uiso   1.00
C140   C     0.60583   0.79527   0.06425   0.00000  Uiso   1.00
C141   C     0.60879   0.77353   0.14477   0.00000  Uiso   1.00
C142   C     0.60669   0.91636   0.19099   0.00000  Uiso   1.00
C143   C     0.60502   0.10776   0.29128   0.00000  Uiso   1.00
C144   C     0.57302   0.66975   0.95604   0.00000  Uiso   1.00
C145   C     0.54840   0.54246   0.94557   0.00000  Uiso   1.00
C146   C     0.51869   0.57963   0.90069   0.00000  Uiso   1.00
C147   C     0.46610   0.57612   0.83294   0.00000  Uiso   1.00
C148   C     0.63709   0.70462   0.94657   0.00000  Uiso   1.00
C149   C     0.66633   0.60664   0.92811   0.00000  Uiso   1.00
C150   C     0.69055   0.67315   0.87523   0.00000  Uiso   1.00
C151   C     0.73744   0.72379   0.79278   0.00000  Uiso   1.00
C152   C     0.59838   0.94875   0.94181   0.00000  Uiso   1.00
C153   C     0.60095   0.95404   0.03107   0.00000  Uiso   1.00
C154   C     0.59884   0.09694   0.07717   0.00000  Uiso   1.00
C155   C     0.60180   0.07542   0.15774   0.00000  Uiso   1.00
C156   C     0.56814   0.82851   0.92286   0.00000  Uiso   1.00
C157   C     0.53846   0.86587   0.87798   0.00000  Uiso   1.00
C158   C     0.51380   0.73869   0.86744   0.00000  Uiso   1.00
C159   C     0.63221   0.86339   0.91338   0.00000  Uiso   1.00
C160   C     0.65639   0.93006   0.86052   0.00000  Uiso   1.00
C161   C     0.68566   0.83221   0.84199   0.00000  Uiso   1.00
H162   H     0.61117   0.53283   0.02875   0.00000  Uiso   1.00
H163   H     0.61256   0.65063   0.17043   0.00000  Uiso   1.00
H164   H     0.55219   0.41961   0.97125   0.00000  Uiso   1.00
H165   H     0.67010   0.48378   0.95380   0.00000  Uiso   1.00
H166   H     0.61194   0.85126   0.31288   0.00000  Uiso   1.00
H167   H     0.48465   0.36410   0.89289   0.00000  Uiso   1.00
H168   H     0.73329   0.49943   0.85608   0.00000  Uiso   1.00
H169   H     0.59458   0.07236   0.91598   0.00000  Uiso   1.00
H170   H     0.59506   0.21979   0.05147   0.00000  Uiso   1.00
H171   H     0.53469   0.98875   0.85230   0.00000  Uiso   1.00
H172   H     0.65260   0.05293   0.83485   0.00000  Uiso   1.00
H173   H     0.59774   0.31320   0.21633   0.00000  Uiso   1.00
H174   H     0.47044   0.82604   0.79634   0.00000  Uiso   1.00
H175   H     0.71908   0.96137   0.75953   0.00000  Uiso   1.00
O176   O     0.60545   0.16947   0.35577   0.00000  Uiso   1.00
O177   O     0.43844   0.53032   0.80475   0.00000  Uiso   1.00
O178   O     0.76466   0.70787   0.75647   0.00000  Uiso   1.00
N179   N     0.60854   0.93975   0.27156   0.00000  Uiso   1.00
N180   N     0.48952   0.48430   0.87890   0.00000  Uiso   1.00
N181   N     0.72198   0.61079   0.84448   0.00000  Uiso   1.00
N182   N     0.60090   0.18832   0.21961   0.00000  Uiso   1.00
N183   N     0.48188   0.73286   0.82695   0.00000  Uiso   1.00
N184   N     0.71433   0.85936   0.79253   0.00000  Uiso   1.00
C185   C     0.89263   0.15644   0.00291   0.00000  Uiso   1.00
C186   C     0.89417   0.29527   0.06425   0.00000  Uiso   1.00
C187   C     0.89121   0.27353   0.14477   0.00000  Uiso   1.00
C188   C     0.89331   0.41636   0.19099   0.00000  Uiso   1.00
C189   C     0.89498   0.60776   0.29128   0.00000  Uiso   1.00
C190   C     0.92698   0.16975   0.95604   0.00000  Uiso   1.00
C191   C     0.95160   0.04246   0.94557   0.00000  Uiso   1.00
C192   C     0.98131   0.07963   0.90069   0.00000  Uiso   1.00
C193   C     0.03390   0.07612   0.83294   0.00000  Uiso   1.00
C194   C     0.86291   0.20462   0.94657   0.00000  Uiso   1.00
C195   C     0.83367   0.10664   0.92811   0.00000  Uiso   1.00
C196   C     0.80945   0.17315   0.87523   0.00000  Uiso   1.00
C197   C     0.76256   0.22379   0.79278   0.00000  Uiso   1.00
C198   C     0.90162   0.44875   0.94181   0.00000  Uiso   1.00
C199   C     0.89905   0.45404   0.03107   0.00000  Uiso   1.00
C200   C     0.90116   0.59694   0.07717   0.00000  Uiso   1.00
C201   C     0.89820   0.57542   0.15774   0.00000  Uiso   1.00
C202   C     0.93186   0.32851   0.92286   0.00000  Uiso   1.00
C203   C     0.96154   0.36587   0.87798   0.00000  Uiso   1.00
C204   C     0.98620   0.23869   0.86744   0.00000  Uiso   1.00
C205   C     0.86779   0.36339   0.91338   0.00000  Uiso   1.00
C206   C     0.84361   0.43006   0.86052   0.00000  Uiso   1.00
C207   C     0.81434   0.33221   0.84199   0.00000  Uiso   1.00
H208   H     0.88883   0.03283   0.02875   0.00000  Uiso   1.00
H209   H     0.88744   0.15063   0.17043   0.00000  Uiso   1.00
H210   H     0.94781   0.91961   0.97125   0.00000  Uiso   1.00
H211   H     0.82990   0.98378   0.95380   0.00000  Uiso   1.00
H212   H     0.88806   0.35126   0.31288   0.00000  Uiso   1.00
H213   H     0.01535   0.86410   0.89289   0.00000  Uiso   1.00
H214   H     0.76671   0.99943   0.85608   0.00000  Uiso   1.00
H215   H     0.90542   0.57236   0.91598   0.00000  Uiso   1.00
H216   H     0.90494   0.71979   0.05147   0.00000  Uiso   1.00
H217   H     0.96531   0.48875   0.85230   0.00000  Uiso   1.00
H218   H     0.84740   0.55293   0.83485   0.00000  Uiso   1.00
H219   H     0.90226   0.81320   0.21633   0.00000  Uiso   1.00
H220   H     0.02956   0.32604   0.79634   0.00000  Uiso   1.00
H221   H     0.78092   0.46137   0.75953   0.00000  Uiso   1.00
O222   O     0.89455   0.66947   0.35577   0.00000  Uiso   1.00
O223   O     0.06156   0.03032   0.80475   0.00000  Uiso   1.00
O224   O     0.73534   0.20787   0.75647   0.00000  Uiso   1.00
N225   N     0.89146   0.43975   0.27156   0.00000  Uiso   1.00
N226   N     0.01048   0.98430   0.87890   0.00000  Uiso   1.00
N227   N     0.77802   0.11079   0.84448   0.00000  Uiso   1.00
N228   N     0.89910   0.68832   0.21961   0.00000  Uiso   1.00
N229   N     0.01812   0.23286   0.82695   0.00000  Uiso   1.00
N230   N     0.78567   0.35936   0.79253   0.00000  Uiso   1.00
C231   C     0.60737   0.84356   0.50291   0.00000  Uiso   1.00
C232   C     0.60583   0.70473   0.56425   0.00000  Uiso   1.00
C233   C     0.60879   0.72647   0.64477   0.00000  Uiso   1.00
C234   C     0.60669   0.58364   0.69099   0.00000  Uiso   1.00
C235   C     0.60502   0.39224   0.79128   0.00000  Uiso   1.00
C236   C     0.57302   0.83025   0.45604   0.00000  Uiso   1.00
C237   C     0.54840   0.95754   0.44557   0.00000  Uiso   1.00
C238   C     0.51869   0.92037   0.40069   0.00000  Uiso   1.00
C239   C     0.46610   0.92388   0.33294   0.00000  Uiso   1.00
C240   C     0.63709   0.79538   0.44657   0.00000  Uiso   1.00
C241   C     0.66633   0.89336   0.42811   0.00000  Uiso   1.00
C242   C     0.69055   0.82685   0.37523   0.00000  Uiso   1.00
C243   C     0.73744   0.77621   0.29278   0.00000  Uiso   1.00
C244   C     0.59838   0.55125   0.44181   0.00000  Uiso   1.00
C245   C     0.60095   0.54596   0.53107   0.00000  Uiso   1.00
C246   C     0.59884   0.40306   0.57717   0.00000  Uiso   1.00
C247   C     0.60180   0.42458   0.65774   0.00000  Uiso   1.00
C248   C     0.56814   0.67149   0.42286   0.00000  Uiso   1.00
C249   C     0.53846   0.63413   0.37798   0.00000  Uiso   1.00
C250   C     0.51380   0.76131   0.36744   0.00000  Uiso   1.00
C251   C     0.63221   0.63661   0.41338   0.00000  Uiso   1.00
C252   C     0.65639   0.56994   0.36052   0.00000  Uiso   1.00
C253   C     0.68566   0.66779   0.34199   0.00000  Uiso   1.00
H254   H     0.61117   0.96717   0.52875   0.00000  Uiso   1.00
H255   H     0.61256   0.84937   0.67043   0.00000  Uiso   1.00
H256   H     0.55219   0.08039   0.47125   0.00000  Uiso   1.00
H257   H     0.67010   0.01622   0.45380   0.00000  Uiso   1.00
H258   H     0.61194   0.64874   0.81288   0.00000  Uiso   1.00
H259   H     0.48465   0.13590   0.39289   0.00000  Uiso   1.00
H260   H     0.73329   0.00057   0.35608   0.00000  Uiso   1.00
H261   H     0.59458   0.42764   0.41598   0.00000  Uiso   1.00
H262   H     0.59506   0.28021   0.55147   0.00000  Uiso   1.00
H263   H     0.53469   0.51125   0.35230   0.00000  Uiso   1.00
H264   H     0.65260   0.44707   0.33485   0.00000  Uiso   1.00
H265   H     0.59774   0.18680   0.71633   0.00000  Uiso   1.00
H266   H     0.47044   0.67396   0.29634   0.00000  Uiso   1.00
H267   H     0.71908   0.53863   0.25953   0.00000  Uiso   1.00
O268   O     0.60545   0.33053   0.85577   0.00000  Uiso   1.00
O269   O     0.43844   0.96968   0.30475   0.00000  Uiso   1.00
O270   O     0.76466   0.79213   0.25647   0.00000  Uiso   1.00
N271   N     0.60854   0.56025   0.77156   0.00000  Uiso   1.00
N272   N     0.48952   0.01570   0.37890   0.00000  Uiso   1.00
N273   N     0.72198   0.88921   0.34448   0.00000  Uiso   1.00
N274   N     0.60090   0.31168   0.71961   0.00000  Uiso   1.00
N275   N     0.48188   0.76714   0.32695   0.00000  Uiso   1.00
N276   N     0.71433   0.64064   0.29253   0.00000  Uiso   1.00
C277   C     0.10737   0.65644   0.49709   0.00000  Uiso   1.00
C278   C     0.10583   0.79527   0.43575   0.00000  Uiso   1.00
C279   C     0.10879   0.77353   0.35523   0.00000  Uiso   1.00
C280   C     0.10669   0.91636   0.30901   0.00000  Uiso   1.00
C281   C     0.10502   0.10776   0.20872   0.00000  Uiso   1.00
C282   C     0.07302   0.66975   0.54396   0.00000  Uiso   1.00
C283   C     0.04840   0.54246   0.55443   0.00000  Uiso   1.00
C284   C     0.01869   0.57963   0.59931   0.00000  Uiso   1.00
C285   C     0.96610   0.57612   0.66706   0.00000  Uiso   1.00
C286   C     0.13709   0.70462   0.55343   0.00000  Uiso   1.00
C287   C     0.16633   0.60664   0.57189   0.00000  Uiso   1.00
C288   C     0.19055   0.67315   0.62477   0.00000  Uiso   1.00
C289   C     0.23744   0.72379   0.70722   0.00000  Uiso   1.00
C290   C     0.09838   0.94875   0.55819   0.00000  Uiso   1.00
C291   C     0.10095   0.95404   0.46893   0.00000  Uiso   1.00
C292   C     0.09884   0.09694   0.42283   0.00000  Uiso   1.00
C293   C     0.10180   0.07542   0.34226   0.00000  Uiso   1.00
C294   C     0.06814   0.82851   0.57714   0.00000  Uiso   1.00
C295   C     0.03846   0.86587   0.62202   0.00000  Uiso   1.00
C296   C     0.01380   0.73869   0.63256   0.00000  Uiso   1.00
C297   C     0.13221   0.86339   0.58662   0.00000  Uiso   1.00
C298   C     0.15639   0.93006   0.63948   0.00000  Uiso   1.00
C299   C     0.18566   0.83221   0.65801   0.00000  Uiso   1.00
H300   H     0.11117   0.53283   0.47125   0.00000  Uiso   1.00
H301   H     0.11256   0.65063   0.32957   0.00000  Uiso   1.00
H302   H     0.05219   0.41961   0.52875   0.00000  Uiso   1.00
H303   H     0.17010   0.48378   0.54620   0.00000  Uiso   1.00
H304   H     0.11194   0.85126   0.18712   0.00000  Uiso   1.00
H305   H     0.98465   0.36410   0.60711   0.00000  Uiso   1.00
H306   H     0.23329   0.49943   0.64392   0.00000  Uiso   1.00
H307   H     0.09458   0.07236   0.58402   0.00000  Uiso   1.00
H308   H     0.09506   0.21979   0.44853   0.00000  Uiso   1.00
H309   H     0.03469   0.98875   0.64770   0.00000  Uiso   1.00
H310   H     0.15260   0.05293   0.66515   0.00000  Uiso   1.00
H311   H     0.09774   0.31320   0.28367   0.00000  Uiso   1.00
H312   H     0.97044   0.82604   0.70366   0.00000  Uiso   1.00
H313   H     0.21908   0.96137   0.74047   0.00000  Uiso   1.00
O314   O     0.10545   0.16947   0.14423   0.00000  Uiso   1.00
O315   O     0.93844   0.53032   0.69525   0.00000  Uiso   1.00
O316   O     0.26466   0.70787   0.74353   0.00000  Uiso   1.00
N317   N     0.10854   0.93975   0.22844   0.00000  Uiso   1.00
N318   N     0.98952   0.48430   0.62110   0.00000  Uiso   1.00
N319   N     0.22198   0.61079   0.65552   0.00000  Uiso   1.00
N320   N     0.10090   0.18832   0.28039   0.00000  Uiso   1.00
N321   N     0.98188   0.73286   0.67305   0.00000  Uiso   1.00
N322   N     0.21433   0.85936   0.70747   0.00000  Uiso   1.00
C323   C     0.39263   0.34356   0.99709   0.00000  Uiso   1.00
C324   C     0.39417   0.20473   0.93575   0.00000  Uiso   1.00
C325   C     0.39121   0.22647   0.85523   0.00000  Uiso   1.00
C326   C     0.39331   0.08364   0.80901   0.00000  Uiso   1.00
C327   C     0.39498   0.89224   0.70872   0.00000  Uiso   1.00
C328   C     0.42698   0.33025   0.04396   0.00000  Uiso   1.00
C329   C     0.45160   0.45754   0.05443   0.00000  Uiso   1.00
C330   C     0.48131   0.42037   0.09931   0.00000  Uiso   1.00
C331   C     0.53390   0.42388   0.16706   0.00000  Uiso   1.00
C332   C     0.36291   0.29538   0.05343   0.00000  Uiso   1.00
C333   C     0.33367   0.39336   0.07189   0.00000  Uiso   1.00
C334   C     0.30945   0.32685   0.12477   0.00000  Uiso   1.00
C335   C     0.26256   0.27621   0.20722   0.00000  Uiso   1.00
C336   C     0.40162   0.05125   0.05819   0.00000  Uiso   1.00
C337   C     0.39905   0.04596   0.96893   0.00000  Uiso   1.00
C338   C     0.40116   0.90306   0.92283   0.00000  Uiso   1.00
C339   C     0.39820   0.92458   0.84226   0.00000  Uiso   1.00
C340   C     0.43186   0.17149   0.07714   0.00000  Uiso   1.00
C341   C     0.46154   0.13413   0.12202   0.00000  Uiso   1.00
C342   C     0.48620   0.26131   0.13256   0.00000  Uiso   1.00
C343   C     0.36779   0.13661   0.08662   0.00000  Uiso   1.00
C344   C     0.34361   0.06994   0.13948   0.00000  Uiso   1.00
C345   C     0.31434   0.16779   0.15801   0.00000  Uiso   1.00
H346   H     0.38883   0.46717   0.97125   0.00000  Uiso   1.00
H347   H     0.38744   0.34937   0.82957   0.00000  Uiso   1.00
H348   H     0.44781   0.58039   0.02875   0.00000  Uiso   1.00
H349   H     0.32990   0.51622   0.04620   0.00000  Uiso   1.00
H350   H     0.38806   0.14874   0.68712   0.00000  Uiso   1.00
H351   H     0.51535   0.63590   0.10711   0.00000  Uiso   1.00
H352   H     0.26671   0.50057   0.14392   0.00000  Uiso   1.00
H353   H     0.40542   0.92764   0.08402   0.00000  Uiso   1.00
H354   H     0.40494   0.78021   0.94853   0.00000  Uiso   1.00
H355   H     0.46531   0.01125   0.14770   0.00000  Uiso   1.00
H356   H     0.34740   0.94707   0.16515   0.00000  Uiso   1.00
H357   H     0.40226   0.68680   0.78367   0.00000  Uiso   1.00
H358   H     0.52956   0.17396   0.20366   0.00000  Uiso   1.00
H359   H     0.28092   0.03863   0.24047   0.00000  Uiso   1.00
O360   O     0.39455   0.83053   0.64423   0.00000  Uiso   1.00
O361   O     0.56156   0.46968   0.19525   0.00000  Uiso   1.00
O362   O     0.23534   0.29213   0.24353   0.00000  Uiso   1.00
N363   N     0.39146   0.06025   0.72844   0.00000  Uiso   1.00
N364   N     0.51048   0.51570   0.12110   0.00000  Uiso   1.00
N365   N     0.27802   0.38921   0.15552   0.00000  Uiso   1.00
N366   N     0.39910   0.81168   0.78039   0.00000  Uiso   1.00
N367   N     0.51812   0.26714   0.17305   0.00000  Uiso   1.00
N368   N     0.28567   0.14064   0.20747   0.00000  Uiso   1.00
