data_job_04729
_audit_creation_date              2018-12-19
_audit_creation_method            'Materials Studio'
_symmetry_space_group_name_H-M    'P1'
_symmetry_Int_Tables_number       1
_symmetry_cell_setting            triclinic
loop_
_symmetry_equiv_pos_as_xyz
  x,y,z
_cell_length_a                    13.0798
_cell_length_b                    13.0798
_cell_length_c                    20.9974
_cell_angle_alpha                 90.0000
_cell_angle_beta                  90.0000
_cell_angle_gamma                 120.0000
loop_
_atom_site_label
_atom_site_type_symbol
_atom_site_fract_x
_atom_site_fract_y
_atom_site_fract_z
_atom_site_U_iso_or_equiv
_atom_site_adp_type
_atom_site_occupancy
C1     C     0.34652   0.73839   0.63075   0.00000  Uiso   1.00
C2     C     0.24962   0.62248   0.65860   0.00000  Uiso   1.00
C3     C     0.22914   0.51066   0.64303   0.00000  Uiso   1.00
C4     C     0.13612   0.41576   0.67377   0.00000  Uiso   1.00
C5     C     0.99627   0.23326   0.71019   0.00000  Uiso   1.00
C6     C     0.28414   0.80018   0.60269   0.00000  Uiso   1.00
C7     C     0.29269   0.83779   0.54011   0.00000  Uiso   1.00
C8     C     0.22874   0.89250   0.52379   0.00000  Uiso   1.00
C9     C     0.14255   0.98597   0.47342   0.00000  Uiso   1.00
C10    C     0.41754   0.81329   0.68735   0.00000  Uiso   1.00
C11    C     0.53826   0.86196   0.69596   0.00000  Uiso   1.00
C12    C     0.58662   0.92773   0.75092   0.00000  Uiso   1.00
C13    C     0.70755   0.04155   0.83200   0.00000  Uiso   1.00
C14    C     0.21775   0.76870   0.71305   0.00000  Uiso   1.00
C15    C     0.17968   0.63894   0.70330   0.00000  Uiso   1.00
C16    C     0.08667   0.54419   0.73408   0.00000  Uiso   1.00
C17    C     0.06606   0.43225   0.71856   0.00000  Uiso   1.00
C18    C     0.21420   0.81664   0.64738   0.00000  Uiso   1.00
C19    C     0.15022   0.87132   0.63116   0.00000  Uiso   1.00
C20    C     0.15867   0.90899   0.56857   0.00000  Uiso   1.00
C21    C     0.34759   0.82975   0.73206   0.00000  Uiso   1.00
C22    C     0.39578   0.89547   0.78701   0.00000  Uiso   1.00
C23    C     0.51655   0.94422   0.79570   0.00000  Uiso   1.00
H24    H     0.40097   0.72559   0.59595   0.00000  Uiso   1.00
H25    H     0.28328   0.49796   0.60843   0.00000  Uiso   1.00
H26    H     0.34684   0.82505   0.50553   0.00000  Uiso   1.00
H27    H     0.59236   0.84920   0.66135   0.00000  Uiso   1.00
H28    H     0.12193   0.25285   0.64196   0.00000  Uiso   1.00
H29    H     0.25597   0.94257   0.42499   0.00000  Uiso   1.00
H30    H     0.77370   0.99350   0.75359   0.00000  Uiso   1.00
H31    H     0.16329   0.78152   0.74785   0.00000  Uiso   1.00
H32    H     0.03256   0.55695   0.76867   0.00000  Uiso   1.00
H33    H     0.09611   0.88404   0.66576   0.00000  Uiso   1.00
H34    H     0.34163   0.90819   0.82159   0.00000  Uiso   1.00
H35    H     0.91843   0.30073   0.77201   0.00000  Uiso   1.00
H36    H     0.05247   0.99046   0.55505   0.00000  Uiso   1.00
H37    H     0.57020   0.04138   0.88364   0.00000  Uiso   1.00
O38    O     0.93845   0.12805   0.71793   0.00000  Uiso   1.00
O39    O     0.11432   0.03296   0.43328   0.00000  Uiso   1.00
O40    O     0.79357   0.09977   0.86439   0.00000  Uiso   1.00
N41    N     0.09200   0.29494   0.66972   0.00000  Uiso   1.00
N42    N     0.21729   0.93977   0.46687   0.00000  Uiso   1.00
N43    N     0.70134   0.98741   0.77407   0.00000  Uiso   1.00
N44    N     0.98249   0.32070   0.73970   0.00000  Uiso   1.00
N45    N     0.10779   0.96554   0.53685   0.00000  Uiso   1.00
N46    N     0.59184   0.01318   0.84405   0.00000  Uiso   1.00
C47    C     0.26161   0.60812   0.29742   0.00000  Uiso   1.00
C48    C     0.37752   0.62715   0.32527   0.00000  Uiso   1.00
C49    C     0.48934   0.71848   0.30969   0.00000  Uiso   1.00
C50    C     0.58424   0.72036   0.34044   0.00000  Uiso   1.00
C51    C     0.76674   0.76301   0.37686   0.00000  Uiso   1.00
C52    C     0.19982   0.48396   0.26935   0.00000  Uiso   1.00
C53    C     0.16221   0.45490   0.20677   0.00000  Uiso   1.00
C54    C     0.10750   0.33624   0.19046   0.00000  Uiso   1.00
C55    C     0.01403   0.15658   0.14008   0.00000  Uiso   1.00
C56    C     0.18671   0.60424   0.35402   0.00000  Uiso   1.00
C57    C     0.13804   0.67630   0.36262   0.00000  Uiso   1.00
C58    C     0.07227   0.65890   0.41758   0.00000  Uiso   1.00
C59    C     0.95845   0.66600   0.49867   0.00000  Uiso   1.00
C60    C     0.23130   0.44905   0.37971   0.00000  Uiso   1.00
C61    C     0.36106   0.54074   0.36996   0.00000  Uiso   1.00
C62    C     0.45581   0.54249   0.40075   0.00000  Uiso   1.00
C63    C     0.56775   0.63381   0.38522   0.00000  Uiso   1.00
C64    C     0.18336   0.39756   0.31405   0.00000  Uiso   1.00
C65    C     0.12868   0.27891   0.29782   0.00000  Uiso   1.00
C66    C     0.09101   0.24968   0.23523   0.00000  Uiso   1.00
C67    C     0.17025   0.51784   0.39872   0.00000  Uiso   1.00
C68    C     0.10453   0.50031   0.45368   0.00000  Uiso   1.00
C69    C     0.05578   0.57234   0.46236   0.00000  Uiso   1.00
H70    H     0.27441   0.67538   0.26261   0.00000  Uiso   1.00
H71    H     0.50204   0.78533   0.27509   0.00000  Uiso   1.00
H72    H     0.17495   0.52178   0.17219   0.00000  Uiso   1.00
H73    H     0.15080   0.74316   0.32802   0.00000  Uiso   1.00
H74    H     0.74715   0.86909   0.30863   0.00000  Uiso   1.00
H75    H     0.05743   0.31339   0.09166   0.00000  Uiso   1.00
H76    H     0.00650   0.78020   0.42025   0.00000  Uiso   1.00
H77    H     0.21848   0.38178   0.41451   0.00000  Uiso   1.00
H78    H     0.44305   0.47561   0.43533   0.00000  Uiso   1.00
H79    H     0.11596   0.21207   0.33243   0.00000  Uiso   1.00
H80    H     0.09181   0.43344   0.48826   0.00000  Uiso   1.00
H81    H     0.69927   0.61771   0.43868   0.00000  Uiso   1.00
H82    H     0.00954   0.06201   0.22171   0.00000  Uiso   1.00
H83    H     0.95862   0.52882   0.55031   0.00000  Uiso   1.00
O84    O     0.87195   0.81040   0.38459   0.00000  Uiso   1.00
O85    O     0.96704   0.08135   0.09994   0.00000  Uiso   1.00
O86    O     0.90023   0.69379   0.53105   0.00000  Uiso   1.00
N87    N     0.70506   0.79706   0.33639   0.00000  Uiso   1.00
N88    N     0.06023   0.27752   0.13353   0.00000  Uiso   1.00
N89    N     0.01259   0.71393   0.44073   0.00000  Uiso   1.00
N90    N     0.67930   0.66180   0.40637   0.00000  Uiso   1.00
N91    N     0.03446   0.14226   0.20351   0.00000  Uiso   1.00
N92    N     0.98682   0.57866   0.51071   0.00000  Uiso   1.00
C93    C     0.39188   0.65348   0.96408   0.00000  Uiso   1.00
C94    C     0.37285   0.75038   0.99193   0.00000  Uiso   1.00
C95    C     0.28152   0.77086   0.97636   0.00000  Uiso   1.00
C96    C     0.27964   0.86388   0.00711   0.00000  Uiso   1.00
C97    C     0.23699   0.00373   0.04353   0.00000  Uiso   1.00
C98    C     0.51604   0.71586   0.93602   0.00000  Uiso   1.00
C99    C     0.54510   0.70731   0.87344   0.00000  Uiso   1.00
C100   C     0.66376   0.77126   0.85712   0.00000  Uiso   1.00
C101   C     0.84342   0.85745   0.80675   0.00000  Uiso   1.00
C102   C     0.39576   0.58246   0.02069   0.00000  Uiso   1.00
C103   C     0.32370   0.46174   0.02929   0.00000  Uiso   1.00
C104   C     0.34110   0.41338   0.08425   0.00000  Uiso   1.00
C105   C     0.33400   0.29245   0.16534   0.00000  Uiso   1.00
C106   C     0.55095   0.78225   0.04638   0.00000  Uiso   1.00
C107   C     0.45926   0.82032   0.03663   0.00000  Uiso   1.00
C108   C     0.45751   0.91333   0.06741   0.00000  Uiso   1.00
C109   C     0.36619   0.93394   0.05189   0.00000  Uiso   1.00
C110   C     0.60244   0.78580   0.98072   0.00000  Uiso   1.00
C111   C     0.72109   0.84978   0.96449   0.00000  Uiso   1.00
C112   C     0.75032   0.84133   0.90190   0.00000  Uiso   1.00
C113   C     0.48216   0.65241   0.06539   0.00000  Uiso   1.00
C114   C     0.49969   0.60422   0.12034   0.00000  Uiso   1.00
C115   C     0.42766   0.48345   0.12903   0.00000  Uiso   1.00
H116   H     0.32462   0.59903   0.92928   0.00000  Uiso   1.00
H117   H     0.21467   0.71672   0.94176   0.00000  Uiso   1.00
H118   H     0.47822   0.65316   0.83886   0.00000  Uiso   1.00
H119   H     0.25684   0.40764   0.99469   0.00000  Uiso   1.00
H120   H     0.13091   0.87807   0.97529   0.00000  Uiso   1.00
H121   H     0.68661   0.74403   0.75833   0.00000  Uiso   1.00
H122   H     0.21980   0.22630   0.08692   0.00000  Uiso   1.00
H123   H     0.61822   0.83671   0.08118   0.00000  Uiso   1.00
H124   H     0.52439   0.96744   0.10200   0.00000  Uiso   1.00
H125   H     0.78793   0.90389   0.99910   0.00000  Uiso   1.00
H126   H     0.56656   0.65837   0.15492   0.00000  Uiso   1.00
H127   H     0.38229   0.08157   0.10535   0.00000  Uiso   1.00
H128   H     0.93799   0.94753   0.88838   0.00000  Uiso   1.00
H129   H     0.47118   0.42980   0.21698   0.00000  Uiso   1.00
O130   O     0.18960   0.06155   0.05126   0.00000  Uiso   1.00
O131   O     0.91865   0.88568   0.76661   0.00000  Uiso   1.00
O132   O     0.30621   0.20643   0.19772   0.00000  Uiso   1.00
N133   N     0.20294   0.90800   0.00305   0.00000  Uiso   1.00
N134   N     0.72248   0.78271   0.80020   0.00000  Uiso   1.00
N135   N     0.28607   0.29866   0.10740   0.00000  Uiso   1.00
N136   N     0.33820   0.01751   0.07304   0.00000  Uiso   1.00
N137   N     0.85774   0.89221   0.87018   0.00000  Uiso   1.00
N138   N     0.42134   0.40816   0.17738   0.00000  Uiso   1.00
C139   C     0.73839   0.34652   0.36925   0.00000  Uiso   1.00
C140   C     0.62248   0.24962   0.34140   0.00000  Uiso   1.00
C141   C     0.51066   0.22914   0.35697   0.00000  Uiso   1.00
C142   C     0.41576   0.13612   0.32623   0.00000  Uiso   1.00
C143   C     0.23326   0.99627   0.28981   0.00000  Uiso   1.00
C144   C     0.80018   0.28414   0.39731   0.00000  Uiso   1.00
C145   C     0.83779   0.29269   0.45989   0.00000  Uiso   1.00
C146   C     0.89250   0.22874   0.47621   0.00000  Uiso   1.00
C147   C     0.98597   0.14255   0.52658   0.00000  Uiso   1.00
C148   C     0.81329   0.41754   0.31265   0.00000  Uiso   1.00
C149   C     0.86196   0.53826   0.30404   0.00000  Uiso   1.00
C150   C     0.92773   0.58662   0.24908   0.00000  Uiso   1.00
C151   C     0.04155   0.70755   0.16800   0.00000  Uiso   1.00
C152   C     0.76870   0.21775   0.28695   0.00000  Uiso   1.00
C153   C     0.63894   0.17968   0.29670   0.00000  Uiso   1.00
C154   C     0.54419   0.08667   0.26592   0.00000  Uiso   1.00
C155   C     0.43225   0.06606   0.28144   0.00000  Uiso   1.00
C156   C     0.81664   0.21420   0.35262   0.00000  Uiso   1.00
C157   C     0.87132   0.15022   0.36884   0.00000  Uiso   1.00
C158   C     0.90899   0.15867   0.43143   0.00000  Uiso   1.00
C159   C     0.82975   0.34759   0.26794   0.00000  Uiso   1.00
C160   C     0.89547   0.39578   0.21299   0.00000  Uiso   1.00
C161   C     0.94422   0.51655   0.20430   0.00000  Uiso   1.00
H162   H     0.72559   0.40097   0.40405   0.00000  Uiso   1.00
H163   H     0.49796   0.28328   0.39157   0.00000  Uiso   1.00
H164   H     0.82505   0.34684   0.49447   0.00000  Uiso   1.00
H165   H     0.84920   0.59236   0.33865   0.00000  Uiso   1.00
H166   H     0.25285   0.12193   0.35804   0.00000  Uiso   1.00
H167   H     0.94257   0.25597   0.57501   0.00000  Uiso   1.00
H168   H     0.99350   0.77370   0.24641   0.00000  Uiso   1.00
H169   H     0.78152   0.16329   0.25215   0.00000  Uiso   1.00
H170   H     0.55695   0.03256   0.23133   0.00000  Uiso   1.00
H171   H     0.88404   0.09611   0.33424   0.00000  Uiso   1.00
H172   H     0.90819   0.34163   0.17841   0.00000  Uiso   1.00
H173   H     0.30073   0.91843   0.22799   0.00000  Uiso   1.00
H174   H     0.99046   0.05247   0.44495   0.00000  Uiso   1.00
H175   H     0.04138   0.57020   0.11636   0.00000  Uiso   1.00
O176   O     0.12805   0.93845   0.28207   0.00000  Uiso   1.00
O177   O     0.03296   0.11432   0.56672   0.00000  Uiso   1.00
O178   O     0.09977   0.79357   0.13561   0.00000  Uiso   1.00
N179   N     0.29494   0.09200   0.33028   0.00000  Uiso   1.00
N180   N     0.93977   0.21729   0.53313   0.00000  Uiso   1.00
N181   N     0.98741   0.70134   0.22593   0.00000  Uiso   1.00
N182   N     0.32070   0.98249   0.26030   0.00000  Uiso   1.00
N183   N     0.96554   0.10779   0.46315   0.00000  Uiso   1.00
N184   N     0.01318   0.59184   0.15595   0.00000  Uiso   1.00
C185   C     0.60812   0.26161   0.70258   0.00000  Uiso   1.00
C186   C     0.62715   0.37752   0.67473   0.00000  Uiso   1.00
C187   C     0.71848   0.48934   0.69031   0.00000  Uiso   1.00
C188   C     0.72036   0.58424   0.65956   0.00000  Uiso   1.00
C189   C     0.76301   0.76674   0.62314   0.00000  Uiso   1.00
C190   C     0.48396   0.19982   0.73065   0.00000  Uiso   1.00
C191   C     0.45490   0.16221   0.79323   0.00000  Uiso   1.00
C192   C     0.33624   0.10750   0.80954   0.00000  Uiso   1.00
C193   C     0.15658   0.01403   0.85992   0.00000  Uiso   1.00
C194   C     0.60424   0.18671   0.64598   0.00000  Uiso   1.00
C195   C     0.67630   0.13804   0.63738   0.00000  Uiso   1.00
C196   C     0.65890   0.07227   0.58242   0.00000  Uiso   1.00
C197   C     0.66600   0.95845   0.50133   0.00000  Uiso   1.00
C198   C     0.44905   0.23130   0.62029   0.00000  Uiso   1.00
C199   C     0.54074   0.36106   0.63004   0.00000  Uiso   1.00
C200   C     0.54249   0.45581   0.59925   0.00000  Uiso   1.00
C201   C     0.63381   0.56775   0.61478   0.00000  Uiso   1.00
C202   C     0.39756   0.18336   0.68595   0.00000  Uiso   1.00
C203   C     0.27891   0.12868   0.70218   0.00000  Uiso   1.00
C204   C     0.24968   0.09101   0.76477   0.00000  Uiso   1.00
C205   C     0.51784   0.17025   0.60128   0.00000  Uiso   1.00
C206   C     0.50031   0.10453   0.54632   0.00000  Uiso   1.00
C207   C     0.57234   0.05578   0.53764   0.00000  Uiso   1.00
H208   H     0.67538   0.27441   0.73739   0.00000  Uiso   1.00
H209   H     0.78533   0.50204   0.72491   0.00000  Uiso   1.00
H210   H     0.52178   0.17495   0.82781   0.00000  Uiso   1.00
H211   H     0.74316   0.15080   0.67198   0.00000  Uiso   1.00
H212   H     0.86909   0.74715   0.69137   0.00000  Uiso   1.00
H213   H     0.31339   0.05743   0.90834   0.00000  Uiso   1.00
H214   H     0.78020   0.00650   0.57975   0.00000  Uiso   1.00
H215   H     0.38178   0.21848   0.58549   0.00000  Uiso   1.00
H216   H     0.47561   0.44305   0.56467   0.00000  Uiso   1.00
H217   H     0.21207   0.11596   0.66757   0.00000  Uiso   1.00
H218   H     0.43344   0.09181   0.51174   0.00000  Uiso   1.00
H219   H     0.61771   0.69927   0.56132   0.00000  Uiso   1.00
H220   H     0.06201   0.00954   0.77829   0.00000  Uiso   1.00
H221   H     0.52882   0.95862   0.44969   0.00000  Uiso   1.00
O222   O     0.81040   0.87195   0.61541   0.00000  Uiso   1.00
O223   O     0.08135   0.96704   0.90006   0.00000  Uiso   1.00
O224   O     0.69379   0.90023   0.46895   0.00000  Uiso   1.00
N225   N     0.79706   0.70506   0.66361   0.00000  Uiso   1.00
N226   N     0.27752   0.06023   0.86647   0.00000  Uiso   1.00
N227   N     0.71393   0.01259   0.55927   0.00000  Uiso   1.00
N228   N     0.66180   0.67930   0.59363   0.00000  Uiso   1.00
N229   N     0.14226   0.03446   0.79649   0.00000  Uiso   1.00
N230   N     0.57866   0.98682   0.48929   0.00000  Uiso   1.00
C231   C     0.65348   0.39188   0.03592   0.00000  Uiso   1.00
C232   C     0.75038   0.37285   0.00807   0.00000  Uiso   1.00
C233   C     0.77086   0.28152   0.02364   0.00000  Uiso   1.00
C234   C     0.86388   0.27964   0.99289   0.00000  Uiso   1.00
C235   C     0.00373   0.23699   0.95647   0.00000  Uiso   1.00
C236   C     0.71586   0.51604   0.06398   0.00000  Uiso   1.00
C237   C     0.70731   0.54510   0.12656   0.00000  Uiso   1.00
C238   C     0.77126   0.66376   0.14288   0.00000  Uiso   1.00
C239   C     0.85745   0.84342   0.19325   0.00000  Uiso   1.00
C240   C     0.58246   0.39576   0.97931   0.00000  Uiso   1.00
C241   C     0.46174   0.32370   0.97071   0.00000  Uiso   1.00
C242   C     0.41338   0.34110   0.91575   0.00000  Uiso   1.00
C243   C     0.29245   0.33400   0.83466   0.00000  Uiso   1.00
C244   C     0.78225   0.55095   0.95362   0.00000  Uiso   1.00
C245   C     0.82032   0.45926   0.96337   0.00000  Uiso   1.00
C246   C     0.91333   0.45751   0.93259   0.00000  Uiso   1.00
C247   C     0.93394   0.36619   0.94811   0.00000  Uiso   1.00
C248   C     0.78580   0.60244   0.01928   0.00000  Uiso   1.00
C249   C     0.84978   0.72109   0.03551   0.00000  Uiso   1.00
C250   C     0.84133   0.75032   0.09810   0.00000  Uiso   1.00
C251   C     0.65241   0.48216   0.93461   0.00000  Uiso   1.00
C252   C     0.60422   0.49969   0.87966   0.00000  Uiso   1.00
C253   C     0.48345   0.42766   0.87097   0.00000  Uiso   1.00
H254   H     0.59903   0.32462   0.07072   0.00000  Uiso   1.00
H255   H     0.71672   0.21467   0.05824   0.00000  Uiso   1.00
H256   H     0.65316   0.47822   0.16114   0.00000  Uiso   1.00
H257   H     0.40764   0.25684   0.00531   0.00000  Uiso   1.00
H258   H     0.87807   0.13091   0.02471   0.00000  Uiso   1.00
H259   H     0.74403   0.68661   0.24167   0.00000  Uiso   1.00
H260   H     0.22630   0.21980   0.91308   0.00000  Uiso   1.00
H261   H     0.83671   0.61822   0.91882   0.00000  Uiso   1.00
H262   H     0.96744   0.52439   0.89800   0.00000  Uiso   1.00
H263   H     0.90389   0.78793   0.00090   0.00000  Uiso   1.00
H264   H     0.65837   0.56656   0.84508   0.00000  Uiso   1.00
H265   H     0.08157   0.38229   0.89465   0.00000  Uiso   1.00
H266   H     0.94753   0.93799   0.11162   0.00000  Uiso   1.00
H267   H     0.42980   0.47118   0.78302   0.00000  Uiso   1.00
O268   O     0.06155   0.18960   0.94874   0.00000  Uiso   1.00
O269   O     0.88568   0.91865   0.23339   0.00000  Uiso   1.00
O270   O     0.20643   0.30621   0.80228   0.00000  Uiso   1.00
N271   N     0.90800   0.20294   0.99695   0.00000  Uiso   1.00
N272   N     0.78271   0.72248   0.19980   0.00000  Uiso   1.00
N273   N     0.29866   0.28607   0.89260   0.00000  Uiso   1.00
N274   N     0.01751   0.33820   0.92696   0.00000  Uiso   1.00
N275   N     0.89221   0.85774   0.12982   0.00000  Uiso   1.00
N276   N     0.40816   0.42134   0.82262   0.00000  Uiso   1.00
