data_job_05658
_audit_creation_date              2018-12-19
_audit_creation_method            'Materials Studio'
_symmetry_space_group_name_H-M    'P1'
_symmetry_Int_Tables_number       1
_symmetry_cell_setting            triclinic
loop_
_symmetry_equiv_pos_as_xyz
  x,y,z
_cell_length_a                    12.5484
_cell_length_b                    12.5484
_cell_length_c                    13.5418
_cell_angle_alpha                 90.0000
_cell_angle_beta                  90.0000
_cell_angle_gamma                 120.0000
loop_
_atom_site_label
_atom_site_type_symbol
_atom_site_fract_x
_atom_site_fract_y
_atom_site_fract_z
_atom_site_U_iso_or_equiv
_atom_site_adp_type
_atom_site_occupancy
C1     C     0.13694   0.17800   0.62334   0.00000  Uiso   1.00
C2     C     0.10728   0.26825   0.57204   0.00000  Uiso   1.00
C3     C     0.00351   0.27837   0.58836   0.00000  Uiso   1.00
C4     C     0.99330   0.36666   0.53401   0.00000  Uiso   1.00
C5     C     0.93346   0.49529   0.46468   0.00000  Uiso   1.00
C6     C     0.15447   0.10498   0.54125   0.00000  Uiso   1.00
C7     C     0.09039   0.97783   0.53170   0.00000  Uiso   1.00
C8     C     0.11993   0.92868   0.45143   0.00000  Uiso   1.00
C9     C     0.13342   0.80382   0.33435   0.00000  Uiso   1.00
C10    C     0.26310   0.25588   0.67069   0.00000  Uiso   1.00
C11    C     0.29037   0.25558   0.76998   0.00000  Uiso   1.00
C12    C     0.41137   0.33346   0.79869   0.00000  Uiso   1.00
C13    C     0.59353   0.44289   0.88258   0.00000  Uiso   1.00
C14    C     0.30334   0.31680   0.49778   0.00000  Uiso   1.00
C15    C     0.19766   0.34364   0.50384   0.00000  Uiso   1.00
C16    C     0.18761   0.43194   0.44944   0.00000  Uiso   1.00
C17    C     0.08385   0.44220   0.46569   0.00000  Uiso   1.00
C18    C     0.24485   0.18036   0.47305   0.00000  Uiso   1.00
C19    C     0.27449   0.13139   0.39278   0.00000  Uiso   1.00
C20    C     0.21047   0.00420   0.38311   0.00000  Uiso   1.00
C21    C     0.35348   0.33127   0.60249   0.00000  Uiso   1.00
C22    C     0.47447   0.40916   0.63106   0.00000  Uiso   1.00
C23    C     0.50192   0.40899   0.73037   0.00000  Uiso   1.00
H24    H     0.06658   0.11930   0.67643   0.00000  Uiso   1.00
H25    H     0.93358   0.22000   0.64114   0.00000  Uiso   1.00
H26    H     0.02047   0.91951   0.58449   0.00000  Uiso   1.00
H27    H     0.22041   0.19723   0.82273   0.00000  Uiso   1.00
H28    H     0.82597   0.36487   0.57190   0.00000  Uiso   1.00
H29    H     0.00920   0.73126   0.45248   0.00000  Uiso   1.00
H30    H     0.43081   0.31688   0.95485   0.00000  Uiso   1.00
H31    H     0.37370   0.37550   0.44469   0.00000  Uiso   1.00
H32    H     0.25756   0.49027   0.39667   0.00000  Uiso   1.00
H33    H     0.34444   0.18976   0.34003   0.00000  Uiso   1.00
H34    H     0.54438   0.46748   0.57826   0.00000  Uiso   1.00
H35    H     0.08892   0.58423   0.37348   0.00000  Uiso   1.00
H36    H     0.27215   0.95060   0.25406   0.00000  Uiso   1.00
H37    H     0.69376   0.53623   0.75643   0.00000  Uiso   1.00
O38    O     0.87548   0.54540   0.44527   0.00000  Uiso   1.00
O39    O     0.11588   0.71412   0.28860   0.00000  Uiso   1.00
O40    O     0.66903   0.48244   0.94770   0.00000  Uiso   1.00
N41    N     0.90380   0.40076   0.53181   0.00000  Uiso   1.00
N42    N     0.07510   0.80837   0.42015   0.00000  Uiso   1.00
N43    N     0.46928   0.35585   0.88982   0.00000  Uiso   1.00
N44    N     0.04530   0.51880   0.42504   0.00000  Uiso   1.00
N45    N     0.21659   0.92640   0.31338   0.00000  Uiso   1.00
N46    N     0.61077   0.47389   0.78305   0.00000  Uiso   1.00
C47    C     0.82200   0.95894   0.29001   0.00000  Uiso   1.00
C48    C     0.73175   0.83903   0.23870   0.00000  Uiso   1.00
C49    C     0.72163   0.72514   0.25503   0.00000  Uiso   1.00
C50    C     0.63334   0.62664   0.20067   0.00000  Uiso   1.00
C51    C     0.50471   0.43817   0.13134   0.00000  Uiso   1.00
C52    C     0.89502   0.04949   0.20791   0.00000  Uiso   1.00
C53    C     0.02217   0.11257   0.19837   0.00000  Uiso   1.00
C54    C     0.07132   0.19125   0.11810   0.00000  Uiso   1.00
C55    C     0.19618   0.32960   0.00101   0.00000  Uiso   1.00
C56    C     0.74412   0.00722   0.33736   0.00000  Uiso   1.00
C57    C     0.74442   0.03479   0.43664   0.00000  Uiso   1.00
C58    C     0.66654   0.07791   0.46535   0.00000  Uiso   1.00
C59    C     0.55711   0.15063   0.54925   0.00000  Uiso   1.00
C60    C     0.68320   0.98654   0.16445   0.00000  Uiso   1.00
C61    C     0.65636   0.85402   0.17050   0.00000  Uiso   1.00
C62    C     0.56806   0.75567   0.11611   0.00000  Uiso   1.00
C63    C     0.55780   0.64165   0.13235   0.00000  Uiso   1.00
C64    C     0.81964   0.06448   0.13972   0.00000  Uiso   1.00
C65    C     0.86861   0.14310   0.05945   0.00000  Uiso   1.00
C66    C     0.99580   0.20627   0.04978   0.00000  Uiso   1.00
C67    C     0.66873   0.02221   0.26916   0.00000  Uiso   1.00
C68    C     0.59084   0.06531   0.29772   0.00000  Uiso   1.00
C69    C     0.59101   0.09293   0.39703   0.00000  Uiso   1.00
H70    H     0.88070   0.94728   0.34310   0.00000  Uiso   1.00
H71    H     0.78000   0.71358   0.30780   0.00000  Uiso   1.00
H72    H     0.08049   0.10096   0.25116   0.00000  Uiso   1.00
H73    H     0.80277   0.02318   0.48939   0.00000  Uiso   1.00
H74    H     0.63513   0.46109   0.23857   0.00000  Uiso   1.00
H75    H     0.26874   0.27794   0.11915   0.00000  Uiso   1.00
H76    H     0.68312   0.11394   0.62152   0.00000  Uiso   1.00
H77    H     0.62450   0.99821   0.11135   0.00000  Uiso   1.00
H78    H     0.50973   0.76729   0.06334   0.00000  Uiso   1.00
H79    H     0.81024   0.15468   0.00669   0.00000  Uiso   1.00
H80    H     0.53252   0.07690   0.24493   0.00000  Uiso   1.00
H81    H     0.41577   0.50469   0.04015   0.00000  Uiso   1.00
H82    H     0.04940   0.32155   0.92073   0.00000  Uiso   1.00
H83    H     0.46377   0.15753   0.42310   0.00000  Uiso   1.00
O84    O     0.45460   0.33008   0.11193   0.00000  Uiso   1.00
O85    O     0.28588   0.40177   0.95527   0.00000  Uiso   1.00
O86    O     0.51756   0.18659   0.61437   0.00000  Uiso   1.00
N87    N     0.59924   0.50304   0.19848   0.00000  Uiso   1.00
N88    N     0.19163   0.26673   0.08681   0.00000  Uiso   1.00
N89    N     0.64415   0.11343   0.55648   0.00000  Uiso   1.00
N90    N     0.48120   0.52650   0.09171   0.00000  Uiso   1.00
N91    N     0.07360   0.29019   0.98005   0.00000  Uiso   1.00
N92    N     0.52611   0.13689   0.44972   0.00000  Uiso   1.00
C93    C     0.04106   0.86306   0.95668   0.00000  Uiso   1.00
C94    C     0.16097   0.89272   0.90537   0.00000  Uiso   1.00
C95    C     0.27486   0.99649   0.92169   0.00000  Uiso   1.00
C96    C     0.37336   0.00670   0.86734   0.00000  Uiso   1.00
C97    C     0.56183   0.06654   0.79801   0.00000  Uiso   1.00
C98    C     0.95051   0.84553   0.87458   0.00000  Uiso   1.00
C99    C     0.88743   0.90961   0.86503   0.00000  Uiso   1.00
C100   C     0.80875   0.88007   0.78477   0.00000  Uiso   1.00
C101   C     0.67040   0.86658   0.66768   0.00000  Uiso   1.00
C102   C     0.99278   0.73690   0.00402   0.00000  Uiso   1.00
C103   C     0.96521   0.70963   0.10331   0.00000  Uiso   1.00
C104   C     0.92209   0.58863   0.13202   0.00000  Uiso   1.00
C105   C     0.84937   0.40647   0.21592   0.00000  Uiso   1.00
C106   C     0.01346   0.69666   0.83112   0.00000  Uiso   1.00
C107   C     0.14598   0.80234   0.83717   0.00000  Uiso   1.00
C108   C     0.24433   0.81239   0.78278   0.00000  Uiso   1.00
C109   C     0.35835   0.91615   0.79902   0.00000  Uiso   1.00
C110   C     0.93552   0.75515   0.80638   0.00000  Uiso   1.00
C111   C     0.85690   0.72551   0.72612   0.00000  Uiso   1.00
C112   C     0.79373   0.78953   0.71644   0.00000  Uiso   1.00
C113   C     0.97779   0.64652   0.93583   0.00000  Uiso   1.00
C114   C     0.93469   0.52553   0.96439   0.00000  Uiso   1.00
C115   C     0.90707   0.49808   0.06370   0.00000  Uiso   1.00
H116   H     0.05272   0.93342   0.00977   0.00000  Uiso   1.00
H117   H     0.28642   0.06642   0.97447   0.00000  Uiso   1.00
H118   H     0.89904   0.97953   0.91782   0.00000  Uiso   1.00
H119   H     0.97682   0.77959   0.15606   0.00000  Uiso   1.00
H120   H     0.53891   0.17403   0.90524   0.00000  Uiso   1.00
H121   H     0.72206   0.99080   0.78581   0.00000  Uiso   1.00
H122   H     0.88606   0.56919   0.28819   0.00000  Uiso   1.00
H123   H     0.00179   0.62630   0.77802   0.00000  Uiso   1.00
H124   H     0.23271   0.74244   0.73001   0.00000  Uiso   1.00
H125   H     0.84532   0.65556   0.67336   0.00000  Uiso   1.00
H126   H     0.92310   0.45562   0.91160   0.00000  Uiso   1.00
H127   H     0.49531   0.91108   0.70682   0.00000  Uiso   1.00
H128   H     0.67845   0.72785   0.58740   0.00000  Uiso   1.00
H129   H     0.84247   0.30624   0.08977   0.00000  Uiso   1.00
O130   O     0.66992   0.12452   0.77860   0.00000  Uiso   1.00
O131   O     0.59823   0.88412   0.62194   0.00000  Uiso   1.00
O132   O     0.81341   0.33097   0.28103   0.00000  Uiso   1.00
N133   N     0.49696   0.09620   0.86514   0.00000  Uiso   1.00
N134   N     0.73327   0.92490   0.75348   0.00000  Uiso   1.00
N135   N     0.88657   0.53072   0.22315   0.00000  Uiso   1.00
N136   N     0.47350   0.95470   0.75838   0.00000  Uiso   1.00
N137   N     0.70981   0.78341   0.64671   0.00000  Uiso   1.00
N138   N     0.86311   0.38923   0.11638   0.00000  Uiso   1.00
