data_job_01641
_audit_creation_date              2018-12-19
_audit_creation_method            'Materials Studio'
_symmetry_space_group_name_H-M    'P1'
_symmetry_Int_Tables_number       1
_symmetry_cell_setting            triclinic
loop_
_symmetry_equiv_pos_as_xyz
  x,y,z
_cell_length_a                    9.6243
_cell_length_b                    25.5878
_cell_length_c                    22.8448
_cell_angle_alpha                 90.0000
_cell_angle_beta                  90.0000
_cell_angle_gamma                 90.0000
loop_
_atom_site_label
_atom_site_type_symbol
_atom_site_fract_x
_atom_site_fract_y
_atom_site_fract_z
_atom_site_U_iso_or_equiv
_atom_site_adp_type
_atom_site_occupancy
C1     C     0.93386   0.59033   0.12626   0.00000  Uiso   1.00
C2     C     0.89231   0.63977   0.15917   0.00000  Uiso   1.00
C3     C     0.80267   0.64208   0.20668   0.00000  Uiso   1.00
C4     C     0.77792   0.69106   0.23066   0.00000  Uiso   1.00
C5     C     0.70381   0.76098   0.28520   0.00000  Uiso   1.00
C6     C     0.89629   0.59995   0.06231   0.00000  Uiso   1.00
C7     C     0.81001   0.56878   0.02839   0.00000  Uiso   1.00
C8     C     0.78863   0.58424   0.97083   0.00000  Uiso   1.00
C9     C     0.72078   0.59232   0.87500   0.00000  Uiso   1.00
C10    C     0.09209   0.58806   0.12858   0.00000  Uiso   1.00
C11    C     0.17045   0.54689   0.15035   0.00000  Uiso   1.00
C12    C     0.31393   0.55234   0.14857   0.00000  Uiso   1.00
C13    C     0.55009   0.54196   0.15562   0.00000  Uiso   1.00
C14    C     0.04931   0.67320   0.08436   0.00000  Uiso   1.00
C15    C     0.95502   0.68478   0.13641   0.00000  Uiso   1.00
C16    C     0.93041   0.73377   0.16032   0.00000  Uiso   1.00
C17    C     0.84075   0.73616   0.20786   0.00000  Uiso   1.00
C18    C     0.95899   0.64496   0.03955   0.00000  Uiso   1.00
C19    C     0.93775   0.66046   0.98203   0.00000  Uiso   1.00
C20    C     0.85146   0.62933   0.94803   0.00000  Uiso   1.00
C21    C     0.15480   0.63307   0.10582   0.00000  Uiso   1.00
C22    C     0.29818   0.63858   0.10400   0.00000  Uiso   1.00
C23    C     0.37675   0.59743   0.12577   0.00000  Uiso   1.00
H24    H     0.88503   0.55528   0.14398   0.00000  Uiso   1.00
H25    H     0.75415   0.60724   0.22428   0.00000  Uiso   1.00
H26    H     0.76151   0.53394   0.04602   0.00000  Uiso   1.00
H27    H     0.12189   0.51207   0.16796   0.00000  Uiso   1.00
H28    H     0.63666   0.68469   0.30326   0.00000  Uiso   1.00
H29    H     0.65221   0.53014   0.92738   0.00000  Uiso   1.00
H30    H     0.41214   0.48400   0.18452   0.00000  Uiso   1.00
H31    H     0.09814   0.70824   0.06663   0.00000  Uiso   1.00
H32    H     0.97895   0.76860   0.14270   0.00000  Uiso   1.00
H33    H     0.98630   0.69530   0.96443   0.00000  Uiso   1.00
H34    H     0.34668   0.67342   0.08638   0.00000  Uiso   1.00
H35    H     0.81910   0.81566   0.23704   0.00000  Uiso   1.00
H36    H     0.83466   0.66110   0.86116   0.00000  Uiso   1.00
H37    H     0.59459   0.61496   0.11831   0.00000  Uiso   1.00
O38    O     0.64559   0.78712   0.32157   0.00000  Uiso   1.00
O39    O     0.66602   0.58434   0.82842   0.00000  Uiso   1.00
O40    O     0.66302   0.52381   0.16580   0.00000  Uiso   1.00
N41    N     0.69597   0.70723   0.27724   0.00000  Uiso   1.00
N42    N     0.71049   0.56274   0.92582   0.00000  Uiso   1.00
N43    N     0.42097   0.51959   0.16622   0.00000  Uiso   1.00
N44    N     0.79415   0.77770   0.24161   0.00000  Uiso   1.00
N45    N     0.80867   0.63321   0.89019   0.00000  Uiso   1.00
N46    N     0.51914   0.59007   0.13059   0.00000  Uiso   1.00
C47    C     0.56614   0.90967   0.62626   0.00000  Uiso   1.00
C48    C     0.60769   0.86023   0.65917   0.00000  Uiso   1.00
C49    C     0.69733   0.85792   0.70668   0.00000  Uiso   1.00
C50    C     0.72208   0.80894   0.73066   0.00000  Uiso   1.00
C51    C     0.79619   0.73902   0.78520   0.00000  Uiso   1.00
C52    C     0.60371   0.90005   0.56231   0.00000  Uiso   1.00
C53    C     0.68999   0.93122   0.52839   0.00000  Uiso   1.00
C54    C     0.71137   0.91576   0.47083   0.00000  Uiso   1.00
C55    C     0.77922   0.90768   0.37500   0.00000  Uiso   1.00
C56    C     0.40791   0.91194   0.62858   0.00000  Uiso   1.00
C57    C     0.32955   0.95311   0.65035   0.00000  Uiso   1.00
C58    C     0.18607   0.94766   0.64857   0.00000  Uiso   1.00
C59    C     0.94991   0.95804   0.65562   0.00000  Uiso   1.00
C60    C     0.45069   0.82680   0.58436   0.00000  Uiso   1.00
C61    C     0.54498   0.81522   0.63641   0.00000  Uiso   1.00
C62    C     0.56959   0.76623   0.66032   0.00000  Uiso   1.00
C63    C     0.65925   0.76384   0.70786   0.00000  Uiso   1.00
C64    C     0.54101   0.85504   0.53955   0.00000  Uiso   1.00
C65    C     0.56225   0.83954   0.48203   0.00000  Uiso   1.00
C66    C     0.64854   0.87067   0.44803   0.00000  Uiso   1.00
C67    C     0.34520   0.86693   0.60582   0.00000  Uiso   1.00
C68    C     0.20182   0.86142   0.60400   0.00000  Uiso   1.00
C69    C     0.12325   0.90257   0.62577   0.00000  Uiso   1.00
H70    H     0.61497   0.94472   0.64398   0.00000  Uiso   1.00
H71    H     0.74585   0.89276   0.72428   0.00000  Uiso   1.00
H72    H     0.73849   0.96606   0.54602   0.00000  Uiso   1.00
H73    H     0.37811   0.98793   0.66796   0.00000  Uiso   1.00
H74    H     0.86334   0.81531   0.80326   0.00000  Uiso   1.00
H75    H     0.84779   0.96986   0.42738   0.00000  Uiso   1.00
H76    H     0.08786   0.01600   0.68452   0.00000  Uiso   1.00
H77    H     0.40186   0.79176   0.56663   0.00000  Uiso   1.00
H78    H     0.52105   0.73140   0.64270   0.00000  Uiso   1.00
H79    H     0.51370   0.80470   0.46443   0.00000  Uiso   1.00
H80    H     0.15332   0.82658   0.58638   0.00000  Uiso   1.00
H81    H     0.68090   0.68434   0.73704   0.00000  Uiso   1.00
H82    H     0.66534   0.83890   0.36116   0.00000  Uiso   1.00
H83    H     0.90541   0.88504   0.61831   0.00000  Uiso   1.00
O84    O     0.85441   0.71288   0.82157   0.00000  Uiso   1.00
O85    O     0.83398   0.91566   0.32842   0.00000  Uiso   1.00
O86    O     0.83698   0.97619   0.66580   0.00000  Uiso   1.00
N87    N     0.80403   0.79277   0.77724   0.00000  Uiso   1.00
N88    N     0.78951   0.93726   0.42582   0.00000  Uiso   1.00
N89    N     0.07903   0.98041   0.66622   0.00000  Uiso   1.00
N90    N     0.70585   0.72230   0.74161   0.00000  Uiso   1.00
N91    N     0.69133   0.86679   0.39019   0.00000  Uiso   1.00
N92    N     0.98086   0.90993   0.63059   0.00000  Uiso   1.00
C93    C     0.06614   0.59033   0.37374   0.00000  Uiso   1.00
C94    C     0.10769   0.63977   0.34083   0.00000  Uiso   1.00
C95    C     0.19733   0.64208   0.29332   0.00000  Uiso   1.00
C96    C     0.22208   0.69106   0.26934   0.00000  Uiso   1.00
C97    C     0.29619   0.76098   0.21480   0.00000  Uiso   1.00
C98    C     0.10371   0.59995   0.43769   0.00000  Uiso   1.00
C99    C     0.18999   0.56878   0.47161   0.00000  Uiso   1.00
C100   C     0.21137   0.58424   0.52917   0.00000  Uiso   1.00
C101   C     0.27922   0.59232   0.62500   0.00000  Uiso   1.00
C102   C     0.90791   0.58806   0.37142   0.00000  Uiso   1.00
C103   C     0.82955   0.54689   0.34965   0.00000  Uiso   1.00
C104   C     0.68607   0.55234   0.35143   0.00000  Uiso   1.00
C105   C     0.44991   0.54196   0.34438   0.00000  Uiso   1.00
C106   C     0.95069   0.67320   0.41564   0.00000  Uiso   1.00
C107   C     0.04498   0.68478   0.36359   0.00000  Uiso   1.00
C108   C     0.06959   0.73377   0.33968   0.00000  Uiso   1.00
C109   C     0.15925   0.73616   0.29214   0.00000  Uiso   1.00
C110   C     0.04101   0.64496   0.46045   0.00000  Uiso   1.00
C111   C     0.06225   0.66046   0.51797   0.00000  Uiso   1.00
C112   C     0.14854   0.62933   0.55197   0.00000  Uiso   1.00
C113   C     0.84520   0.63307   0.39418   0.00000  Uiso   1.00
C114   C     0.70182   0.63858   0.39600   0.00000  Uiso   1.00
C115   C     0.62325   0.59743   0.37423   0.00000  Uiso   1.00
H116   H     0.11497   0.55528   0.35602   0.00000  Uiso   1.00
H117   H     0.24585   0.60724   0.27572   0.00000  Uiso   1.00
H118   H     0.23849   0.53394   0.45398   0.00000  Uiso   1.00
H119   H     0.87811   0.51207   0.33204   0.00000  Uiso   1.00
H120   H     0.36334   0.68469   0.19674   0.00000  Uiso   1.00
H121   H     0.34779   0.53014   0.57262   0.00000  Uiso   1.00
H122   H     0.58786   0.48400   0.31548   0.00000  Uiso   1.00
H123   H     0.90186   0.70824   0.43337   0.00000  Uiso   1.00
H124   H     0.02105   0.76860   0.35730   0.00000  Uiso   1.00
H125   H     0.01370   0.69530   0.53557   0.00000  Uiso   1.00
H126   H     0.65332   0.67342   0.41362   0.00000  Uiso   1.00
H127   H     0.18090   0.81566   0.26296   0.00000  Uiso   1.00
H128   H     0.16534   0.66110   0.63884   0.00000  Uiso   1.00
H129   H     0.40541   0.61496   0.38169   0.00000  Uiso   1.00
O130   O     0.35441   0.78712   0.17843   0.00000  Uiso   1.00
O131   O     0.33398   0.58434   0.67158   0.00000  Uiso   1.00
O132   O     0.33698   0.52381   0.33420   0.00000  Uiso   1.00
N133   N     0.30403   0.70723   0.22276   0.00000  Uiso   1.00
N134   N     0.28951   0.56274   0.57418   0.00000  Uiso   1.00
N135   N     0.57903   0.51959   0.33378   0.00000  Uiso   1.00
N136   N     0.20585   0.77770   0.25839   0.00000  Uiso   1.00
N137   N     0.19133   0.63321   0.60981   0.00000  Uiso   1.00
N138   N     0.48086   0.59007   0.36941   0.00000  Uiso   1.00
C139   C     0.43386   0.90967   0.87374   0.00000  Uiso   1.00
C140   C     0.39231   0.86023   0.84083   0.00000  Uiso   1.00
C141   C     0.30267   0.85792   0.79332   0.00000  Uiso   1.00
C142   C     0.27792   0.80894   0.76934   0.00000  Uiso   1.00
C143   C     0.20381   0.73902   0.71480   0.00000  Uiso   1.00
C144   C     0.39629   0.90005   0.93769   0.00000  Uiso   1.00
C145   C     0.31001   0.93122   0.97161   0.00000  Uiso   1.00
C146   C     0.28863   0.91576   0.02917   0.00000  Uiso   1.00
C147   C     0.22078   0.90768   0.12500   0.00000  Uiso   1.00
C148   C     0.59209   0.91194   0.87142   0.00000  Uiso   1.00
C149   C     0.67045   0.95311   0.84965   0.00000  Uiso   1.00
C150   C     0.81393   0.94766   0.85143   0.00000  Uiso   1.00
C151   C     0.05009   0.95804   0.84438   0.00000  Uiso   1.00
C152   C     0.54931   0.82680   0.91564   0.00000  Uiso   1.00
C153   C     0.45502   0.81522   0.86359   0.00000  Uiso   1.00
C154   C     0.43041   0.76623   0.83968   0.00000  Uiso   1.00
C155   C     0.34075   0.76384   0.79214   0.00000  Uiso   1.00
C156   C     0.45899   0.85504   0.96045   0.00000  Uiso   1.00
C157   C     0.43775   0.83954   0.01797   0.00000  Uiso   1.00
C158   C     0.35146   0.87067   0.05197   0.00000  Uiso   1.00
C159   C     0.65480   0.86693   0.89418   0.00000  Uiso   1.00
C160   C     0.79818   0.86142   0.89600   0.00000  Uiso   1.00
C161   C     0.87675   0.90257   0.87423   0.00000  Uiso   1.00
H162   H     0.38503   0.94472   0.85602   0.00000  Uiso   1.00
H163   H     0.25415   0.89276   0.77572   0.00000  Uiso   1.00
H164   H     0.26151   0.96606   0.95398   0.00000  Uiso   1.00
H165   H     0.62189   0.98793   0.83204   0.00000  Uiso   1.00
H166   H     0.13666   0.81531   0.69674   0.00000  Uiso   1.00
H167   H     0.15221   0.96986   0.07262   0.00000  Uiso   1.00
H168   H     0.91214   0.01600   0.81548   0.00000  Uiso   1.00
H169   H     0.59814   0.79176   0.93337   0.00000  Uiso   1.00
H170   H     0.47895   0.73140   0.85730   0.00000  Uiso   1.00
H171   H     0.48630   0.80470   0.03557   0.00000  Uiso   1.00
H172   H     0.84668   0.82658   0.91362   0.00000  Uiso   1.00
H173   H     0.31910   0.68434   0.76296   0.00000  Uiso   1.00
H174   H     0.33466   0.83890   0.13884   0.00000  Uiso   1.00
H175   H     0.09459   0.88504   0.88169   0.00000  Uiso   1.00
O176   O     0.14559   0.71288   0.67843   0.00000  Uiso   1.00
O177   O     0.16602   0.91566   0.17158   0.00000  Uiso   1.00
O178   O     0.16302   0.97619   0.83420   0.00000  Uiso   1.00
N179   N     0.19597   0.79277   0.72276   0.00000  Uiso   1.00
N180   N     0.21049   0.93726   0.07418   0.00000  Uiso   1.00
N181   N     0.92097   0.98041   0.83378   0.00000  Uiso   1.00
N182   N     0.29415   0.72230   0.75839   0.00000  Uiso   1.00
N183   N     0.30867   0.86679   0.10981   0.00000  Uiso   1.00
N184   N     0.01914   0.90993   0.86941   0.00000  Uiso   1.00
C185   C     0.06614   0.40967   0.87374   0.00000  Uiso   1.00
C186   C     0.10769   0.36023   0.84083   0.00000  Uiso   1.00
C187   C     0.19733   0.35792   0.79332   0.00000  Uiso   1.00
C188   C     0.22208   0.30894   0.76934   0.00000  Uiso   1.00
C189   C     0.29619   0.23902   0.71480   0.00000  Uiso   1.00
C190   C     0.10371   0.40005   0.93769   0.00000  Uiso   1.00
C191   C     0.18999   0.43122   0.97161   0.00000  Uiso   1.00
C192   C     0.21137   0.41576   0.02917   0.00000  Uiso   1.00
C193   C     0.27922   0.40768   0.12500   0.00000  Uiso   1.00
C194   C     0.90791   0.41194   0.87142   0.00000  Uiso   1.00
C195   C     0.82955   0.45311   0.84965   0.00000  Uiso   1.00
C196   C     0.68607   0.44766   0.85143   0.00000  Uiso   1.00
C197   C     0.44991   0.45804   0.84438   0.00000  Uiso   1.00
C198   C     0.95069   0.32680   0.91564   0.00000  Uiso   1.00
C199   C     0.04498   0.31522   0.86359   0.00000  Uiso   1.00
C200   C     0.06959   0.26623   0.83968   0.00000  Uiso   1.00
C201   C     0.15925   0.26384   0.79214   0.00000  Uiso   1.00
C202   C     0.04101   0.35504   0.96045   0.00000  Uiso   1.00
C203   C     0.06225   0.33954   0.01797   0.00000  Uiso   1.00
C204   C     0.14854   0.37067   0.05197   0.00000  Uiso   1.00
C205   C     0.84520   0.36693   0.89418   0.00000  Uiso   1.00
C206   C     0.70182   0.36142   0.89600   0.00000  Uiso   1.00
C207   C     0.62325   0.40257   0.87423   0.00000  Uiso   1.00
H208   H     0.11497   0.44472   0.85602   0.00000  Uiso   1.00
H209   H     0.24585   0.39276   0.77572   0.00000  Uiso   1.00
H210   H     0.23849   0.46606   0.95398   0.00000  Uiso   1.00
H211   H     0.87811   0.48793   0.83204   0.00000  Uiso   1.00
H212   H     0.36334   0.31531   0.69674   0.00000  Uiso   1.00
H213   H     0.34779   0.46986   0.07262   0.00000  Uiso   1.00
H214   H     0.58786   0.51600   0.81548   0.00000  Uiso   1.00
H215   H     0.90186   0.29176   0.93337   0.00000  Uiso   1.00
H216   H     0.02105   0.23140   0.85730   0.00000  Uiso   1.00
H217   H     0.01370   0.30470   0.03557   0.00000  Uiso   1.00
H218   H     0.65332   0.32658   0.91362   0.00000  Uiso   1.00
H219   H     0.18090   0.18434   0.76296   0.00000  Uiso   1.00
H220   H     0.16534   0.33890   0.13884   0.00000  Uiso   1.00
H221   H     0.40541   0.38504   0.88169   0.00000  Uiso   1.00
O222   O     0.35441   0.21288   0.67843   0.00000  Uiso   1.00
O223   O     0.33398   0.41566   0.17158   0.00000  Uiso   1.00
O224   O     0.33698   0.47619   0.83420   0.00000  Uiso   1.00
N225   N     0.30403   0.29277   0.72276   0.00000  Uiso   1.00
N226   N     0.28951   0.43726   0.07418   0.00000  Uiso   1.00
N227   N     0.57903   0.48041   0.83378   0.00000  Uiso   1.00
N228   N     0.20585   0.22230   0.75839   0.00000  Uiso   1.00
N229   N     0.19133   0.36679   0.10981   0.00000  Uiso   1.00
N230   N     0.48086   0.40993   0.86941   0.00000  Uiso   1.00
C231   C     0.43386   0.09033   0.37374   0.00000  Uiso   1.00
C232   C     0.39231   0.13977   0.34083   0.00000  Uiso   1.00
C233   C     0.30267   0.14208   0.29332   0.00000  Uiso   1.00
C234   C     0.27792   0.19106   0.26934   0.00000  Uiso   1.00
C235   C     0.20381   0.26098   0.21480   0.00000  Uiso   1.00
C236   C     0.39629   0.09995   0.43769   0.00000  Uiso   1.00
C237   C     0.31001   0.06878   0.47161   0.00000  Uiso   1.00
C238   C     0.28863   0.08424   0.52917   0.00000  Uiso   1.00
C239   C     0.22078   0.09232   0.62500   0.00000  Uiso   1.00
C240   C     0.59209   0.08806   0.37142   0.00000  Uiso   1.00
C241   C     0.67045   0.04689   0.34965   0.00000  Uiso   1.00
C242   C     0.81393   0.05234   0.35143   0.00000  Uiso   1.00
C243   C     0.05009   0.04196   0.34438   0.00000  Uiso   1.00
C244   C     0.54931   0.17320   0.41564   0.00000  Uiso   1.00
C245   C     0.45502   0.18478   0.36359   0.00000  Uiso   1.00
C246   C     0.43041   0.23377   0.33968   0.00000  Uiso   1.00
C247   C     0.34075   0.23616   0.29214   0.00000  Uiso   1.00
C248   C     0.45899   0.14496   0.46045   0.00000  Uiso   1.00
C249   C     0.43775   0.16046   0.51797   0.00000  Uiso   1.00
C250   C     0.35146   0.12933   0.55197   0.00000  Uiso   1.00
C251   C     0.65480   0.13307   0.39418   0.00000  Uiso   1.00
C252   C     0.79818   0.13858   0.39600   0.00000  Uiso   1.00
C253   C     0.87675   0.09743   0.37423   0.00000  Uiso   1.00
H254   H     0.38503   0.05528   0.35602   0.00000  Uiso   1.00
H255   H     0.25415   0.10724   0.27572   0.00000  Uiso   1.00
H256   H     0.26151   0.03394   0.45398   0.00000  Uiso   1.00
H257   H     0.62189   0.01207   0.33204   0.00000  Uiso   1.00
H258   H     0.13666   0.18469   0.19674   0.00000  Uiso   1.00
H259   H     0.15221   0.03014   0.57262   0.00000  Uiso   1.00
H260   H     0.91214   0.98400   0.31548   0.00000  Uiso   1.00
H261   H     0.59814   0.20824   0.43337   0.00000  Uiso   1.00
H262   H     0.47895   0.26860   0.35730   0.00000  Uiso   1.00
H263   H     0.48630   0.19530   0.53557   0.00000  Uiso   1.00
H264   H     0.84668   0.17342   0.41362   0.00000  Uiso   1.00
H265   H     0.31910   0.31566   0.26296   0.00000  Uiso   1.00
H266   H     0.33466   0.16110   0.63884   0.00000  Uiso   1.00
H267   H     0.09459   0.11496   0.38169   0.00000  Uiso   1.00
O268   O     0.14559   0.28712   0.17843   0.00000  Uiso   1.00
O269   O     0.16602   0.08434   0.67158   0.00000  Uiso   1.00
O270   O     0.16302   0.02381   0.33420   0.00000  Uiso   1.00
N271   N     0.19597   0.20723   0.22276   0.00000  Uiso   1.00
N272   N     0.21049   0.06274   0.57418   0.00000  Uiso   1.00
N273   N     0.92097   0.01959   0.33378   0.00000  Uiso   1.00
N274   N     0.29415   0.27770   0.25839   0.00000  Uiso   1.00
N275   N     0.30867   0.13321   0.60981   0.00000  Uiso   1.00
N276   N     0.01914   0.09007   0.36941   0.00000  Uiso   1.00
C277   C     0.93386   0.40967   0.62626   0.00000  Uiso   1.00
C278   C     0.89231   0.36023   0.65917   0.00000  Uiso   1.00
C279   C     0.80267   0.35792   0.70668   0.00000  Uiso   1.00
C280   C     0.77792   0.30894   0.73066   0.00000  Uiso   1.00
C281   C     0.70381   0.23902   0.78520   0.00000  Uiso   1.00
C282   C     0.89629   0.40005   0.56231   0.00000  Uiso   1.00
C283   C     0.81001   0.43122   0.52839   0.00000  Uiso   1.00
C284   C     0.78863   0.41576   0.47083   0.00000  Uiso   1.00
C285   C     0.72078   0.40768   0.37500   0.00000  Uiso   1.00
C286   C     0.09209   0.41194   0.62858   0.00000  Uiso   1.00
C287   C     0.17045   0.45311   0.65035   0.00000  Uiso   1.00
C288   C     0.31393   0.44766   0.64857   0.00000  Uiso   1.00
C289   C     0.55009   0.45804   0.65562   0.00000  Uiso   1.00
C290   C     0.04931   0.32680   0.58436   0.00000  Uiso   1.00
C291   C     0.95502   0.31522   0.63641   0.00000  Uiso   1.00
C292   C     0.93041   0.26623   0.66032   0.00000  Uiso   1.00
C293   C     0.84075   0.26384   0.70786   0.00000  Uiso   1.00
C294   C     0.95899   0.35504   0.53955   0.00000  Uiso   1.00
C295   C     0.93775   0.33954   0.48203   0.00000  Uiso   1.00
C296   C     0.85146   0.37067   0.44803   0.00000  Uiso   1.00
C297   C     0.15480   0.36693   0.60582   0.00000  Uiso   1.00
C298   C     0.29818   0.36142   0.60400   0.00000  Uiso   1.00
C299   C     0.37675   0.40257   0.62577   0.00000  Uiso   1.00
H300   H     0.88503   0.44472   0.64398   0.00000  Uiso   1.00
H301   H     0.75415   0.39276   0.72428   0.00000  Uiso   1.00
H302   H     0.76151   0.46606   0.54602   0.00000  Uiso   1.00
H303   H     0.12189   0.48793   0.66796   0.00000  Uiso   1.00
H304   H     0.63666   0.31531   0.80326   0.00000  Uiso   1.00
H305   H     0.65221   0.46986   0.42738   0.00000  Uiso   1.00
H306   H     0.41214   0.51600   0.68452   0.00000  Uiso   1.00
H307   H     0.09814   0.29176   0.56663   0.00000  Uiso   1.00
H308   H     0.97895   0.23140   0.64270   0.00000  Uiso   1.00
H309   H     0.98630   0.30470   0.46443   0.00000  Uiso   1.00
H310   H     0.34668   0.32658   0.58638   0.00000  Uiso   1.00
H311   H     0.81910   0.18434   0.73704   0.00000  Uiso   1.00
H312   H     0.83466   0.33890   0.36116   0.00000  Uiso   1.00
H313   H     0.59459   0.38504   0.61831   0.00000  Uiso   1.00
O314   O     0.64559   0.21288   0.82157   0.00000  Uiso   1.00
O315   O     0.66602   0.41566   0.32842   0.00000  Uiso   1.00
O316   O     0.66302   0.47619   0.66580   0.00000  Uiso   1.00
N317   N     0.69597   0.29277   0.77724   0.00000  Uiso   1.00
N318   N     0.71049   0.43726   0.42582   0.00000  Uiso   1.00
N319   N     0.42097   0.48041   0.66622   0.00000  Uiso   1.00
N320   N     0.79415   0.22230   0.74161   0.00000  Uiso   1.00
N321   N     0.80867   0.36679   0.39019   0.00000  Uiso   1.00
N322   N     0.51914   0.40993   0.63059   0.00000  Uiso   1.00
C323   C     0.56614   0.09033   0.12626   0.00000  Uiso   1.00
C324   C     0.60769   0.13977   0.15917   0.00000  Uiso   1.00
C325   C     0.69733   0.14208   0.20668   0.00000  Uiso   1.00
C326   C     0.72208   0.19106   0.23066   0.00000  Uiso   1.00
C327   C     0.79619   0.26098   0.28520   0.00000  Uiso   1.00
C328   C     0.60371   0.09995   0.06231   0.00000  Uiso   1.00
C329   C     0.68999   0.06878   0.02839   0.00000  Uiso   1.00
C330   C     0.71137   0.08424   0.97083   0.00000  Uiso   1.00
C331   C     0.77922   0.09232   0.87500   0.00000  Uiso   1.00
C332   C     0.40791   0.08806   0.12858   0.00000  Uiso   1.00
C333   C     0.32955   0.04689   0.15035   0.00000  Uiso   1.00
C334   C     0.18607   0.05234   0.14857   0.00000  Uiso   1.00
C335   C     0.94991   0.04196   0.15562   0.00000  Uiso   1.00
C336   C     0.45069   0.17320   0.08436   0.00000  Uiso   1.00
C337   C     0.54498   0.18478   0.13641   0.00000  Uiso   1.00
C338   C     0.56959   0.23377   0.16032   0.00000  Uiso   1.00
C339   C     0.65925   0.23616   0.20786   0.00000  Uiso   1.00
C340   C     0.54101   0.14496   0.03955   0.00000  Uiso   1.00
C341   C     0.56225   0.16046   0.98203   0.00000  Uiso   1.00
C342   C     0.64854   0.12933   0.94803   0.00000  Uiso   1.00
C343   C     0.34520   0.13307   0.10582   0.00000  Uiso   1.00
C344   C     0.20182   0.13858   0.10400   0.00000  Uiso   1.00
C345   C     0.12325   0.09743   0.12577   0.00000  Uiso   1.00
H346   H     0.61497   0.05528   0.14398   0.00000  Uiso   1.00
H347   H     0.74585   0.10724   0.22428   0.00000  Uiso   1.00
H348   H     0.73849   0.03394   0.04602   0.00000  Uiso   1.00
H349   H     0.37811   0.01207   0.16796   0.00000  Uiso   1.00
H350   H     0.86334   0.18469   0.30326   0.00000  Uiso   1.00
H351   H     0.84779   0.03014   0.92738   0.00000  Uiso   1.00
H352   H     0.08786   0.98400   0.18452   0.00000  Uiso   1.00
H353   H     0.40186   0.20824   0.06663   0.00000  Uiso   1.00
H354   H     0.52105   0.26860   0.14270   0.00000  Uiso   1.00
H355   H     0.51370   0.19530   0.96443   0.00000  Uiso   1.00
H356   H     0.15332   0.17342   0.08638   0.00000  Uiso   1.00
H357   H     0.68090   0.31566   0.23704   0.00000  Uiso   1.00
H358   H     0.66534   0.16110   0.86116   0.00000  Uiso   1.00
H359   H     0.90541   0.11496   0.11831   0.00000  Uiso   1.00
O360   O     0.85441   0.28712   0.32157   0.00000  Uiso   1.00
O361   O     0.83398   0.08434   0.82842   0.00000  Uiso   1.00
O362   O     0.83698   0.02381   0.16580   0.00000  Uiso   1.00
N363   N     0.80403   0.20723   0.27724   0.00000  Uiso   1.00
N364   N     0.78951   0.06274   0.92582   0.00000  Uiso   1.00
N365   N     0.07903   0.01959   0.16622   0.00000  Uiso   1.00
N366   N     0.70585   0.27770   0.24161   0.00000  Uiso   1.00
N367   N     0.69133   0.13321   0.89019   0.00000  Uiso   1.00
N368   N     0.98086   0.09007   0.13059   0.00000  Uiso   1.00
