data_job_05958
_audit_creation_date              2018-12-19
_audit_creation_method            'Materials Studio'
_symmetry_space_group_name_H-M    'P1'
_symmetry_Int_Tables_number       1
_symmetry_cell_setting            triclinic
loop_
_symmetry_equiv_pos_as_xyz
  x,y,z
_cell_length_a                    12.0753
_cell_length_b                    20.0980
_cell_length_c                    20.1677
_cell_angle_alpha                 63.0500
_cell_angle_beta                  80.6166
_cell_angle_gamma                 99.3432
loop_
_atom_site_label
_atom_site_type_symbol
_atom_site_fract_x
_atom_site_fract_y
_atom_site_fract_z
_atom_site_U_iso_or_equiv
_atom_site_adp_type
_atom_site_occupancy
C1     C     0.88776   0.55583   0.22744   0.00000  Uiso   1.00
C2     C     0.80948   0.55058   0.17685   0.00000  Uiso   1.00
C3     C     0.71478   0.58149   0.16704   0.00000  Uiso   1.00
C4     C     0.65428   0.57042   0.11833   0.00000  Uiso   1.00
C5     C     0.52766   0.56839   0.04551   0.00000  Uiso   1.00
C6     C     0.88405   0.47260   0.28363   0.00000  Uiso   1.00
C7     C     0.85206   0.43795   0.36358   0.00000  Uiso   1.00
C8     C     0.85435   0.36125   0.40475   0.00000  Uiso   1.00
C9     C     0.84358   0.23817   0.49770   0.00000  Uiso   1.00
C10    C     0.01152   0.59319   0.17453   0.00000  Uiso   1.00
C11    C     0.08673   0.65993   0.16277   0.00000  Uiso   1.00
C12    C     0.19636   0.68474   0.11210   0.00000  Uiso   1.00
C13    C     0.38351   0.74890   0.03567   0.00000  Uiso   1.00
C14    C     0.94872   0.48122   0.15839   0.00000  Uiso   1.00
C15    C     0.84260   0.51004   0.13935   0.00000  Uiso   1.00
C16    C     0.78223   0.49893   0.09064   0.00000  Uiso   1.00
C17    C     0.68745   0.52982   0.08075   0.00000  Uiso   1.00
C18    C     0.91716   0.43207   0.24612   0.00000  Uiso   1.00
C19    C     0.91950   0.35540   0.28718   0.00000  Uiso   1.00
C20    C     0.88752   0.32065   0.36718   0.00000  Uiso   1.00
C21    C     0.04464   0.55266   0.13702   0.00000  Uiso   1.00
C22    C     0.15417   0.57737   0.08637   0.00000  Uiso   1.00
C23    C     0.22953   0.64414   0.07453   0.00000  Uiso   1.00
H24    H     0.86199   0.58738   0.25665   0.00000  Uiso   1.00
H25    H     0.68918   0.61284   0.19608   0.00000  Uiso   1.00
H26    H     0.82645   0.46933   0.39259   0.00000  Uiso   1.00
H27    H     0.06108   0.69127   0.19181   0.00000  Uiso   1.00
H28    H     0.51217   0.62317   0.11241   0.00000  Uiso   1.00
H29    H     0.80165   0.32058   0.52677   0.00000  Uiso   1.00
H30    H     0.29641   0.78859   0.10338   0.00000  Uiso   1.00
H31    H     0.97450   0.44966   0.12919   0.00000  Uiso   1.00
H32    H     0.80787   0.46757   0.06162   0.00000  Uiso   1.00
H33    H     0.94514   0.32406   0.25814   0.00000  Uiso   1.00
H34    H     0.17976   0.54600   0.05735   0.00000  Uiso   1.00
H35    H     0.60849   0.50525   0.00328   0.00000  Uiso   1.00
H36    H     0.89798   0.20267   0.41764   0.00000  Uiso   1.00
H37    H     0.39274   0.67067   0.99425   0.00000  Uiso   1.00
O38    O     0.44866   0.57845   0.01572   0.00000  Uiso   1.00
O39    O     0.82847   0.18148   0.55934   0.00000  Uiso   1.00
O40    O     0.47758   0.79549   0.00386   0.00000  Uiso   1.00
N41    N     0.55772   0.59298   0.09599   0.00000  Uiso   1.00
N42    N     0.82835   0.31007   0.48339   0.00000  Uiso   1.00
N43    N     0.29092   0.74760   0.08757   0.00000  Uiso   1.00
N44    N     0.60955   0.52953   0.03726   0.00000  Uiso   1.00
N45    N     0.88019   0.24662   0.42467   0.00000  Uiso   1.00
N46    N     0.34276   0.68416   0.02884   0.00000  Uiso   1.00
C47    C     0.33918   0.21662   0.55627   0.00000  Uiso   1.00
C48    C     0.26656   0.27383   0.54859   0.00000  Uiso   1.00
C49    C     0.14631   0.25477   0.57590   0.00000  Uiso   1.00
C50    C     0.09627   0.31553   0.56310   0.00000  Uiso   1.00
C51    C     0.97318   0.39266   0.55704   0.00000  Uiso   1.00
C52    C     0.40798   0.24232   0.47436   0.00000  Uiso   1.00
C53    C     0.40665   0.19677   0.43926   0.00000  Uiso   1.00
C54    C     0.47567   0.23100   0.36397   0.00000  Uiso   1.00
C55    C     0.57220   0.25919   0.24268   0.00000  Uiso   1.00
C56    C     0.42864   0.23087   0.59698   0.00000  Uiso   1.00
C57    C     0.44469   0.17568   0.66498   0.00000  Uiso   1.00
C58    C     0.53112   0.20027   0.69292   0.00000  Uiso   1.00
C59    C     0.65972   0.21068   0.76203   0.00000  Uiso   1.00
C60    C     0.46415   0.35841   0.48498   0.00000  Uiso   1.00
C61    C     0.33444   0.35085   0.50987   0.00000  Uiso   1.00
C62    C     0.28457   0.41165   0.49703   0.00000  Uiso   1.00
C63    C     0.16427   0.39269   0.52431   0.00000  Uiso   1.00
C64    C     0.47586   0.31934   0.43564   0.00000  Uiso   1.00
C65    C     0.54491   0.35364   0.36038   0.00000  Uiso   1.00
C66    C     0.54367   0.30815   0.32518   0.00000  Uiso   1.00
C67    C     0.49651   0.30789   0.55827   0.00000  Uiso   1.00
C68    C     0.58294   0.33256   0.58611   0.00000  Uiso   1.00
C69    C     0.59912   0.27743   0.65413   0.00000  Uiso   1.00
H70    H     0.28634   0.15666   0.58641   0.00000  Uiso   1.00
H71    H     0.09382   0.19517   0.60586   0.00000  Uiso   1.00
H72    H     0.35412   0.13717   0.46924   0.00000  Uiso   1.00
H73    H     0.39215   0.11609   0.69492   0.00000  Uiso   1.00
H74    H     0.91029   0.27182   0.61032   0.00000  Uiso   1.00
H75    H     0.45919   0.14952   0.32226   0.00000  Uiso   1.00
H76    H     0.53939   0.10508   0.79817   0.00000  Uiso   1.00
H77    H     0.51700   0.41837   0.45483   0.00000  Uiso   1.00
H78    H     0.33712   0.47124   0.46706   0.00000  Uiso   1.00
H79    H     0.59742   0.41324   0.33044   0.00000  Uiso   1.00
H80    H     0.63545   0.39217   0.55613   0.00000  Uiso   1.00
H81    H     0.10777   0.49590   0.49766   0.00000  Uiso   1.00
H82    H     0.65667   0.37359   0.20961   0.00000  Uiso   1.00
H83    H     0.73686   0.32915   0.68551   0.00000  Uiso   1.00
O84    O     0.88654   0.41392   0.56439   0.00000  Uiso   1.00
O85    O     0.60668   0.25346   0.18648   0.00000  Uiso   1.00
O86    O     0.71189   0.19515   0.81085   0.00000  Uiso   1.00
N87    N     0.98146   0.31731   0.58214   0.00000  Uiso   1.00
N88    N     0.49463   0.20296   0.31282   0.00000  Uiso   1.00
N89    N     0.56962   0.16140   0.75774   0.00000  Uiso   1.00
N90    N     0.08771   0.43788   0.52152   0.00000  Uiso   1.00
N91    N     0.60089   0.32353   0.25220   0.00000  Uiso   1.00
N92    N     0.67588   0.28198   0.69712   0.00000  Uiso   1.00
C93    C     0.10420   0.22494   0.21886   0.00000  Uiso   1.00
C94    C     0.98284   0.17746   0.27271   0.00000  Uiso   1.00
C95    C     0.88091   0.17081   0.25009   0.00000  Uiso   1.00
C96    C     0.77871   0.12461   0.30816   0.00000  Uiso   1.00
C97    C     0.59027   0.05672   0.37994   0.00000  Uiso   1.00
C98    C     0.14960   0.28066   0.24637   0.00000  Uiso   1.00
C99    C     0.18790   0.36078   0.20160   0.00000  Uiso   1.00
C100   C     0.22610   0.40145   0.23749   0.00000  Uiso   1.00
C101   C     0.29664   0.49377   0.26836   0.00000  Uiso   1.00
C102   C     0.18000   0.16859   0.23573   0.00000  Uiso   1.00
C103   C     0.24389   0.15449   0.18201   0.00000  Uiso   1.00
C104   C     0.30771   0.10081   0.20895   0.00000  Uiso   1.00
C105   C     0.42546   0.01913   0.22329   0.00000  Uiso   1.00
C106   C     0.10396   0.15472   0.36221   0.00000  Uiso   1.00
C107   C     0.98271   0.13932   0.35058   0.00000  Uiso   1.00
C108   C     0.88064   0.09312   0.40869   0.00000  Uiso   1.00
C109   C     0.77857   0.08640   0.38616   0.00000  Uiso   1.00
C110   C     0.14947   0.24252   0.32423   0.00000  Uiso   1.00
C111   C     0.18763   0.28308   0.36020   0.00000  Uiso   1.00
C112   C     0.22597   0.36324   0.31549   0.00000  Uiso   1.00
C113   C     0.17987   0.13044   0.31360   0.00000  Uiso   1.00
C114   C     0.24361   0.07678   0.34062   0.00000  Uiso   1.00
C115   C     0.30758   0.06260   0.28695   0.00000  Uiso   1.00
H116   H     0.10431   0.25464   0.15824   0.00000  Uiso   1.00
H117   H     0.88104   0.20035   0.18983   0.00000  Uiso   1.00
H118   H     0.18800   0.39028   0.14134   0.00000  Uiso   1.00
H119   H     0.24397   0.18401   0.12176   0.00000  Uiso   1.00
H120   H     0.63345   0.12335   0.25919   0.00000  Uiso   1.00
H121   H     0.28072   0.52383   0.15695   0.00000  Uiso   1.00
H122   H     0.39875   0.08889   0.11566   0.00000  Uiso   1.00
H123   H     0.10386   0.12502   0.42283   0.00000  Uiso   1.00
H124   H     0.88056   0.06361   0.46894   0.00000  Uiso   1.00
H125   H     0.18752   0.25354   0.42045   0.00000  Uiso   1.00
H126   H     0.24349   0.04728   0.40087   0.00000  Uiso   1.00
H127   H     0.63306   0.01237   0.48573   0.00000  Uiso   1.00
H128   H     0.28033   0.41285   0.38348   0.00000  Uiso   1.00
H129   H     0.39836   0.97791   0.34219   0.00000  Uiso   1.00
O130   O     0.48637   0.02982   0.39802   0.00000  Uiso   1.00
O131   O     0.33558   0.55523   0.26387   0.00000  Uiso   1.00
O132   O     0.49043   0.98460   0.20970   0.00000  Uiso   1.00
N133   N     0.66401   0.10565   0.30618   0.00000  Uiso   1.00
N134   N     0.26914   0.48007   0.21059   0.00000  Uiso   1.00
N135   N     0.37952   0.07345   0.17198   0.00000  Uiso   1.00
N136   N     0.66380   0.04593   0.42808   0.00000  Uiso   1.00
N137   N     0.26893   0.42036   0.33249   0.00000  Uiso   1.00
N138   N     0.37931   0.01374   0.29388   0.00000  Uiso   1.00
C139   C     0.11224   0.44417   0.77256   0.00000  Uiso   1.00
C140   C     0.19052   0.44942   0.82315   0.00000  Uiso   1.00
C141   C     0.28522   0.41851   0.83296   0.00000  Uiso   1.00
C142   C     0.34572   0.42958   0.88167   0.00000  Uiso   1.00
C143   C     0.47234   0.43161   0.95449   0.00000  Uiso   1.00
C144   C     0.11595   0.52740   0.71637   0.00000  Uiso   1.00
C145   C     0.14794   0.56205   0.63642   0.00000  Uiso   1.00
C146   C     0.14565   0.63875   0.59525   0.00000  Uiso   1.00
C147   C     0.15642   0.76183   0.50230   0.00000  Uiso   1.00
C148   C     0.98848   0.40681   0.82547   0.00000  Uiso   1.00
C149   C     0.91327   0.34007   0.83723   0.00000  Uiso   1.00
C150   C     0.80364   0.31526   0.88790   0.00000  Uiso   1.00
C151   C     0.61650   0.25110   0.96434   0.00000  Uiso   1.00
C152   C     0.05128   0.51878   0.84161   0.00000  Uiso   1.00
C153   C     0.15740   0.48996   0.86065   0.00000  Uiso   1.00
C154   C     0.21777   0.50107   0.90936   0.00000  Uiso   1.00
C155   C     0.31255   0.47018   0.91925   0.00000  Uiso   1.00
C156   C     0.08284   0.56793   0.75388   0.00000  Uiso   1.00
C157   C     0.08050   0.64460   0.71282   0.00000  Uiso   1.00
C158   C     0.11248   0.67935   0.63282   0.00000  Uiso   1.00
C159   C     0.95536   0.44734   0.86298   0.00000  Uiso   1.00
C160   C     0.84583   0.42263   0.91363   0.00000  Uiso   1.00
C161   C     0.77047   0.35586   0.92547   0.00000  Uiso   1.00
H162   H     0.13801   0.41262   0.74335   0.00000  Uiso   1.00
H163   H     0.31082   0.38716   0.80392   0.00000  Uiso   1.00
H164   H     0.17355   0.53067   0.60741   0.00000  Uiso   1.00
H165   H     0.93892   0.30873   0.80819   0.00000  Uiso   1.00
H166   H     0.48783   0.37683   0.88759   0.00000  Uiso   1.00
H167   H     0.19835   0.67942   0.47323   0.00000  Uiso   1.00
H168   H     0.70359   0.21141   0.89662   0.00000  Uiso   1.00
H169   H     0.02550   0.55034   0.87081   0.00000  Uiso   1.00
H170   H     0.19213   0.53243   0.93838   0.00000  Uiso   1.00
H171   H     0.05486   0.67594   0.74186   0.00000  Uiso   1.00
H172   H     0.82024   0.45400   0.94265   0.00000  Uiso   1.00
H173   H     0.39151   0.49474   0.99672   0.00000  Uiso   1.00
H174   H     0.10202   0.79733   0.58236   0.00000  Uiso   1.00
H175   H     0.60726   0.32933   0.00576   0.00000  Uiso   1.00
O176   O     0.55134   0.42155   0.98428   0.00000  Uiso   1.00
O177   O     0.17153   0.81852   0.44066   0.00000  Uiso   1.00
O178   O     0.52242   0.20451   0.99614   0.00000  Uiso   1.00
N179   N     0.44228   0.40702   0.90401   0.00000  Uiso   1.00
N180   N     0.17165   0.68993   0.51661   0.00000  Uiso   1.00
N181   N     0.70908   0.25240   0.91243   0.00000  Uiso   1.00
N182   N     0.39045   0.47047   0.96274   0.00000  Uiso   1.00
N183   N     0.11981   0.75338   0.57533   0.00000  Uiso   1.00
N184   N     0.65724   0.31584   0.97116   0.00000  Uiso   1.00
C185   C     0.66082   0.78338   0.44373   0.00000  Uiso   1.00
C186   C     0.73344   0.72617   0.45141   0.00000  Uiso   1.00
C187   C     0.85369   0.74523   0.42410   0.00000  Uiso   1.00
C188   C     0.90373   0.68447   0.43690   0.00000  Uiso   1.00
C189   C     0.02682   0.60734   0.44296   0.00000  Uiso   1.00
C190   C     0.59202   0.75768   0.52564   0.00000  Uiso   1.00
C191   C     0.59335   0.80323   0.56074   0.00000  Uiso   1.00
C192   C     0.52433   0.76900   0.63603   0.00000  Uiso   1.00
C193   C     0.42780   0.74081   0.75732   0.00000  Uiso   1.00
C194   C     0.57136   0.76913   0.40302   0.00000  Uiso   1.00
C195   C     0.55531   0.82432   0.33502   0.00000  Uiso   1.00
C196   C     0.46888   0.79973   0.30708   0.00000  Uiso   1.00
C197   C     0.34028   0.78932   0.23797   0.00000  Uiso   1.00
C198   C     0.53585   0.64159   0.51502   0.00000  Uiso   1.00
C199   C     0.66556   0.64915   0.49013   0.00000  Uiso   1.00
C200   C     0.71543   0.58835   0.50297   0.00000  Uiso   1.00
C201   C     0.83573   0.60731   0.47569   0.00000  Uiso   1.00
C202   C     0.52414   0.68066   0.56436   0.00000  Uiso   1.00
C203   C     0.45509   0.64636   0.63962   0.00000  Uiso   1.00
C204   C     0.45633   0.69185   0.67482   0.00000  Uiso   1.00
C205   C     0.50349   0.69211   0.44173   0.00000  Uiso   1.00
C206   C     0.41706   0.66744   0.41389   0.00000  Uiso   1.00
C207   C     0.40088   0.72257   0.34587   0.00000  Uiso   1.00
H208   H     0.71366   0.84334   0.41359   0.00000  Uiso   1.00
H209   H     0.90619   0.80483   0.39414   0.00000  Uiso   1.00
H210   H     0.64588   0.86283   0.53076   0.00000  Uiso   1.00
H211   H     0.60785   0.88391   0.30508   0.00000  Uiso   1.00
H212   H     0.08971   0.72818   0.38968   0.00000  Uiso   1.00
H213   H     0.54081   0.85048   0.67774   0.00000  Uiso   1.00
H214   H     0.46061   0.89492   0.20183   0.00000  Uiso   1.00
H215   H     0.48300   0.58163   0.54517   0.00000  Uiso   1.00
H216   H     0.66288   0.52876   0.53294   0.00000  Uiso   1.00
H217   H     0.40258   0.58676   0.66956   0.00000  Uiso   1.00
H218   H     0.36455   0.60783   0.44387   0.00000  Uiso   1.00
H219   H     0.89223   0.50410   0.50234   0.00000  Uiso   1.00
H220   H     0.34333   0.62641   0.79039   0.00000  Uiso   1.00
H221   H     0.26314   0.67085   0.31449   0.00000  Uiso   1.00
O222   O     0.11346   0.58608   0.43561   0.00000  Uiso   1.00
O223   O     0.39332   0.74654   0.81352   0.00000  Uiso   1.00
O224   O     0.28811   0.80485   0.18915   0.00000  Uiso   1.00
N225   N     0.01854   0.68269   0.41786   0.00000  Uiso   1.00
N226   N     0.50537   0.79704   0.68718   0.00000  Uiso   1.00
N227   N     0.43038   0.83860   0.24226   0.00000  Uiso   1.00
N228   N     0.91229   0.56212   0.47848   0.00000  Uiso   1.00
N229   N     0.39911   0.67647   0.74780   0.00000  Uiso   1.00
N230   N     0.32412   0.71802   0.30288   0.00000  Uiso   1.00
C231   C     0.89580   0.77506   0.78114   0.00000  Uiso   1.00
C232   C     0.01716   0.82254   0.72729   0.00000  Uiso   1.00
C233   C     0.11909   0.82919   0.74991   0.00000  Uiso   1.00
C234   C     0.22129   0.87539   0.69184   0.00000  Uiso   1.00
C235   C     0.40973   0.94328   0.62006   0.00000  Uiso   1.00
C236   C     0.85040   0.71934   0.75363   0.00000  Uiso   1.00
C237   C     0.81210   0.63922   0.79840   0.00000  Uiso   1.00
C238   C     0.77391   0.59855   0.76251   0.00000  Uiso   1.00
C239   C     0.70336   0.50623   0.73164   0.00000  Uiso   1.00
C240   C     0.82000   0.83141   0.76427   0.00000  Uiso   1.00
C241   C     0.75611   0.84551   0.81799   0.00000  Uiso   1.00
C242   C     0.69229   0.89919   0.79105   0.00000  Uiso   1.00
C243   C     0.57454   0.98087   0.77671   0.00000  Uiso   1.00
C244   C     0.89604   0.84528   0.63779   0.00000  Uiso   1.00
C245   C     0.01729   0.86068   0.64942   0.00000  Uiso   1.00
C246   C     0.11936   0.90688   0.59131   0.00000  Uiso   1.00
C247   C     0.22143   0.91360   0.61384   0.00000  Uiso   1.00
C248   C     0.85053   0.75748   0.67577   0.00000  Uiso   1.00
C249   C     0.81237   0.71692   0.63980   0.00000  Uiso   1.00
C250   C     0.77403   0.63676   0.68451   0.00000  Uiso   1.00
C251   C     0.82013   0.86956   0.68640   0.00000  Uiso   1.00
C252   C     0.75639   0.92322   0.65938   0.00000  Uiso   1.00
C253   C     0.69242   0.93740   0.71305   0.00000  Uiso   1.00
H254   H     0.89569   0.74536   0.84176   0.00000  Uiso   1.00
H255   H     0.11896   0.79965   0.81017   0.00000  Uiso   1.00
H256   H     0.81200   0.60972   0.85866   0.00000  Uiso   1.00
H257   H     0.75603   0.81599   0.87824   0.00000  Uiso   1.00
H258   H     0.36655   0.87665   0.74081   0.00000  Uiso   1.00
H259   H     0.71928   0.47617   0.84305   0.00000  Uiso   1.00
H260   H     0.60125   0.91111   0.88435   0.00000  Uiso   1.00
H261   H     0.89614   0.87498   0.57717   0.00000  Uiso   1.00
H262   H     0.11944   0.93640   0.53106   0.00000  Uiso   1.00
H263   H     0.81248   0.74646   0.57955   0.00000  Uiso   1.00
H264   H     0.75651   0.95272   0.59913   0.00000  Uiso   1.00
H265   H     0.36694   0.98763   0.51427   0.00000  Uiso   1.00
H266   H     0.71967   0.58715   0.61652   0.00000  Uiso   1.00
H267   H     0.60164   0.02209   0.65781   0.00000  Uiso   1.00
O268   O     0.51363   0.97018   0.60198   0.00000  Uiso   1.00
O269   O     0.66442   0.44477   0.73613   0.00000  Uiso   1.00
O270   O     0.50957   0.01540   0.79030   0.00000  Uiso   1.00
N271   N     0.33599   0.89435   0.69382   0.00000  Uiso   1.00
N272   N     0.73086   0.51993   0.78941   0.00000  Uiso   1.00
N273   N     0.62048   0.92655   0.82802   0.00000  Uiso   1.00
N274   N     0.33620   0.95407   0.57192   0.00000  Uiso   1.00
N275   N     0.73107   0.57964   0.66751   0.00000  Uiso   1.00
N276   N     0.62069   0.98626   0.70612   0.00000  Uiso   1.00
