data_job_04900
_audit_creation_date              2018-12-19
_audit_creation_method            'Materials Studio'
_symmetry_space_group_name_H-M    'P1'
_symmetry_Int_Tables_number       1
_symmetry_cell_setting            triclinic
loop_
_symmetry_equiv_pos_as_xyz
  x,y,z
_cell_length_a                    12.4162
_cell_length_b                    22.8019
_cell_length_c                    19.9197
_cell_angle_alpha                 90.0000
_cell_angle_beta                  90.0000
_cell_angle_gamma                 90.0000
loop_
_atom_site_label
_atom_site_type_symbol
_atom_site_fract_x
_atom_site_fract_y
_atom_site_fract_z
_atom_site_U_iso_or_equiv
_atom_site_adp_type
_atom_site_occupancy
C1     C     0.18558   0.90776   0.43229   0.00000  Uiso   1.00
C2     C     0.17254   0.94779   0.37150   0.00000  Uiso   1.00
C3     C     0.18910   0.00798   0.37082   0.00000  Uiso   1.00
C4     C     0.17294   0.03671   0.31019   0.00000  Uiso   1.00
C5     C     0.15745   0.10350   0.22461   0.00000  Uiso   1.00
C6     C     0.07798   0.87638   0.44081   0.00000  Uiso   1.00
C7     C     0.01506   0.87652   0.49840   0.00000  Uiso   1.00
C8     C     0.91932   0.84513   0.49611   0.00000  Uiso   1.00
C9     C     0.75707   0.80102   0.51815   0.00000  Uiso   1.00
C10    C     0.26634   0.86073   0.41162   0.00000  Uiso   1.00
C11    C     0.36179   0.84770   0.44467   0.00000  Uiso   1.00
C12    C     0.42462   0.80312   0.41782   0.00000  Uiso   1.00
C13    C     0.55483   0.73471   0.39452   0.00000  Uiso   1.00
C14    C     0.12742   0.85176   0.32585   0.00000  Uiso   1.00
C15    C     0.14094   0.91737   0.31369   0.00000  Uiso   1.00
C16    C     0.12476   0.94601   0.25305   0.00000  Uiso   1.00
C17    C     0.14130   0.00623   0.25227   0.00000  Uiso   1.00
C18    C     0.04639   0.84596   0.38300   0.00000  Uiso   1.00
C19    C     0.95072   0.81456   0.38063   0.00000  Uiso   1.00
C20    C     0.88767   0.81465   0.43820   0.00000  Uiso   1.00
C21    C     0.23476   0.83031   0.35380   0.00000  Uiso   1.00
C22    C     0.29745   0.78574   0.32690   0.00000  Uiso   1.00
C23    C     0.39297   0.77265   0.35990   0.00000  Uiso   1.00
H24    H     0.21016   0.93145   0.47730   0.00000  Uiso   1.00
H25    H     0.21354   0.03151   0.41557   0.00000  Uiso   1.00
H26    H     0.03954   0.90006   0.54313   0.00000  Uiso   1.00
H27    H     0.38621   0.87125   0.48940   0.00000  Uiso   1.00
H28    H     0.20331   0.12903   0.32164   0.00000  Uiso   1.00
H29    H     0.83643   0.85186   0.59061   0.00000  Uiso   1.00
H30    H     0.56746   0.79111   0.47733   0.00000  Uiso   1.00
H31    H     0.10283   0.82807   0.28084   0.00000  Uiso   1.00
H32    H     0.10031   0.92246   0.20832   0.00000  Uiso   1.00
H33    H     0.92631   0.79102   0.33589   0.00000  Uiso   1.00
H34    H     0.27298   0.76221   0.28216   0.00000  Uiso   1.00
H35    H     0.11141   0.04053   0.15343   0.00000  Uiso   1.00
H36    H     0.74453   0.76335   0.42241   0.00000  Uiso   1.00
H37    H     0.47556   0.70260   0.30912   0.00000  Uiso   1.00
O38    O     0.15761   0.14874   0.19338   0.00000  Uiso   1.00
O39    O     0.67629   0.78510   0.54627   0.00000  Uiso   1.00
O40    O     0.63538   0.70539   0.39764   0.00000  Uiso   1.00
N41    N     0.18205   0.09525   0.29200   0.00000  Uiso   1.00
N42    N     0.83903   0.83612   0.54347   0.00000  Uiso   1.00
N43    N     0.52246   0.77930   0.43757   0.00000  Uiso   1.00
N44    N     0.13260   0.04762   0.20149   0.00000  Uiso   1.00
N45    N     0.78958   0.78849   0.45296   0.00000  Uiso   1.00
N46    N     0.47301   0.73168   0.34706   0.00000  Uiso   1.00
C47    C     0.64836   0.60826   0.55419   0.00000  Uiso   1.00
C48    C     0.65325   0.56250   0.60994   0.00000  Uiso   1.00
C49    C     0.62912   0.50338   0.60304   0.00000  Uiso   1.00
C50    C     0.63855   0.46872   0.66004   0.00000  Uiso   1.00
C51    C     0.64126   0.39406   0.73721   0.00000  Uiso   1.00
C52    C     0.76002   0.63598   0.55117   0.00000  Uiso   1.00
C53    C     0.82566   0.63865   0.49485   0.00000  Uiso   1.00
C54    C     0.92497   0.66585   0.50239   0.00000  Uiso   1.00
C55    C     0.09343   0.70531   0.48830   0.00000  Uiso   1.00
C56    C     0.57269   0.65617   0.57926   0.00000  Uiso   1.00
C57    C     0.48083   0.67583   0.54656   0.00000  Uiso   1.00
C58    C     0.42243   0.72004   0.57773   0.00000  Uiso   1.00
C59    C     0.30002   0.79084   0.60726   0.00000  Uiso   1.00
C60    C     0.70801   0.65184   0.66769   0.00000  Uiso   1.00
C61    C     0.68565   0.58617   0.67158   0.00000  Uiso   1.00
C62    C     0.69511   0.55159   0.72862   0.00000  Uiso   1.00
C63    C     0.67100   0.49243   0.72181   0.00000  Uiso   1.00
C64    C     0.79243   0.65965   0.61281   0.00000  Uiso   1.00
C65    C     0.89166   0.68686   0.62043   0.00000  Uiso   1.00
C66    C     0.95743   0.68957   0.56415   0.00000  Uiso   1.00
C67    C     0.60509   0.67984   0.64091   0.00000  Uiso   1.00
C68    C     0.54683   0.72404   0.67214   0.00000  Uiso   1.00
C69    C     0.45489   0.74376   0.63949   0.00000  Uiso   1.00
H70    H     0.62314   0.58983   0.50620   0.00000  Uiso   1.00
H71    H     0.60406   0.48507   0.55532   0.00000  Uiso   1.00
H72    H     0.80056   0.62033   0.44715   0.00000  Uiso   1.00
H73    H     0.45578   0.65750   0.49885   0.00000  Uiso   1.00
H74    H     0.59723   0.37936   0.63697   0.00000  Uiso   1.00
H75    H     0.01155   0.66457   0.40888   0.00000  Uiso   1.00
H76    H     0.28452   0.74295   0.51789   0.00000  Uiso   1.00
H77    H     0.73324   0.67027   0.71569   0.00000  Uiso   1.00
H78    H     0.72019   0.56993   0.77632   0.00000  Uiso   1.00
H79    H     0.91670   0.70518   0.66814   0.00000  Uiso   1.00
H80    H     0.57192   0.74235   0.71984   0.00000  Uiso   1.00
H81    H     0.69149   0.44823   0.81633   0.00000  Uiso   1.00
H82    H     0.10582   0.73344   0.58824   0.00000  Uiso   1.00
H83    H     0.37879   0.81182   0.69726   0.00000  Uiso   1.00
O84    O     0.63383   0.34633   0.76274   0.00000  Uiso   1.00
O85    O     0.17740   0.72052   0.46350   0.00000  Uiso   1.00
O86    O     0.22355   0.82335   0.60652   0.00000  Uiso   1.00
N87    N     0.62118   0.40935   0.67086   0.00000  Uiso   1.00
N88    N     0.00856   0.67599   0.45762   0.00000  Uiso   1.00
N89    N     0.32886   0.74928   0.55953   0.00000  Uiso   1.00
N90    N     0.67190   0.44640   0.76738   0.00000  Uiso   1.00
N91    N     0.05928   0.71305   0.55413   0.00000  Uiso   1.00
N92    N     0.37958   0.78634   0.65604   0.00000  Uiso   1.00
C93    C     0.81442   0.09224   0.93229   0.00000  Uiso   1.00
C94    C     0.82746   0.05221   0.87150   0.00000  Uiso   1.00
C95    C     0.81090   0.99202   0.87082   0.00000  Uiso   1.00
C96    C     0.82706   0.96329   0.81019   0.00000  Uiso   1.00
C97    C     0.84255   0.89650   0.72461   0.00000  Uiso   1.00
C98    C     0.92202   0.12362   0.94081   0.00000  Uiso   1.00
C99    C     0.98494   0.12348   0.99840   0.00000  Uiso   1.00
C100   C     0.08068   0.15487   0.99611   0.00000  Uiso   1.00
C101   C     0.24293   0.19898   0.01815   0.00000  Uiso   1.00
C102   C     0.73366   0.13927   0.91162   0.00000  Uiso   1.00
C103   C     0.63821   0.15230   0.94467   0.00000  Uiso   1.00
C104   C     0.57538   0.19688   0.91782   0.00000  Uiso   1.00
C105   C     0.44517   0.26529   0.89452   0.00000  Uiso   1.00
C106   C     0.87258   0.14824   0.82585   0.00000  Uiso   1.00
C107   C     0.85906   0.08263   0.81369   0.00000  Uiso   1.00
C108   C     0.87524   0.05399   0.75305   0.00000  Uiso   1.00
C109   C     0.85870   0.99377   0.75227   0.00000  Uiso   1.00
C110   C     0.95361   0.15404   0.88300   0.00000  Uiso   1.00
C111   C     0.04928   0.18544   0.88063   0.00000  Uiso   1.00
C112   C     0.11233   0.18535   0.93820   0.00000  Uiso   1.00
C113   C     0.76524   0.16969   0.85380   0.00000  Uiso   1.00
C114   C     0.70255   0.21426   0.82690   0.00000  Uiso   1.00
C115   C     0.60703   0.22735   0.85990   0.00000  Uiso   1.00
H116   H     0.78984   0.06855   0.97730   0.00000  Uiso   1.00
H117   H     0.78646   0.96849   0.91557   0.00000  Uiso   1.00
H118   H     0.96046   0.09994   0.04313   0.00000  Uiso   1.00
H119   H     0.61379   0.12875   0.98940   0.00000  Uiso   1.00
H120   H     0.79669   0.87097   0.82164   0.00000  Uiso   1.00
H121   H     0.16357   0.14814   0.09061   0.00000  Uiso   1.00
H122   H     0.43254   0.20889   0.97733   0.00000  Uiso   1.00
H123   H     0.89717   0.17193   0.78084   0.00000  Uiso   1.00
H124   H     0.89969   0.07754   0.70832   0.00000  Uiso   1.00
H125   H     0.07369   0.20898   0.83589   0.00000  Uiso   1.00
H126   H     0.72702   0.23779   0.78216   0.00000  Uiso   1.00
H127   H     0.88859   0.95947   0.65343   0.00000  Uiso   1.00
H128   H     0.25547   0.23665   0.92241   0.00000  Uiso   1.00
H129   H     0.52444   0.29740   0.80912   0.00000  Uiso   1.00
O130   O     0.84239   0.85126   0.69338   0.00000  Uiso   1.00
O131   O     0.32371   0.21490   0.04627   0.00000  Uiso   1.00
O132   O     0.36462   0.29461   0.89764   0.00000  Uiso   1.00
N133   N     0.81795   0.90475   0.79200   0.00000  Uiso   1.00
N134   N     0.16097   0.16388   0.04347   0.00000  Uiso   1.00
N135   N     0.47754   0.22070   0.93757   0.00000  Uiso   1.00
N136   N     0.86740   0.95238   0.70149   0.00000  Uiso   1.00
N137   N     0.21042   0.21151   0.95296   0.00000  Uiso   1.00
N138   N     0.52699   0.26832   0.84706   0.00000  Uiso   1.00
C139   C     0.35164   0.39174   0.05419   0.00000  Uiso   1.00
C140   C     0.34675   0.43750   0.10994   0.00000  Uiso   1.00
C141   C     0.37088   0.49662   0.10304   0.00000  Uiso   1.00
C142   C     0.36145   0.53128   0.16004   0.00000  Uiso   1.00
C143   C     0.35874   0.60594   0.23721   0.00000  Uiso   1.00
C144   C     0.23998   0.36402   0.05117   0.00000  Uiso   1.00
C145   C     0.17434   0.36135   0.99485   0.00000  Uiso   1.00
C146   C     0.07503   0.33415   0.00239   0.00000  Uiso   1.00
C147   C     0.90657   0.29469   0.98830   0.00000  Uiso   1.00
C148   C     0.42731   0.34383   0.07926   0.00000  Uiso   1.00
C149   C     0.51917   0.32417   0.04656   0.00000  Uiso   1.00
C150   C     0.57757   0.27996   0.07773   0.00000  Uiso   1.00
C151   C     0.69998   0.20916   0.10726   0.00000  Uiso   1.00
C152   C     0.29199   0.34816   0.16769   0.00000  Uiso   1.00
C153   C     0.31435   0.41383   0.17158   0.00000  Uiso   1.00
C154   C     0.30489   0.44841   0.22862   0.00000  Uiso   1.00
C155   C     0.32900   0.50757   0.22181   0.00000  Uiso   1.00
C156   C     0.20757   0.34035   0.11281   0.00000  Uiso   1.00
C157   C     0.10834   0.31314   0.12043   0.00000  Uiso   1.00
C158   C     0.04257   0.31043   0.06415   0.00000  Uiso   1.00
C159   C     0.39491   0.32016   0.14091   0.00000  Uiso   1.00
C160   C     0.45317   0.27596   0.17214   0.00000  Uiso   1.00
C161   C     0.54511   0.25624   0.13949   0.00000  Uiso   1.00
H162   H     0.37686   0.41017   0.00620   0.00000  Uiso   1.00
H163   H     0.39594   0.51493   0.05532   0.00000  Uiso   1.00
H164   H     0.19944   0.37967   0.94715   0.00000  Uiso   1.00
H165   H     0.54422   0.34250   0.99885   0.00000  Uiso   1.00
H166   H     0.40277   0.62064   0.13697   0.00000  Uiso   1.00
H167   H     0.98845   0.33543   0.90888   0.00000  Uiso   1.00
H168   H     0.71548   0.25705   0.01789   0.00000  Uiso   1.00
H169   H     0.26676   0.32973   0.21569   0.00000  Uiso   1.00
H170   H     0.27981   0.43007   0.27632   0.00000  Uiso   1.00
H171   H     0.08330   0.29482   0.16814   0.00000  Uiso   1.00
H172   H     0.42808   0.25765   0.21984   0.00000  Uiso   1.00
H173   H     0.30851   0.55177   0.31633   0.00000  Uiso   1.00
H174   H     0.89418   0.26656   0.08824   0.00000  Uiso   1.00
H175   H     0.62121   0.18818   0.19726   0.00000  Uiso   1.00
O176   O     0.36617   0.65367   0.26274   0.00000  Uiso   1.00
O177   O     0.82260   0.27948   0.96350   0.00000  Uiso   1.00
O178   O     0.77645   0.17665   0.10652   0.00000  Uiso   1.00
N179   N     0.37882   0.59065   0.17086   0.00000  Uiso   1.00
N180   N     0.99144   0.32401   0.95762   0.00000  Uiso   1.00
N181   N     0.67114   0.25072   0.05953   0.00000  Uiso   1.00
N182   N     0.32810   0.55360   0.26738   0.00000  Uiso   1.00
N183   N     0.94072   0.28695   0.05413   0.00000  Uiso   1.00
N184   N     0.62042   0.21366   0.15604   0.00000  Uiso   1.00
C185   C     0.81442   0.90776   0.06771   0.00000  Uiso   1.00
C186   C     0.82746   0.94779   0.12850   0.00000  Uiso   1.00
C187   C     0.81090   0.00798   0.12918   0.00000  Uiso   1.00
C188   C     0.82706   0.03671   0.18981   0.00000  Uiso   1.00
C189   C     0.84255   0.10350   0.27539   0.00000  Uiso   1.00
C190   C     0.92202   0.87638   0.05919   0.00000  Uiso   1.00
C191   C     0.98494   0.87652   0.00160   0.00000  Uiso   1.00
C192   C     0.08068   0.84513   0.00389   0.00000  Uiso   1.00
C193   C     0.24293   0.80102   0.98185   0.00000  Uiso   1.00
C194   C     0.73366   0.86073   0.08838   0.00000  Uiso   1.00
C195   C     0.63821   0.84770   0.05533   0.00000  Uiso   1.00
C196   C     0.57538   0.80312   0.08218   0.00000  Uiso   1.00
C197   C     0.44517   0.73471   0.10548   0.00000  Uiso   1.00
C198   C     0.87258   0.85176   0.17415   0.00000  Uiso   1.00
C199   C     0.85906   0.91737   0.18631   0.00000  Uiso   1.00
C200   C     0.87524   0.94601   0.24695   0.00000  Uiso   1.00
C201   C     0.85870   0.00623   0.24773   0.00000  Uiso   1.00
C202   C     0.95361   0.84596   0.11700   0.00000  Uiso   1.00
C203   C     0.04928   0.81456   0.11937   0.00000  Uiso   1.00
C204   C     0.11233   0.81465   0.06180   0.00000  Uiso   1.00
C205   C     0.76524   0.83031   0.14620   0.00000  Uiso   1.00
C206   C     0.70255   0.78574   0.17310   0.00000  Uiso   1.00
C207   C     0.60703   0.77265   0.14010   0.00000  Uiso   1.00
H208   H     0.78984   0.93145   0.02270   0.00000  Uiso   1.00
H209   H     0.78646   0.03151   0.08443   0.00000  Uiso   1.00
H210   H     0.96046   0.90006   0.95687   0.00000  Uiso   1.00
H211   H     0.61379   0.87125   0.01060   0.00000  Uiso   1.00
H212   H     0.79669   0.12903   0.17836   0.00000  Uiso   1.00
H213   H     0.16357   0.85186   0.90939   0.00000  Uiso   1.00
H214   H     0.43254   0.79111   0.02267   0.00000  Uiso   1.00
H215   H     0.89717   0.82807   0.21916   0.00000  Uiso   1.00
H216   H     0.89969   0.92246   0.29168   0.00000  Uiso   1.00
H217   H     0.07369   0.79102   0.16411   0.00000  Uiso   1.00
H218   H     0.72702   0.76221   0.21784   0.00000  Uiso   1.00
H219   H     0.88859   0.04053   0.34657   0.00000  Uiso   1.00
H220   H     0.25547   0.76335   0.07759   0.00000  Uiso   1.00
H221   H     0.52444   0.70260   0.19088   0.00000  Uiso   1.00
O222   O     0.84239   0.14874   0.30662   0.00000  Uiso   1.00
O223   O     0.32371   0.78510   0.95373   0.00000  Uiso   1.00
O224   O     0.36462   0.70539   0.10236   0.00000  Uiso   1.00
N225   N     0.81795   0.09525   0.20800   0.00000  Uiso   1.00
N226   N     0.16097   0.83612   0.95653   0.00000  Uiso   1.00
N227   N     0.47754   0.77930   0.06243   0.00000  Uiso   1.00
N228   N     0.86740   0.04762   0.29851   0.00000  Uiso   1.00
N229   N     0.21042   0.78849   0.04704   0.00000  Uiso   1.00
N230   N     0.52699   0.73168   0.15294   0.00000  Uiso   1.00
C231   C     0.35164   0.60826   0.94581   0.00000  Uiso   1.00
C232   C     0.34675   0.56250   0.89006   0.00000  Uiso   1.00
C233   C     0.37088   0.50338   0.89696   0.00000  Uiso   1.00
C234   C     0.36145   0.46872   0.83996   0.00000  Uiso   1.00
C235   C     0.35874   0.39406   0.76279   0.00000  Uiso   1.00
C236   C     0.23998   0.63598   0.94883   0.00000  Uiso   1.00
C237   C     0.17434   0.63865   0.00515   0.00000  Uiso   1.00
C238   C     0.07503   0.66585   0.99761   0.00000  Uiso   1.00
C239   C     0.90657   0.70531   0.01170   0.00000  Uiso   1.00
C240   C     0.42731   0.65617   0.92074   0.00000  Uiso   1.00
C241   C     0.51917   0.67583   0.95344   0.00000  Uiso   1.00
C242   C     0.57757   0.72004   0.92227   0.00000  Uiso   1.00
C243   C     0.69998   0.79084   0.89274   0.00000  Uiso   1.00
C244   C     0.29199   0.65184   0.83231   0.00000  Uiso   1.00
C245   C     0.31435   0.58617   0.82842   0.00000  Uiso   1.00
C246   C     0.30489   0.55159   0.77138   0.00000  Uiso   1.00
C247   C     0.32900   0.49243   0.77819   0.00000  Uiso   1.00
C248   C     0.20757   0.65965   0.88719   0.00000  Uiso   1.00
C249   C     0.10834   0.68686   0.87957   0.00000  Uiso   1.00
C250   C     0.04257   0.68957   0.93585   0.00000  Uiso   1.00
C251   C     0.39491   0.67984   0.85909   0.00000  Uiso   1.00
C252   C     0.45317   0.72404   0.82786   0.00000  Uiso   1.00
C253   C     0.54511   0.74376   0.86051   0.00000  Uiso   1.00
H254   H     0.37686   0.58983   0.99380   0.00000  Uiso   1.00
H255   H     0.39594   0.48507   0.94468   0.00000  Uiso   1.00
H256   H     0.19944   0.62033   0.05285   0.00000  Uiso   1.00
H257   H     0.54422   0.65750   0.00115   0.00000  Uiso   1.00
H258   H     0.40277   0.37936   0.86303   0.00000  Uiso   1.00
H259   H     0.98845   0.66457   0.09112   0.00000  Uiso   1.00
H260   H     0.71548   0.74295   0.98211   0.00000  Uiso   1.00
H261   H     0.26676   0.67027   0.78431   0.00000  Uiso   1.00
H262   H     0.27981   0.56993   0.72368   0.00000  Uiso   1.00
H263   H     0.08330   0.70518   0.83186   0.00000  Uiso   1.00
H264   H     0.42808   0.74235   0.78016   0.00000  Uiso   1.00
H265   H     0.30851   0.44823   0.68367   0.00000  Uiso   1.00
H266   H     0.89418   0.73344   0.91176   0.00000  Uiso   1.00
H267   H     0.62121   0.81182   0.80274   0.00000  Uiso   1.00
O268   O     0.36617   0.34633   0.73726   0.00000  Uiso   1.00
O269   O     0.82260   0.72052   0.03650   0.00000  Uiso   1.00
O270   O     0.77645   0.82335   0.89348   0.00000  Uiso   1.00
N271   N     0.37882   0.40935   0.82914   0.00000  Uiso   1.00
N272   N     0.99144   0.67599   0.04238   0.00000  Uiso   1.00
N273   N     0.67114   0.74928   0.94047   0.00000  Uiso   1.00
N274   N     0.32810   0.44640   0.73262   0.00000  Uiso   1.00
N275   N     0.94072   0.71305   0.94587   0.00000  Uiso   1.00
N276   N     0.62042   0.78634   0.84396   0.00000  Uiso   1.00
C277   C     0.18558   0.09224   0.56771   0.00000  Uiso   1.00
C278   C     0.17254   0.05221   0.62850   0.00000  Uiso   1.00
C279   C     0.18910   0.99202   0.62918   0.00000  Uiso   1.00
C280   C     0.17294   0.96329   0.68981   0.00000  Uiso   1.00
C281   C     0.15745   0.89650   0.77539   0.00000  Uiso   1.00
C282   C     0.07798   0.12362   0.55919   0.00000  Uiso   1.00
C283   C     0.01506   0.12348   0.50160   0.00000  Uiso   1.00
C284   C     0.91932   0.15487   0.50389   0.00000  Uiso   1.00
C285   C     0.75707   0.19898   0.48185   0.00000  Uiso   1.00
C286   C     0.26634   0.13927   0.58838   0.00000  Uiso   1.00
C287   C     0.36179   0.15230   0.55533   0.00000  Uiso   1.00
C288   C     0.42462   0.19688   0.58218   0.00000  Uiso   1.00
C289   C     0.55483   0.26529   0.60548   0.00000  Uiso   1.00
C290   C     0.12742   0.14824   0.67415   0.00000  Uiso   1.00
C291   C     0.14094   0.08263   0.68631   0.00000  Uiso   1.00
C292   C     0.12476   0.05399   0.74695   0.00000  Uiso   1.00
C293   C     0.14130   0.99377   0.74773   0.00000  Uiso   1.00
C294   C     0.04639   0.15404   0.61700   0.00000  Uiso   1.00
C295   C     0.95072   0.18544   0.61937   0.00000  Uiso   1.00
C296   C     0.88767   0.18535   0.56180   0.00000  Uiso   1.00
C297   C     0.23476   0.16969   0.64620   0.00000  Uiso   1.00
C298   C     0.29745   0.21426   0.67310   0.00000  Uiso   1.00
C299   C     0.39297   0.22735   0.64010   0.00000  Uiso   1.00
H300   H     0.21016   0.06855   0.52270   0.00000  Uiso   1.00
H301   H     0.21354   0.96849   0.58443   0.00000  Uiso   1.00
H302   H     0.03954   0.09994   0.45687   0.00000  Uiso   1.00
H303   H     0.38621   0.12875   0.51060   0.00000  Uiso   1.00
H304   H     0.20331   0.87097   0.67836   0.00000  Uiso   1.00
H305   H     0.83643   0.14814   0.40939   0.00000  Uiso   1.00
H306   H     0.56746   0.20889   0.52267   0.00000  Uiso   1.00
H307   H     0.10283   0.17193   0.71916   0.00000  Uiso   1.00
H308   H     0.10031   0.07754   0.79168   0.00000  Uiso   1.00
H309   H     0.92631   0.20898   0.66411   0.00000  Uiso   1.00
H310   H     0.27298   0.23779   0.71784   0.00000  Uiso   1.00
H311   H     0.11141   0.95947   0.84657   0.00000  Uiso   1.00
H312   H     0.74453   0.23665   0.57759   0.00000  Uiso   1.00
H313   H     0.47556   0.29740   0.69088   0.00000  Uiso   1.00
O314   O     0.15761   0.85126   0.80662   0.00000  Uiso   1.00
O315   O     0.67629   0.21490   0.45373   0.00000  Uiso   1.00
O316   O     0.63538   0.29461   0.60236   0.00000  Uiso   1.00
N317   N     0.18205   0.90475   0.70800   0.00000  Uiso   1.00
N318   N     0.83903   0.16388   0.45653   0.00000  Uiso   1.00
N319   N     0.52246   0.22070   0.56243   0.00000  Uiso   1.00
N320   N     0.13260   0.95238   0.79851   0.00000  Uiso   1.00
N321   N     0.78958   0.21151   0.54704   0.00000  Uiso   1.00
N322   N     0.47301   0.26832   0.65294   0.00000  Uiso   1.00
C323   C     0.64836   0.39174   0.44581   0.00000  Uiso   1.00
C324   C     0.65325   0.43750   0.39006   0.00000  Uiso   1.00
C325   C     0.62912   0.49662   0.39696   0.00000  Uiso   1.00
C326   C     0.63855   0.53128   0.33996   0.00000  Uiso   1.00
C327   C     0.64126   0.60594   0.26279   0.00000  Uiso   1.00
C328   C     0.76002   0.36402   0.44883   0.00000  Uiso   1.00
C329   C     0.82566   0.36135   0.50515   0.00000  Uiso   1.00
C330   C     0.92497   0.33415   0.49761   0.00000  Uiso   1.00
C331   C     0.09343   0.29469   0.51170   0.00000  Uiso   1.00
C332   C     0.57269   0.34383   0.42074   0.00000  Uiso   1.00
C333   C     0.48083   0.32417   0.45344   0.00000  Uiso   1.00
C334   C     0.42243   0.27996   0.42227   0.00000  Uiso   1.00
C335   C     0.30002   0.20916   0.39274   0.00000  Uiso   1.00
C336   C     0.70801   0.34816   0.33231   0.00000  Uiso   1.00
C337   C     0.68565   0.41383   0.32842   0.00000  Uiso   1.00
C338   C     0.69511   0.44841   0.27138   0.00000  Uiso   1.00
C339   C     0.67100   0.50757   0.27819   0.00000  Uiso   1.00
C340   C     0.79243   0.34035   0.38719   0.00000  Uiso   1.00
C341   C     0.89166   0.31314   0.37957   0.00000  Uiso   1.00
C342   C     0.95743   0.31043   0.43585   0.00000  Uiso   1.00
C343   C     0.60509   0.32016   0.35909   0.00000  Uiso   1.00
C344   C     0.54683   0.27596   0.32786   0.00000  Uiso   1.00
C345   C     0.45489   0.25624   0.36051   0.00000  Uiso   1.00
H346   H     0.62314   0.41017   0.49380   0.00000  Uiso   1.00
H347   H     0.60406   0.51493   0.44468   0.00000  Uiso   1.00
H348   H     0.80056   0.37967   0.55285   0.00000  Uiso   1.00
H349   H     0.45578   0.34250   0.50115   0.00000  Uiso   1.00
H350   H     0.59723   0.62064   0.36303   0.00000  Uiso   1.00
H351   H     0.01155   0.33543   0.59112   0.00000  Uiso   1.00
H352   H     0.28452   0.25705   0.48211   0.00000  Uiso   1.00
H353   H     0.73324   0.32973   0.28431   0.00000  Uiso   1.00
H354   H     0.72019   0.43007   0.22368   0.00000  Uiso   1.00
H355   H     0.91670   0.29482   0.33186   0.00000  Uiso   1.00
H356   H     0.57192   0.25765   0.28016   0.00000  Uiso   1.00
H357   H     0.69149   0.55177   0.18367   0.00000  Uiso   1.00
H358   H     0.10582   0.26656   0.41176   0.00000  Uiso   1.00
H359   H     0.37879   0.18818   0.30274   0.00000  Uiso   1.00
O360   O     0.63383   0.65367   0.23726   0.00000  Uiso   1.00
O361   O     0.17740   0.27948   0.53650   0.00000  Uiso   1.00
O362   O     0.22355   0.17665   0.39348   0.00000  Uiso   1.00
N363   N     0.62118   0.59065   0.32914   0.00000  Uiso   1.00
N364   N     0.00856   0.32401   0.54238   0.00000  Uiso   1.00
N365   N     0.32886   0.25072   0.44047   0.00000  Uiso   1.00
N366   N     0.67190   0.55360   0.23262   0.00000  Uiso   1.00
N367   N     0.05928   0.28695   0.44587   0.00000  Uiso   1.00
N368   N     0.37958   0.21366   0.34396   0.00000  Uiso   1.00
