data_job_01219
_audit_creation_date              2018-12-19
_audit_creation_method            'Materials Studio'
_symmetry_space_group_name_H-M    'P1'
_symmetry_Int_Tables_number       1
_symmetry_cell_setting            triclinic
loop_
_symmetry_equiv_pos_as_xyz
  x,y,z
_cell_length_a                    22.8987
_cell_length_b                    20.1105
_cell_length_c                    13.8321
_cell_angle_alpha                 90.0000
_cell_angle_beta                  90.0000
_cell_angle_gamma                 90.0000
loop_
_atom_site_label
_atom_site_type_symbol
_atom_site_fract_x
_atom_site_fract_y
_atom_site_fract_z
_atom_site_U_iso_or_equiv
_atom_site_adp_type
_atom_site_occupancy
C1     C     0.36566   0.69301   0.67178   0.00000  Uiso   1.00
C2     C     0.39196   0.67940   0.77111   0.00000  Uiso   1.00
C3     C     0.41855   0.62062   0.79983   0.00000  Uiso   1.00
C4     C     0.43984   0.61803   0.89374   0.00000  Uiso   1.00
C5     C     0.48142   0.58863   0.03844   0.00000  Uiso   1.00
C6     C     0.30233   0.71296   0.68970   0.00000  Uiso   1.00
C7     C     0.25358   0.68241   0.64995   0.00000  Uiso   1.00
C8     C     0.19942   0.70809   0.67532   0.00000  Uiso   1.00
C9     C     0.10187   0.73083   0.69356   0.00000  Uiso   1.00
C10    C     0.39618   0.75513   0.63382   0.00000  Uiso   1.00
C11    C     0.42633   0.76005   0.54707   0.00000  Uiso   1.00
C12    C     0.45117   0.82124   0.52537   0.00000  Uiso   1.00
C13    C     0.49934   0.90945   0.45686   0.00000  Uiso   1.00
C14    C     0.35617   0.79293   0.78749   0.00000  Uiso   1.00
C15    C     0.38680   0.73367   0.83396   0.00000  Uiso   1.00
C16    C     0.40805   0.73118   0.92786   0.00000  Uiso   1.00
C17    C     0.43467   0.67241   0.95670   0.00000  Uiso   1.00
C18    C     0.29718   0.76724   0.75255   0.00000  Uiso   1.00
C19    C     0.24308   0.79297   0.77798   0.00000  Uiso   1.00
C20    C     0.19425   0.76246   0.73828   0.00000  Uiso   1.00
C21    C     0.39103   0.80941   0.69667   0.00000  Uiso   1.00
C22    C     0.41583   0.87060   0.67510   0.00000  Uiso   1.00
C23    C     0.44601   0.87561   0.58834   0.00000  Uiso   1.00
H24    H     0.36967   0.65075   0.62284   0.00000  Uiso   1.00
H25    H     0.42253   0.57862   0.75117   0.00000  Uiso   1.00
H26    H     0.25759   0.64041   0.60131   0.00000  Uiso   1.00
H27    H     0.43031   0.71804   0.49845   0.00000  Uiso   1.00
H28    H     0.47884   0.52259   0.92117   0.00000  Uiso   1.00
H29    H     0.13104   0.65289   0.60515   0.00000  Uiso   1.00
H30    H     0.49527   0.81657   0.38825   0.00000  Uiso   1.00
H31    H     0.35215   0.83519   0.83643   0.00000  Uiso   1.00
H32    H     0.40405   0.77319   0.97648   0.00000  Uiso   1.00
H33    H     0.23910   0.83497   0.82661   0.00000  Uiso   1.00
H34    H     0.41183   0.91260   0.72375   0.00000  Uiso   1.00
H35    H     0.46384   0.68050   0.10404   0.00000  Uiso   1.00
H36    H     0.11604   0.81080   0.78802   0.00000  Uiso   1.00
H37    H     0.48027   0.97448   0.57112   0.00000  Uiso   1.00
O38    O     0.50578   0.55742   0.10089   0.00000  Uiso   1.00
O39    O     0.04949   0.72837   0.68627   0.00000  Uiso   1.00
O40    O     0.52734   0.94312   0.40171   0.00000  Uiso   1.00
N41    N     0.46820   0.56827   0.94499   0.00000  Uiso   1.00
N42    N     0.14303   0.69008   0.64954   0.00000  Uiso   1.00
N43    N     0.48353   0.84311   0.44674   0.00000  Uiso   1.00
N44    N     0.46013   0.65324   0.04339   0.00000  Uiso   1.00
N45    N     0.13496   0.77505   0.74794   0.00000  Uiso   1.00
N46    N     0.47546   0.92809   0.54514   0.00000  Uiso   1.00
C47    C     0.13434   0.80699   0.17178   0.00000  Uiso   1.00
C48    C     0.10804   0.82060   0.27111   0.00000  Uiso   1.00
C49    C     0.08145   0.87938   0.29983   0.00000  Uiso   1.00
C50    C     0.06016   0.88197   0.39374   0.00000  Uiso   1.00
C51    C     0.01858   0.91137   0.53844   0.00000  Uiso   1.00
C52    C     0.19767   0.78704   0.18970   0.00000  Uiso   1.00
C53    C     0.24642   0.81759   0.14995   0.00000  Uiso   1.00
C54    C     0.30058   0.79191   0.17532   0.00000  Uiso   1.00
C55    C     0.39813   0.76917   0.19356   0.00000  Uiso   1.00
C56    C     0.10382   0.74487   0.13382   0.00000  Uiso   1.00
C57    C     0.07367   0.73995   0.04707   0.00000  Uiso   1.00
C58    C     0.04883   0.67876   0.02537   0.00000  Uiso   1.00
C59    C     0.00066   0.59055   0.95686   0.00000  Uiso   1.00
C60    C     0.14383   0.70707   0.28749   0.00000  Uiso   1.00
C61    C     0.11320   0.76633   0.33396   0.00000  Uiso   1.00
C62    C     0.09195   0.76882   0.42786   0.00000  Uiso   1.00
C63    C     0.06533   0.82759   0.45670   0.00000  Uiso   1.00
C64    C     0.20282   0.73276   0.25255   0.00000  Uiso   1.00
C65    C     0.25692   0.70703   0.27798   0.00000  Uiso   1.00
C66    C     0.30575   0.73754   0.23828   0.00000  Uiso   1.00
C67    C     0.10897   0.69059   0.19667   0.00000  Uiso   1.00
C68    C     0.08417   0.62940   0.17510   0.00000  Uiso   1.00
C69    C     0.05399   0.62439   0.08834   0.00000  Uiso   1.00
H70    H     0.13033   0.84925   0.12284   0.00000  Uiso   1.00
H71    H     0.07747   0.92138   0.25117   0.00000  Uiso   1.00
H72    H     0.24241   0.85959   0.10131   0.00000  Uiso   1.00
H73    H     0.06969   0.78196   0.99845   0.00000  Uiso   1.00
H74    H     0.02116   0.97741   0.42117   0.00000  Uiso   1.00
H75    H     0.36896   0.84711   0.10515   0.00000  Uiso   1.00
H76    H     0.00473   0.68343   0.88825   0.00000  Uiso   1.00
H77    H     0.14785   0.66481   0.33643   0.00000  Uiso   1.00
H78    H     0.09595   0.72681   0.47648   0.00000  Uiso   1.00
H79    H     0.26090   0.66503   0.32661   0.00000  Uiso   1.00
H80    H     0.08817   0.58740   0.22375   0.00000  Uiso   1.00
H81    H     0.03616   0.81950   0.60404   0.00000  Uiso   1.00
H82    H     0.38396   0.68920   0.28802   0.00000  Uiso   1.00
H83    H     0.01973   0.52552   0.07112   0.00000  Uiso   1.00
O84    O     0.99422   0.94258   0.60089   0.00000  Uiso   1.00
O85    O     0.45051   0.77163   0.18627   0.00000  Uiso   1.00
O86    O     0.97266   0.55688   0.90171   0.00000  Uiso   1.00
N87    N     0.03180   0.93173   0.44499   0.00000  Uiso   1.00
N88    N     0.35697   0.80992   0.14954   0.00000  Uiso   1.00
N89    N     0.01647   0.65689   0.94674   0.00000  Uiso   1.00
N90    N     0.03987   0.84676   0.54339   0.00000  Uiso   1.00
N91    N     0.36504   0.72495   0.24794   0.00000  Uiso   1.00
N92    N     0.02454   0.57191   0.04514   0.00000  Uiso   1.00
C93    C     0.63434   0.69301   0.82822   0.00000  Uiso   1.00
C94    C     0.60804   0.67940   0.72889   0.00000  Uiso   1.00
C95    C     0.58145   0.62062   0.70017   0.00000  Uiso   1.00
C96    C     0.56016   0.61803   0.60626   0.00000  Uiso   1.00
C97    C     0.51858   0.58863   0.46156   0.00000  Uiso   1.00
C98    C     0.69767   0.71296   0.81030   0.00000  Uiso   1.00
C99    C     0.74642   0.68241   0.85005   0.00000  Uiso   1.00
C100   C     0.80058   0.70809   0.82468   0.00000  Uiso   1.00
C101   C     0.89813   0.73083   0.80644   0.00000  Uiso   1.00
C102   C     0.60382   0.75513   0.86618   0.00000  Uiso   1.00
C103   C     0.57367   0.76005   0.95293   0.00000  Uiso   1.00
C104   C     0.54883   0.82124   0.97463   0.00000  Uiso   1.00
C105   C     0.50066   0.90945   0.04314   0.00000  Uiso   1.00
C106   C     0.64383   0.79293   0.71251   0.00000  Uiso   1.00
C107   C     0.61320   0.73367   0.66604   0.00000  Uiso   1.00
C108   C     0.59195   0.73118   0.57214   0.00000  Uiso   1.00
C109   C     0.56533   0.67241   0.54330   0.00000  Uiso   1.00
C110   C     0.70282   0.76724   0.74745   0.00000  Uiso   1.00
C111   C     0.75692   0.79297   0.72202   0.00000  Uiso   1.00
C112   C     0.80575   0.76246   0.76172   0.00000  Uiso   1.00
C113   C     0.60897   0.80941   0.80333   0.00000  Uiso   1.00
C114   C     0.58417   0.87060   0.82490   0.00000  Uiso   1.00
C115   C     0.55399   0.87561   0.91166   0.00000  Uiso   1.00
H116   H     0.63033   0.65075   0.87716   0.00000  Uiso   1.00
H117   H     0.57747   0.57862   0.74883   0.00000  Uiso   1.00
H118   H     0.74241   0.64041   0.89869   0.00000  Uiso   1.00
H119   H     0.56969   0.71804   0.00155   0.00000  Uiso   1.00
H120   H     0.52116   0.52259   0.57883   0.00000  Uiso   1.00
H121   H     0.86896   0.65289   0.89485   0.00000  Uiso   1.00
H122   H     0.50473   0.81657   0.11175   0.00000  Uiso   1.00
H123   H     0.64785   0.83519   0.66357   0.00000  Uiso   1.00
H124   H     0.59595   0.77319   0.52352   0.00000  Uiso   1.00
H125   H     0.76090   0.83497   0.67339   0.00000  Uiso   1.00
H126   H     0.58817   0.91260   0.77625   0.00000  Uiso   1.00
H127   H     0.53616   0.68050   0.39596   0.00000  Uiso   1.00
H128   H     0.88396   0.81080   0.71198   0.00000  Uiso   1.00
H129   H     0.51973   0.97448   0.92888   0.00000  Uiso   1.00
O130   O     0.49422   0.55742   0.39911   0.00000  Uiso   1.00
O131   O     0.95051   0.72837   0.81373   0.00000  Uiso   1.00
O132   O     0.47266   0.94312   0.09829   0.00000  Uiso   1.00
N133   N     0.53180   0.56827   0.55501   0.00000  Uiso   1.00
N134   N     0.85697   0.69008   0.85046   0.00000  Uiso   1.00
N135   N     0.51647   0.84311   0.05326   0.00000  Uiso   1.00
N136   N     0.53987   0.65324   0.45661   0.00000  Uiso   1.00
N137   N     0.86504   0.77505   0.75206   0.00000  Uiso   1.00
N138   N     0.52454   0.92809   0.95486   0.00000  Uiso   1.00
C139   C     0.86566   0.80699   0.32822   0.00000  Uiso   1.00
C140   C     0.89196   0.82060   0.22889   0.00000  Uiso   1.00
C141   C     0.91855   0.87938   0.20017   0.00000  Uiso   1.00
C142   C     0.93984   0.88197   0.10626   0.00000  Uiso   1.00
C143   C     0.98142   0.91137   0.96156   0.00000  Uiso   1.00
C144   C     0.80233   0.78704   0.31030   0.00000  Uiso   1.00
C145   C     0.75358   0.81759   0.35005   0.00000  Uiso   1.00
C146   C     0.69942   0.79191   0.32468   0.00000  Uiso   1.00
C147   C     0.60187   0.76917   0.30644   0.00000  Uiso   1.00
C148   C     0.89618   0.74487   0.36618   0.00000  Uiso   1.00
C149   C     0.92633   0.73995   0.45293   0.00000  Uiso   1.00
C150   C     0.95117   0.67876   0.47463   0.00000  Uiso   1.00
C151   C     0.99934   0.59055   0.54314   0.00000  Uiso   1.00
C152   C     0.85617   0.70707   0.21251   0.00000  Uiso   1.00
C153   C     0.88680   0.76633   0.16604   0.00000  Uiso   1.00
C154   C     0.90805   0.76882   0.07214   0.00000  Uiso   1.00
C155   C     0.93467   0.82759   0.04330   0.00000  Uiso   1.00
C156   C     0.79718   0.73276   0.24745   0.00000  Uiso   1.00
C157   C     0.74308   0.70703   0.22202   0.00000  Uiso   1.00
C158   C     0.69425   0.73754   0.26172   0.00000  Uiso   1.00
C159   C     0.89103   0.69059   0.30333   0.00000  Uiso   1.00
C160   C     0.91583   0.62940   0.32490   0.00000  Uiso   1.00
C161   C     0.94601   0.62439   0.41166   0.00000  Uiso   1.00
H162   H     0.86967   0.84925   0.37716   0.00000  Uiso   1.00
H163   H     0.92253   0.92138   0.24883   0.00000  Uiso   1.00
H164   H     0.75759   0.85959   0.39869   0.00000  Uiso   1.00
H165   H     0.93031   0.78196   0.50155   0.00000  Uiso   1.00
H166   H     0.97884   0.97741   0.07883   0.00000  Uiso   1.00
H167   H     0.63104   0.84711   0.39485   0.00000  Uiso   1.00
H168   H     0.99527   0.68343   0.61175   0.00000  Uiso   1.00
H169   H     0.85215   0.66481   0.16357   0.00000  Uiso   1.00
H170   H     0.90405   0.72681   0.02352   0.00000  Uiso   1.00
H171   H     0.73910   0.66503   0.17339   0.00000  Uiso   1.00
H172   H     0.91183   0.58740   0.27625   0.00000  Uiso   1.00
H173   H     0.96384   0.81950   0.89596   0.00000  Uiso   1.00
H174   H     0.61604   0.68920   0.21198   0.00000  Uiso   1.00
H175   H     0.98027   0.52552   0.42888   0.00000  Uiso   1.00
O176   O     0.00578   0.94258   0.89911   0.00000  Uiso   1.00
O177   O     0.54949   0.77163   0.31373   0.00000  Uiso   1.00
O178   O     0.02734   0.55688   0.59829   0.00000  Uiso   1.00
N179   N     0.96820   0.93173   0.05501   0.00000  Uiso   1.00
N180   N     0.64303   0.80992   0.35046   0.00000  Uiso   1.00
N181   N     0.98353   0.65689   0.55326   0.00000  Uiso   1.00
N182   N     0.96013   0.84676   0.95661   0.00000  Uiso   1.00
N183   N     0.63496   0.72495   0.25206   0.00000  Uiso   1.00
N184   N     0.97546   0.57191   0.45486   0.00000  Uiso   1.00
C185   C     0.63434   0.30699   0.32822   0.00000  Uiso   1.00
C186   C     0.60804   0.32060   0.22889   0.00000  Uiso   1.00
C187   C     0.58145   0.37938   0.20017   0.00000  Uiso   1.00
C188   C     0.56016   0.38197   0.10626   0.00000  Uiso   1.00
C189   C     0.51858   0.41137   0.96156   0.00000  Uiso   1.00
C190   C     0.69767   0.28704   0.31030   0.00000  Uiso   1.00
C191   C     0.74642   0.31759   0.35005   0.00000  Uiso   1.00
C192   C     0.80058   0.29191   0.32468   0.00000  Uiso   1.00
C193   C     0.89813   0.26917   0.30644   0.00000  Uiso   1.00
C194   C     0.60382   0.24487   0.36618   0.00000  Uiso   1.00
C195   C     0.57367   0.23995   0.45293   0.00000  Uiso   1.00
C196   C     0.54883   0.17876   0.47463   0.00000  Uiso   1.00
C197   C     0.50066   0.09055   0.54314   0.00000  Uiso   1.00
C198   C     0.64383   0.20707   0.21251   0.00000  Uiso   1.00
C199   C     0.61320   0.26633   0.16604   0.00000  Uiso   1.00
C200   C     0.59195   0.26882   0.07214   0.00000  Uiso   1.00
C201   C     0.56533   0.32759   0.04330   0.00000  Uiso   1.00
C202   C     0.70282   0.23276   0.24745   0.00000  Uiso   1.00
C203   C     0.75692   0.20703   0.22202   0.00000  Uiso   1.00
C204   C     0.80575   0.23754   0.26172   0.00000  Uiso   1.00
C205   C     0.60897   0.19059   0.30333   0.00000  Uiso   1.00
C206   C     0.58417   0.12940   0.32490   0.00000  Uiso   1.00
C207   C     0.55399   0.12439   0.41166   0.00000  Uiso   1.00
H208   H     0.63033   0.34925   0.37716   0.00000  Uiso   1.00
H209   H     0.57747   0.42138   0.24883   0.00000  Uiso   1.00
H210   H     0.74241   0.35959   0.39869   0.00000  Uiso   1.00
H211   H     0.56969   0.28196   0.50155   0.00000  Uiso   1.00
H212   H     0.52116   0.47741   0.07883   0.00000  Uiso   1.00
H213   H     0.86896   0.34711   0.39485   0.00000  Uiso   1.00
H214   H     0.50473   0.18343   0.61175   0.00000  Uiso   1.00
H215   H     0.64785   0.16481   0.16357   0.00000  Uiso   1.00
H216   H     0.59595   0.22681   0.02352   0.00000  Uiso   1.00
H217   H     0.76090   0.16503   0.17339   0.00000  Uiso   1.00
H218   H     0.58817   0.08740   0.27625   0.00000  Uiso   1.00
H219   H     0.53616   0.31950   0.89596   0.00000  Uiso   1.00
H220   H     0.88396   0.18920   0.21198   0.00000  Uiso   1.00
H221   H     0.51973   0.02552   0.42888   0.00000  Uiso   1.00
O222   O     0.49422   0.44258   0.89911   0.00000  Uiso   1.00
O223   O     0.95051   0.27163   0.31373   0.00000  Uiso   1.00
O224   O     0.47266   0.05688   0.59829   0.00000  Uiso   1.00
N225   N     0.53180   0.43173   0.05501   0.00000  Uiso   1.00
N226   N     0.85697   0.30992   0.35046   0.00000  Uiso   1.00
N227   N     0.51647   0.15689   0.55326   0.00000  Uiso   1.00
N228   N     0.53987   0.34676   0.95661   0.00000  Uiso   1.00
N229   N     0.86504   0.22495   0.25206   0.00000  Uiso   1.00
N230   N     0.52454   0.07191   0.45486   0.00000  Uiso   1.00
C231   C     0.86566   0.19301   0.82822   0.00000  Uiso   1.00
C232   C     0.89196   0.17940   0.72889   0.00000  Uiso   1.00
C233   C     0.91855   0.12062   0.70017   0.00000  Uiso   1.00
C234   C     0.93984   0.11803   0.60626   0.00000  Uiso   1.00
C235   C     0.98142   0.08863   0.46156   0.00000  Uiso   1.00
C236   C     0.80233   0.21296   0.81030   0.00000  Uiso   1.00
C237   C     0.75358   0.18241   0.85005   0.00000  Uiso   1.00
C238   C     0.69942   0.20809   0.82468   0.00000  Uiso   1.00
C239   C     0.60187   0.23083   0.80644   0.00000  Uiso   1.00
C240   C     0.89618   0.25513   0.86618   0.00000  Uiso   1.00
C241   C     0.92633   0.26005   0.95293   0.00000  Uiso   1.00
C242   C     0.95117   0.32124   0.97463   0.00000  Uiso   1.00
C243   C     0.99934   0.40945   0.04314   0.00000  Uiso   1.00
C244   C     0.85617   0.29293   0.71251   0.00000  Uiso   1.00
C245   C     0.88680   0.23367   0.66604   0.00000  Uiso   1.00
C246   C     0.90805   0.23118   0.57214   0.00000  Uiso   1.00
C247   C     0.93467   0.17241   0.54330   0.00000  Uiso   1.00
C248   C     0.79718   0.26724   0.74745   0.00000  Uiso   1.00
C249   C     0.74308   0.29297   0.72202   0.00000  Uiso   1.00
C250   C     0.69425   0.26246   0.76172   0.00000  Uiso   1.00
C251   C     0.89103   0.30941   0.80333   0.00000  Uiso   1.00
C252   C     0.91583   0.37060   0.82490   0.00000  Uiso   1.00
C253   C     0.94601   0.37561   0.91166   0.00000  Uiso   1.00
H254   H     0.86967   0.15075   0.87716   0.00000  Uiso   1.00
H255   H     0.92253   0.07862   0.74883   0.00000  Uiso   1.00
H256   H     0.75759   0.14041   0.89869   0.00000  Uiso   1.00
H257   H     0.93031   0.21804   0.00155   0.00000  Uiso   1.00
H258   H     0.97884   0.02259   0.57883   0.00000  Uiso   1.00
H259   H     0.63104   0.15289   0.89485   0.00000  Uiso   1.00
H260   H     0.99527   0.31657   0.11175   0.00000  Uiso   1.00
H261   H     0.85215   0.33519   0.66357   0.00000  Uiso   1.00
H262   H     0.90405   0.27319   0.52352   0.00000  Uiso   1.00
H263   H     0.73910   0.33497   0.67339   0.00000  Uiso   1.00
H264   H     0.91183   0.41260   0.77625   0.00000  Uiso   1.00
H265   H     0.96384   0.18050   0.39596   0.00000  Uiso   1.00
H266   H     0.61604   0.31080   0.71198   0.00000  Uiso   1.00
H267   H     0.98027   0.47448   0.92888   0.00000  Uiso   1.00
O268   O     0.00578   0.05742   0.39911   0.00000  Uiso   1.00
O269   O     0.54949   0.22837   0.81373   0.00000  Uiso   1.00
O270   O     0.02734   0.44312   0.09829   0.00000  Uiso   1.00
N271   N     0.96820   0.06827   0.55501   0.00000  Uiso   1.00
N272   N     0.64303   0.19008   0.85046   0.00000  Uiso   1.00
N273   N     0.98353   0.34311   0.05326   0.00000  Uiso   1.00
N274   N     0.96013   0.15324   0.45661   0.00000  Uiso   1.00
N275   N     0.63496   0.27505   0.75206   0.00000  Uiso   1.00
N276   N     0.97546   0.42809   0.95486   0.00000  Uiso   1.00
C277   C     0.36566   0.30699   0.17178   0.00000  Uiso   1.00
C278   C     0.39196   0.32060   0.27111   0.00000  Uiso   1.00
C279   C     0.41855   0.37938   0.29983   0.00000  Uiso   1.00
C280   C     0.43984   0.38197   0.39374   0.00000  Uiso   1.00
C281   C     0.48142   0.41137   0.53844   0.00000  Uiso   1.00
C282   C     0.30233   0.28704   0.18970   0.00000  Uiso   1.00
C283   C     0.25358   0.31759   0.14995   0.00000  Uiso   1.00
C284   C     0.19942   0.29191   0.17532   0.00000  Uiso   1.00
C285   C     0.10187   0.26917   0.19356   0.00000  Uiso   1.00
C286   C     0.39618   0.24487   0.13382   0.00000  Uiso   1.00
C287   C     0.42633   0.23995   0.04707   0.00000  Uiso   1.00
C288   C     0.45117   0.17876   0.02537   0.00000  Uiso   1.00
C289   C     0.49934   0.09055   0.95686   0.00000  Uiso   1.00
C290   C     0.35617   0.20707   0.28749   0.00000  Uiso   1.00
C291   C     0.38680   0.26633   0.33396   0.00000  Uiso   1.00
C292   C     0.40805   0.26882   0.42786   0.00000  Uiso   1.00
C293   C     0.43467   0.32759   0.45670   0.00000  Uiso   1.00
C294   C     0.29718   0.23276   0.25255   0.00000  Uiso   1.00
C295   C     0.24308   0.20703   0.27798   0.00000  Uiso   1.00
C296   C     0.19425   0.23754   0.23828   0.00000  Uiso   1.00
C297   C     0.39103   0.19059   0.19667   0.00000  Uiso   1.00
C298   C     0.41583   0.12940   0.17510   0.00000  Uiso   1.00
C299   C     0.44601   0.12439   0.08834   0.00000  Uiso   1.00
H300   H     0.36967   0.34925   0.12284   0.00000  Uiso   1.00
H301   H     0.42253   0.42138   0.25117   0.00000  Uiso   1.00
H302   H     0.25759   0.35959   0.10131   0.00000  Uiso   1.00
H303   H     0.43031   0.28196   0.99845   0.00000  Uiso   1.00
H304   H     0.47884   0.47741   0.42117   0.00000  Uiso   1.00
H305   H     0.13104   0.34711   0.10515   0.00000  Uiso   1.00
H306   H     0.49527   0.18343   0.88825   0.00000  Uiso   1.00
H307   H     0.35215   0.16481   0.33643   0.00000  Uiso   1.00
H308   H     0.40405   0.22681   0.47648   0.00000  Uiso   1.00
H309   H     0.23910   0.16503   0.32661   0.00000  Uiso   1.00
H310   H     0.41183   0.08740   0.22375   0.00000  Uiso   1.00
H311   H     0.46384   0.31950   0.60404   0.00000  Uiso   1.00
H312   H     0.11604   0.18920   0.28802   0.00000  Uiso   1.00
H313   H     0.48027   0.02552   0.07112   0.00000  Uiso   1.00
O314   O     0.50578   0.44258   0.60089   0.00000  Uiso   1.00
O315   O     0.04949   0.27163   0.18627   0.00000  Uiso   1.00
O316   O     0.52734   0.05688   0.90171   0.00000  Uiso   1.00
N317   N     0.46820   0.43173   0.44499   0.00000  Uiso   1.00
N318   N     0.14303   0.30992   0.14954   0.00000  Uiso   1.00
N319   N     0.48353   0.15689   0.94674   0.00000  Uiso   1.00
N320   N     0.46013   0.34676   0.54339   0.00000  Uiso   1.00
N321   N     0.13496   0.22495   0.24794   0.00000  Uiso   1.00
N322   N     0.47546   0.07191   0.04514   0.00000  Uiso   1.00
C323   C     0.13434   0.19301   0.67178   0.00000  Uiso   1.00
C324   C     0.10804   0.17940   0.77111   0.00000  Uiso   1.00
C325   C     0.08145   0.12062   0.79983   0.00000  Uiso   1.00
C326   C     0.06016   0.11803   0.89374   0.00000  Uiso   1.00
C327   C     0.01858   0.08863   0.03844   0.00000  Uiso   1.00
C328   C     0.19767   0.21296   0.68970   0.00000  Uiso   1.00
C329   C     0.24642   0.18241   0.64995   0.00000  Uiso   1.00
C330   C     0.30058   0.20809   0.67532   0.00000  Uiso   1.00
C331   C     0.39813   0.23083   0.69356   0.00000  Uiso   1.00
C332   C     0.10382   0.25513   0.63382   0.00000  Uiso   1.00
C333   C     0.07367   0.26005   0.54707   0.00000  Uiso   1.00
C334   C     0.04883   0.32124   0.52537   0.00000  Uiso   1.00
C335   C     0.00066   0.40945   0.45686   0.00000  Uiso   1.00
C336   C     0.14383   0.29293   0.78749   0.00000  Uiso   1.00
C337   C     0.11320   0.23367   0.83396   0.00000  Uiso   1.00
C338   C     0.09195   0.23118   0.92786   0.00000  Uiso   1.00
C339   C     0.06533   0.17241   0.95670   0.00000  Uiso   1.00
C340   C     0.20282   0.26724   0.75255   0.00000  Uiso   1.00
C341   C     0.25692   0.29297   0.77798   0.00000  Uiso   1.00
C342   C     0.30575   0.26246   0.73828   0.00000  Uiso   1.00
C343   C     0.10897   0.30941   0.69667   0.00000  Uiso   1.00
C344   C     0.08417   0.37060   0.67510   0.00000  Uiso   1.00
C345   C     0.05399   0.37561   0.58834   0.00000  Uiso   1.00
H346   H     0.13033   0.15075   0.62284   0.00000  Uiso   1.00
H347   H     0.07747   0.07862   0.75117   0.00000  Uiso   1.00
H348   H     0.24241   0.14041   0.60131   0.00000  Uiso   1.00
H349   H     0.06969   0.21804   0.49845   0.00000  Uiso   1.00
H350   H     0.02116   0.02259   0.92117   0.00000  Uiso   1.00
H351   H     0.36896   0.15289   0.60515   0.00000  Uiso   1.00
H352   H     0.00473   0.31657   0.38825   0.00000  Uiso   1.00
H353   H     0.14785   0.33519   0.83643   0.00000  Uiso   1.00
H354   H     0.09595   0.27319   0.97648   0.00000  Uiso   1.00
H355   H     0.26090   0.33497   0.82661   0.00000  Uiso   1.00
H356   H     0.08817   0.41260   0.72375   0.00000  Uiso   1.00
H357   H     0.03616   0.18050   0.10404   0.00000  Uiso   1.00
H358   H     0.38396   0.31080   0.78802   0.00000  Uiso   1.00
H359   H     0.01973   0.47448   0.57112   0.00000  Uiso   1.00
O360   O     0.99422   0.05742   0.10089   0.00000  Uiso   1.00
O361   O     0.45051   0.22837   0.68627   0.00000  Uiso   1.00
O362   O     0.97266   0.44312   0.40171   0.00000  Uiso   1.00
N363   N     0.03180   0.06827   0.94499   0.00000  Uiso   1.00
N364   N     0.35697   0.19008   0.64954   0.00000  Uiso   1.00
N365   N     0.01647   0.34311   0.44674   0.00000  Uiso   1.00
N366   N     0.03987   0.15324   0.04339   0.00000  Uiso   1.00
N367   N     0.36504   0.27505   0.74794   0.00000  Uiso   1.00
N368   N     0.02454   0.42809   0.54514   0.00000  Uiso   1.00
