data_job_06071
_audit_creation_date              2018-12-19
_audit_creation_method            'Materials Studio'
_symmetry_space_group_name_H-M    'P1'
_symmetry_Int_Tables_number       1
_symmetry_cell_setting            triclinic
loop_
_symmetry_equiv_pos_as_xyz
  x,y,z
_cell_length_a                    12.6116
_cell_length_b                    18.7328
_cell_length_c                    19.4493
_cell_angle_alpha                 115.5710
_cell_angle_beta                  75.6718
_cell_angle_gamma                 82.1047
loop_
_atom_site_label
_atom_site_type_symbol
_atom_site_fract_x
_atom_site_fract_y
_atom_site_fract_z
_atom_site_U_iso_or_equiv
_atom_site_adp_type
_atom_site_occupancy
C1     C     0.60752   0.57152   0.81593   0.00000  Uiso   1.00
C2     C     0.69566   0.61972   0.81617   0.00000  Uiso   1.00
C3     C     0.71356   0.67559   0.88451   0.00000  Uiso   1.00
C4     C     0.79828   0.71331   0.87194   0.00000  Uiso   1.00
C5     C     0.92529   0.79086   0.88420   0.00000  Uiso   1.00
C6     C     0.53449   0.59186   0.77143   0.00000  Uiso   1.00
C7     C     0.41690   0.62430   0.80216   0.00000  Uiso   1.00
C8     C     0.36595   0.63855   0.75192   0.00000  Uiso   1.00
C9     C     0.24274   0.67279   0.69470   0.00000  Uiso   1.00
C10    C     0.67369   0.48078   0.76161   0.00000  Uiso   1.00
C11    C     0.67312   0.41983   0.78407   0.00000  Uiso   1.00
C12    C     0.73935   0.34055   0.72555   0.00000  Uiso   1.00
C13    C     0.83227   0.20234   0.65309   0.00000  Uiso   1.00
C14    C     0.72613   0.53913   0.67208   0.00000  Uiso   1.00
C15    C     0.76007   0.60213   0.73804   0.00000  Uiso   1.00
C16    C     0.84479   0.63976   0.72535   0.00000  Uiso   1.00
C17    C     0.86282   0.69568   0.79367   0.00000  Uiso   1.00
C18    C     0.59891   0.57427   0.69330   0.00000  Uiso   1.00
C19    C     0.54812   0.58847   0.64300   0.00000  Uiso   1.00
C20    C     0.43049   0.62093   0.67364   0.00000  Uiso   1.00
C21    C     0.73812   0.46319   0.68348   0.00000  Uiso   1.00
C22    C     0.80435   0.38400   0.62491   0.00000  Uiso   1.00
C23    C     0.80388   0.32293   0.64727   0.00000  Uiso   1.00
H24    H     0.55736   0.58521   0.87676   0.00000  Uiso   1.00
H25    H     0.66368   0.68920   0.94497   0.00000  Uiso   1.00
H26    H     0.36707   0.63790   0.86262   0.00000  Uiso   1.00
H27    H     0.62326   0.43346   0.84454   0.00000  Uiso   1.00
H28    H     0.80994   0.79675   0.98614   0.00000  Uiso   1.00
H29    H     0.18451   0.68856   0.81249   0.00000  Uiso   1.00
H30    H     0.72472   0.25746   0.77436   0.00000  Uiso   1.00
H31    H     0.77629   0.52543   0.61124   0.00000  Uiso   1.00
H32    H     0.89463   0.62614   0.66488   0.00000  Uiso   1.00
H33    H     0.59801   0.57484   0.58253   0.00000  Uiso   1.00
H34    H     0.85419   0.37041   0.56445   0.00000  Uiso   1.00
H35    H     0.99738   0.74557   0.75881   0.00000  Uiso   1.00
H36    H     0.37194   0.63738   0.58516   0.00000  Uiso   1.00
H37    H     0.91216   0.20628   0.54703   0.00000  Uiso   1.00
O38    O     0.97753   0.83851   0.91255   0.00000  Uiso   1.00
O39    O     0.15698   0.69655   0.68473   0.00000  Uiso   1.00
O40    O     0.86574   0.13096   0.63470   0.00000  Uiso   1.00
N41    N     0.83783   0.77087   0.92528   0.00000  Uiso   1.00
N42    N     0.25308   0.66973   0.76293   0.00000  Uiso   1.00
N43    N     0.75812   0.26669   0.72727   0.00000  Uiso   1.00
N44    N     0.93869   0.74333   0.80295   0.00000  Uiso   1.00
N45    N     0.35395   0.64219   0.64060   0.00000  Uiso   1.00
N46    N     0.85898   0.23915   0.60495   0.00000  Uiso   1.00
C47    C     0.42789   0.18413   0.75481   0.00000  Uiso   1.00
C48    C     0.51330   0.18768   0.79884   0.00000  Uiso   1.00
C49    C     0.59516   0.12063   0.78478   0.00000  Uiso   1.00
C50    C     0.66518   0.13675   0.83144   0.00000  Uiso   1.00
C51    C     0.79953   0.13004   0.89093   0.00000  Uiso   1.00
C52    C     0.31032   0.22461   0.82061   0.00000  Uiso   1.00
C53    C     0.22150   0.18861   0.82485   0.00000  Uiso   1.00
C54    C     0.12064   0.23582   0.88982   0.00000  Uiso   1.00
C55    C     0.93983   0.28648   0.98307   0.00000  Uiso   1.00
C56    C     0.44549   0.24142   0.71889   0.00000  Uiso   1.00
C57    C     0.47029   0.21957   0.63761   0.00000  Uiso   1.00
C58    C     0.48321   0.28095   0.61695   0.00000  Uiso   1.00
C59    C     0.51226   0.35770   0.55227   0.00000  Uiso   1.00
C60    C     0.40667   0.33200   0.86266   0.00000  Uiso   1.00
C61    C     0.50178   0.26800   0.85742   0.00000  Uiso   1.00
C62    C     0.57169   0.28423   0.90411   0.00000  Uiso   1.00
C63    C     0.65364   0.21721   0.89012   0.00000  Uiso   1.00
C64    C     0.29880   0.30493   0.87919   0.00000  Uiso   1.00
C65    C     0.19804   0.35221   0.94417   0.00000  Uiso   1.00
C66    C     0.10910   0.31629   0.94851   0.00000  Uiso   1.00
C67    C     0.43397   0.32175   0.77747   0.00000  Uiso   1.00
C68    C     0.44684   0.38317   0.75694   0.00000  Uiso   1.00
C69    C     0.47166   0.36141   0.67564   0.00000  Uiso   1.00
H70    H     0.43685   0.12160   0.70920   0.00000  Uiso   1.00
H71    H     0.60404   0.05848   0.73945   0.00000  Uiso   1.00
H72    H     0.23044   0.12646   0.77950   0.00000  Uiso   1.00
H73    H     0.47920   0.15741   0.59230   0.00000  Uiso   1.00
H74    H     0.78430   0.02391   0.79883   0.00000  Uiso   1.00
H75    H     0.99653   0.16726   0.88327   0.00000  Uiso   1.00
H76    H     0.52109   0.23253   0.48851   0.00000  Uiso   1.00
H77    H     0.39770   0.39454   0.90827   0.00000  Uiso   1.00
H78    H     0.56276   0.34639   0.94944   0.00000  Uiso   1.00
H79    H     0.18915   0.41437   0.98949   0.00000  Uiso   1.00
H80    H     0.43791   0.44532   0.80228   0.00000  Uiso   1.00
H81    H     0.75079   0.25759   0.96927   0.00000  Uiso   1.00
H82    H     0.96302   0.40094   0.05371   0.00000  Uiso   1.00
H83    H     0.48758   0.46621   0.65895   0.00000  Uiso   1.00
O84    O     0.87680   0.10415   0.90756   0.00000  Uiso   1.00
O85    O     0.84328   0.29222   0.01833   0.00000  Uiso   1.00
O86    O     0.53149   0.37785   0.50041   0.00000  Uiso   1.00
N87    N     0.75378   0.08552   0.83329   0.00000  Uiso   1.00
N88    N     0.01727   0.21953   0.91224   0.00000  Uiso   1.00
N89    N     0.50765   0.28056   0.54317   0.00000  Uiso   1.00
N90    N     0.73575   0.21126   0.92500   0.00000  Uiso   1.00
N91    N     0.99923   0.34527   0.00395   0.00000  Uiso   1.00
N92    N     0.48962   0.40630   0.63488   0.00000  Uiso   1.00
C93    C     0.18975   0.25044   0.43021   0.00000  Uiso   1.00
C94    C     0.31789   0.21085   0.38768   0.00000  Uiso   1.00
C95    C     0.38934   0.22893   0.33439   0.00000  Uiso   1.00
C96    C     0.50402   0.18596   0.30186   0.00000  Uiso   1.00
C97    C     0.69665   0.13342   0.23274   0.00000  Uiso   1.00
C98    C     0.13495   0.17972   0.40749   0.00000  Uiso   1.00
C99    C     0.05257   0.17163   0.37087   0.00000  Uiso   1.00
C100   C     0.01324   0.10246   0.35503   0.00000  Uiso   1.00
C101   C     0.92179   0.00162   0.31671   0.00000  Uiso   1.00
C102   C     0.16890   0.28641   0.52081   0.00000  Uiso   1.00
C103   C     0.11505   0.36803   0.57947   0.00000  Uiso   1.00
C104   C     0.10428   0.38868   0.65904   0.00000  Uiso   1.00
C105   C     0.06555   0.45350   0.79667   0.00000  Uiso   1.00
C106   C     0.26635   0.14197   0.46722   0.00000  Uiso   1.00
C107   C     0.35950   0.15193   0.40779   0.00000  Uiso   1.00
C108   C     0.47410   0.10892   0.37533   0.00000  Uiso   1.00
C109   C     0.54571   0.12694   0.32200   0.00000  Uiso   1.00
C110   C     0.17655   0.12080   0.42759   0.00000  Uiso   1.00
C111   C     0.13733   0.05163   0.41181   0.00000  Uiso   1.00
C112   C     0.05492   0.04344   0.37516   0.00000  Uiso   1.00
C113   C     0.21051   0.22750   0.54091   0.00000  Uiso   1.00
C114   C     0.19981   0.24802   0.62041   0.00000  Uiso   1.00
C115   C     0.14596   0.32966   0.67918   0.00000  Uiso   1.00
H116   H     0.15735   0.29630   0.41456   0.00000  Uiso   1.00
H117   H     0.35711   0.27453   0.31884   0.00000  Uiso   1.00
H118   H     0.02038   0.21724   0.35532   0.00000  Uiso   1.00
H119   H     0.08286   0.41361   0.56389   0.00000  Uiso   1.00
H120   H     0.59692   0.22438   0.22156   0.00000  Uiso   1.00
H121   H     0.88689   0.10360   0.29851   0.00000  Uiso   1.00
H122   H     0.01862   0.51768   0.73832   0.00000  Uiso   1.00
H123   H     0.29875   0.09610   0.48287   0.00000  Uiso   1.00
H124   H     0.50627   0.06333   0.39090   0.00000  Uiso   1.00
H125   H     0.16954   0.00605   0.42738   0.00000  Uiso   1.00
H126   H     0.23202   0.20241   0.63595   0.00000  Uiso   1.00
H127   H     0.71799   0.05296   0.28004   0.00000  Uiso   1.00
H128   H     0.00795   0.93219   0.35699   0.00000  Uiso   1.00
H129   H     0.13969   0.34627   0.79680   0.00000  Uiso   1.00
O130   O     0.79141   0.12071   0.18905   0.00000  Uiso   1.00
O131   O     0.85986   0.96227   0.29002   0.00000  Uiso   1.00
O132   O     0.03271   0.50553   0.86703   0.00000  Uiso   1.00
N133   N     0.59694   0.18854   0.24796   0.00000  Uiso   1.00
N134   N     0.93311   0.07562   0.31989   0.00000  Uiso   1.00
N135   N     0.05625   0.46274   0.73107   0.00000  Uiso   1.00
N136   N     0.66208   0.09631   0.27943   0.00000  Uiso   1.00
N137   N     0.99826   0.98338   0.35136   0.00000  Uiso   1.00
N138   N     0.12139   0.37051   0.76254   0.00000  Uiso   1.00
C139   C     0.39248   0.42848   0.18407   0.00000  Uiso   1.00
C140   C     0.30434   0.38028   0.18383   0.00000  Uiso   1.00
C141   C     0.28644   0.32441   0.11549   0.00000  Uiso   1.00
C142   C     0.20172   0.28669   0.12806   0.00000  Uiso   1.00
C143   C     0.07471   0.20914   0.11580   0.00000  Uiso   1.00
C144   C     0.46551   0.40814   0.22857   0.00000  Uiso   1.00
C145   C     0.58310   0.37570   0.19784   0.00000  Uiso   1.00
C146   C     0.63405   0.36145   0.24808   0.00000  Uiso   1.00
C147   C     0.75726   0.32721   0.30530   0.00000  Uiso   1.00
C148   C     0.32631   0.51922   0.23839   0.00000  Uiso   1.00
C149   C     0.32688   0.58017   0.21593   0.00000  Uiso   1.00
C150   C     0.26065   0.65945   0.27445   0.00000  Uiso   1.00
C151   C     0.16773   0.79766   0.34692   0.00000  Uiso   1.00
C152   C     0.27387   0.46087   0.32792   0.00000  Uiso   1.00
C153   C     0.23993   0.39787   0.26196   0.00000  Uiso   1.00
C154   C     0.15521   0.36024   0.27465   0.00000  Uiso   1.00
C155   C     0.13718   0.30432   0.20633   0.00000  Uiso   1.00
C156   C     0.40109   0.42573   0.30670   0.00000  Uiso   1.00
C157   C     0.45188   0.41153   0.35700   0.00000  Uiso   1.00
C158   C     0.56952   0.37907   0.32636   0.00000  Uiso   1.00
C159   C     0.26188   0.53681   0.31652   0.00000  Uiso   1.00
C160   C     0.19565   0.61600   0.37509   0.00000  Uiso   1.00
C161   C     0.19612   0.67707   0.35273   0.00000  Uiso   1.00
H162   H     0.44264   0.41479   0.12324   0.00000  Uiso   1.00
H163   H     0.33632   0.31080   0.05503   0.00000  Uiso   1.00
H164   H     0.63293   0.36210   0.13738   0.00000  Uiso   1.00
H165   H     0.37674   0.56654   0.15546   0.00000  Uiso   1.00
H166   H     0.19006   0.20325   0.01386   0.00000  Uiso   1.00
H167   H     0.81549   0.31144   0.18751   0.00000  Uiso   1.00
H168   H     0.27528   0.74254   0.22564   0.00000  Uiso   1.00
H169   H     0.22371   0.47457   0.38876   0.00000  Uiso   1.00
H170   H     0.10537   0.37386   0.33512   0.00000  Uiso   1.00
H171   H     0.40200   0.42516   0.41747   0.00000  Uiso   1.00
H172   H     0.14581   0.62959   0.43555   0.00000  Uiso   1.00
H173   H     0.00262   0.25443   0.24119   0.00000  Uiso   1.00
H174   H     0.62806   0.36262   0.41484   0.00000  Uiso   1.00
H175   H     0.08784   0.79372   0.45297   0.00000  Uiso   1.00
O176   O     0.02247   0.16149   0.08745   0.00000  Uiso   1.00
O177   O     0.84302   0.30345   0.31527   0.00000  Uiso   1.00
O178   O     0.13426   0.86904   0.36530   0.00000  Uiso   1.00
N179   N     0.16217   0.22913   0.07473   0.00000  Uiso   1.00
N180   N     0.74692   0.33027   0.23707   0.00000  Uiso   1.00
N181   N     0.24188   0.73331   0.27273   0.00000  Uiso   1.00
N182   N     0.06131   0.25667   0.19705   0.00000  Uiso   1.00
N183   N     0.64605   0.35781   0.35940   0.00000  Uiso   1.00
N184   N     0.14102   0.76085   0.39505   0.00000  Uiso   1.00
C185   C     0.57211   0.81587   0.24519   0.00000  Uiso   1.00
C186   C     0.48670   0.81232   0.20116   0.00000  Uiso   1.00
C187   C     0.40484   0.87937   0.21522   0.00000  Uiso   1.00
C188   C     0.33482   0.86325   0.16856   0.00000  Uiso   1.00
C189   C     0.20047   0.86996   0.10907   0.00000  Uiso   1.00
C190   C     0.68968   0.77539   0.17939   0.00000  Uiso   1.00
C191   C     0.77850   0.81139   0.17515   0.00000  Uiso   1.00
C192   C     0.87936   0.76418   0.11018   0.00000  Uiso   1.00
C193   C     0.06017   0.71352   0.01693   0.00000  Uiso   1.00
C194   C     0.55451   0.75858   0.28111   0.00000  Uiso   1.00
C195   C     0.52971   0.78043   0.36239   0.00000  Uiso   1.00
C196   C     0.51679   0.71905   0.38305   0.00000  Uiso   1.00
C197   C     0.48774   0.64230   0.44773   0.00000  Uiso   1.00
C198   C     0.59332   0.66800   0.13734   0.00000  Uiso   1.00
C199   C     0.49822   0.73200   0.14258   0.00000  Uiso   1.00
C200   C     0.42831   0.71577   0.09589   0.00000  Uiso   1.00
C201   C     0.34636   0.78279   0.10988   0.00000  Uiso   1.00
C202   C     0.70120   0.69507   0.12081   0.00000  Uiso   1.00
C203   C     0.80196   0.64779   0.05583   0.00000  Uiso   1.00
C204   C     0.89090   0.68371   0.05149   0.00000  Uiso   1.00
C205   C     0.56603   0.67825   0.22253   0.00000  Uiso   1.00
C206   C     0.55316   0.61683   0.24306   0.00000  Uiso   1.00
C207   C     0.52834   0.63859   0.32436   0.00000  Uiso   1.00
H208   H     0.56315   0.87840   0.29080   0.00000  Uiso   1.00
H209   H     0.39596   0.94152   0.26055   0.00000  Uiso   1.00
H210   H     0.76956   0.87354   0.22050   0.00000  Uiso   1.00
H211   H     0.52080   0.84259   0.40770   0.00000  Uiso   1.00
H212   H     0.21570   0.97609   0.20117   0.00000  Uiso   1.00
H213   H     0.00347   0.83274   0.11673   0.00000  Uiso   1.00
H214   H     0.47891   0.76747   0.51149   0.00000  Uiso   1.00
H215   H     0.60230   0.60546   0.09173   0.00000  Uiso   1.00
H216   H     0.43724   0.65361   0.05056   0.00000  Uiso   1.00
H217   H     0.81085   0.58563   0.01051   0.00000  Uiso   1.00
H218   H     0.56209   0.55468   0.19772   0.00000  Uiso   1.00
H219   H     0.24921   0.74241   0.03073   0.00000  Uiso   1.00
H220   H     0.03698   0.59906   0.94629   0.00000  Uiso   1.00
H221   H     0.51242   0.53379   0.34105   0.00000  Uiso   1.00
O222   O     0.12320   0.89585   0.09244   0.00000  Uiso   1.00
O223   O     0.15672   0.70778   0.98167   0.00000  Uiso   1.00
O224   O     0.46851   0.62215   0.49959   0.00000  Uiso   1.00
N225   N     0.24622   0.91448   0.16671   0.00000  Uiso   1.00
N226   N     0.98273   0.78047   0.08776   0.00000  Uiso   1.00
N227   N     0.49235   0.71944   0.45683   0.00000  Uiso   1.00
N228   N     0.26425   0.78874   0.07500   0.00000  Uiso   1.00
N229   N     0.00077   0.65473   0.99605   0.00000  Uiso   1.00
N230   N     0.51038   0.59370   0.36512   0.00000  Uiso   1.00
C231   C     0.81025   0.74956   0.56979   0.00000  Uiso   1.00
C232   C     0.68211   0.78915   0.61232   0.00000  Uiso   1.00
C233   C     0.61066   0.77107   0.66561   0.00000  Uiso   1.00
C234   C     0.49598   0.81404   0.69814   0.00000  Uiso   1.00
C235   C     0.30335   0.86658   0.76726   0.00000  Uiso   1.00
C236   C     0.86505   0.82028   0.59251   0.00000  Uiso   1.00
C237   C     0.94743   0.82837   0.62913   0.00000  Uiso   1.00
C238   C     0.98676   0.89754   0.64497   0.00000  Uiso   1.00
C239   C     0.07821   0.99838   0.68329   0.00000  Uiso   1.00
C240   C     0.83110   0.71359   0.47919   0.00000  Uiso   1.00
C241   C     0.88495   0.63197   0.42053   0.00000  Uiso   1.00
C242   C     0.89572   0.61132   0.34096   0.00000  Uiso   1.00
C243   C     0.93445   0.54650   0.20333   0.00000  Uiso   1.00
C244   C     0.73365   0.85803   0.53278   0.00000  Uiso   1.00
C245   C     0.64050   0.84807   0.59221   0.00000  Uiso   1.00
C246   C     0.52590   0.89108   0.62467   0.00000  Uiso   1.00
C247   C     0.45429   0.87306   0.67800   0.00000  Uiso   1.00
C248   C     0.82345   0.87920   0.57241   0.00000  Uiso   1.00
C249   C     0.86267   0.94837   0.58819   0.00000  Uiso   1.00
C250   C     0.94508   0.95656   0.62484   0.00000  Uiso   1.00
C251   C     0.78949   0.77250   0.45909   0.00000  Uiso   1.00
C252   C     0.80019   0.75198   0.37959   0.00000  Uiso   1.00
C253   C     0.85404   0.67034   0.32082   0.00000  Uiso   1.00
H254   H     0.84265   0.70370   0.58544   0.00000  Uiso   1.00
H255   H     0.64289   0.72547   0.68116   0.00000  Uiso   1.00
H256   H     0.97962   0.78276   0.64468   0.00000  Uiso   1.00
H257   H     0.91714   0.58639   0.43611   0.00000  Uiso   1.00
H258   H     0.40308   0.77562   0.77844   0.00000  Uiso   1.00
H259   H     0.11311   0.89640   0.70149   0.00000  Uiso   1.00
H260   H     0.98138   0.48232   0.26168   0.00000  Uiso   1.00
H261   H     0.70125   0.90390   0.51713   0.00000  Uiso   1.00
H262   H     0.49373   0.93667   0.60910   0.00000  Uiso   1.00
H263   H     0.83046   0.99395   0.57262   0.00000  Uiso   1.00
H264   H     0.76798   0.79759   0.36406   0.00000  Uiso   1.00
H265   H     0.28201   0.94704   0.71996   0.00000  Uiso   1.00
H266   H     0.99205   0.06781   0.64301   0.00000  Uiso   1.00
H267   H     0.86031   0.65373   0.20320   0.00000  Uiso   1.00
O268   O     0.20859   0.87929   0.81095   0.00000  Uiso   1.00
O269   O     0.14014   0.03773   0.70998   0.00000  Uiso   1.00
O270   O     0.96729   0.49447   0.13297   0.00000  Uiso   1.00
N271   N     0.40306   0.81146   0.75204   0.00000  Uiso   1.00
N272   N     0.06689   0.92438   0.68011   0.00000  Uiso   1.00
N273   N     0.94375   0.53726   0.26893   0.00000  Uiso   1.00
N274   N     0.33792   0.90369   0.72057   0.00000  Uiso   1.00
N275   N     0.00174   0.01662   0.64864   0.00000  Uiso   1.00
N276   N     0.87861   0.62949   0.23746   0.00000  Uiso   1.00
