data_job_05891
_audit_creation_date              2018-12-19
_audit_creation_method            'Materials Studio'
_symmetry_space_group_name_H-M    'P1'
_symmetry_Int_Tables_number       1
_symmetry_cell_setting            triclinic
loop_
_symmetry_equiv_pos_as_xyz
  x,y,z
_cell_length_a                    17.3175
_cell_length_b                    17.3175
_cell_length_c                    16.2823
_cell_angle_alpha                 90.0000
_cell_angle_beta                  90.0000
_cell_angle_gamma                 90.0000
loop_
_atom_site_label
_atom_site_type_symbol
_atom_site_fract_x
_atom_site_fract_y
_atom_site_fract_z
_atom_site_U_iso_or_equiv
_atom_site_adp_type
_atom_site_occupancy
C1     C     0.17278   0.89825   0.75316   0.00000  Uiso   1.00
C2     C     0.17694   0.88795   0.66026   0.00000  Uiso   1.00
C3     C     0.15597   0.94269   0.60215   0.00000  Uiso   1.00
C4     C     0.16404   0.92212   0.52018   0.00000  Uiso   1.00
C5     C     0.16620   0.91717   0.37941   0.00000  Uiso   1.00
C6     C     0.12275   0.83226   0.78499   0.00000  Uiso   1.00
C7     C     0.05622   0.84018   0.83176   0.00000  Uiso   1.00
C8     C     0.01869   0.77273   0.85480   0.00000  Uiso   1.00
C9     C     0.93674   0.68131   0.90773   0.00000  Uiso   1.00
C10    C     0.25403   0.88281   0.78530   0.00000  Uiso   1.00
C11    C     0.29788   0.93323   0.83236   0.00000  Uiso   1.00
C12    C     0.37087   0.90833   0.85569   0.00000  Uiso   1.00
C13    C     0.49276   0.89540   0.90910   0.00000  Uiso   1.00
C14    C     0.22442   0.76438   0.71093   0.00000  Uiso   1.00
C15    C     0.20499   0.81523   0.63732   0.00000  Uiso   1.00
C16    C     0.21310   0.79457   0.55542   0.00000  Uiso   1.00
C17    C     0.19215   0.84928   0.49720   0.00000  Uiso   1.00
C18    C     0.15080   0.75954   0.76205   0.00000  Uiso   1.00
C19    C     0.11336   0.69206   0.78503   0.00000  Uiso   1.00
C20    C     0.04679   0.69988   0.83182   0.00000  Uiso   1.00
C21    C     0.28208   0.81009   0.76236   0.00000  Uiso   1.00
C22    C     0.35502   0.78511   0.78563   0.00000  Uiso   1.00
C23    C     0.39897   0.83548   0.83271   0.00000  Uiso   1.00
H24    H     0.15094   0.95486   0.77103   0.00000  Uiso   1.00
H25    H     0.13426   0.99896   0.61993   0.00000  Uiso   1.00
H26    H     0.03454   0.89646   0.84951   0.00000  Uiso   1.00
H27    H     0.27616   0.98949   0.85010   0.00000  Uiso   1.00
H28    H     0.12810   0.01576   0.44228   0.00000  Uiso   1.00
H29    H     0.91785   0.79964   0.92640   0.00000  Uiso   1.00
H30    H     0.42736   0.99582   0.92766   0.00000  Uiso   1.00
H31    H     0.24626   0.70776   0.69307   0.00000  Uiso   1.00
H32    H     0.23481   0.73830   0.53769   0.00000  Uiso   1.00
H33    H     0.13508   0.63580   0.76727   0.00000  Uiso   1.00
H34    H     0.37670   0.72883   0.76787   0.00000  Uiso   1.00
H35    H     0.20971   0.80420   0.37554   0.00000  Uiso   1.00
H36    H     0.99945   0.58808   0.85966   0.00000  Uiso   1.00
H37    H     0.50896   0.78426   0.86091   0.00000  Uiso   1.00
O38    O     0.15963   0.93452   0.30810   0.00000  Uiso   1.00
O39    O     0.88379   0.65098   0.94325   0.00000  Uiso   1.00
O40    O     0.55225   0.90836   0.94490   0.00000  Uiso   1.00
N41    N     0.14890   0.96179   0.44790   0.00000  Uiso   1.00
N42    N     0.95231   0.75973   0.90051   0.00000  Uiso   1.00
N43    N     0.42865   0.94313   0.90170   0.00000  Uiso   1.00
N44    N     0.19281   0.84795   0.41198   0.00000  Uiso   1.00
N45    N     0.99622   0.64589   0.86459   0.00000  Uiso   1.00
N46    N     0.47256   0.82929   0.86578   0.00000  Uiso   1.00
C47    C     0.67278   0.39825   0.25316   0.00000  Uiso   1.00
C48    C     0.67694   0.38795   0.16026   0.00000  Uiso   1.00
C49    C     0.65597   0.44269   0.10215   0.00000  Uiso   1.00
C50    C     0.66404   0.42212   0.02018   0.00000  Uiso   1.00
C51    C     0.66620   0.41717   0.87941   0.00000  Uiso   1.00
C52    C     0.62275   0.33226   0.28499   0.00000  Uiso   1.00
C53    C     0.55622   0.34018   0.33176   0.00000  Uiso   1.00
C54    C     0.51869   0.27273   0.35480   0.00000  Uiso   1.00
C55    C     0.43674   0.18131   0.40773   0.00000  Uiso   1.00
C56    C     0.75403   0.38281   0.28530   0.00000  Uiso   1.00
C57    C     0.79788   0.43323   0.33236   0.00000  Uiso   1.00
C58    C     0.87087   0.40833   0.35569   0.00000  Uiso   1.00
C59    C     0.99276   0.39540   0.40910   0.00000  Uiso   1.00
C60    C     0.72442   0.26438   0.21093   0.00000  Uiso   1.00
C61    C     0.70499   0.31523   0.13732   0.00000  Uiso   1.00
C62    C     0.71310   0.29457   0.05542   0.00000  Uiso   1.00
C63    C     0.69215   0.34928   0.99720   0.00000  Uiso   1.00
C64    C     0.65080   0.25954   0.26205   0.00000  Uiso   1.00
C65    C     0.61336   0.19206   0.28503   0.00000  Uiso   1.00
C66    C     0.54679   0.19988   0.33182   0.00000  Uiso   1.00
C67    C     0.78208   0.31009   0.26236   0.00000  Uiso   1.00
C68    C     0.85502   0.28511   0.28563   0.00000  Uiso   1.00
C69    C     0.89897   0.33548   0.33271   0.00000  Uiso   1.00
H70    H     0.65094   0.45486   0.27103   0.00000  Uiso   1.00
H71    H     0.63426   0.49896   0.11993   0.00000  Uiso   1.00
H72    H     0.53454   0.39646   0.34951   0.00000  Uiso   1.00
H73    H     0.77616   0.48949   0.35010   0.00000  Uiso   1.00
H74    H     0.62810   0.51576   0.94228   0.00000  Uiso   1.00
H75    H     0.41785   0.29964   0.42640   0.00000  Uiso   1.00
H76    H     0.92736   0.49582   0.42766   0.00000  Uiso   1.00
H77    H     0.74626   0.20776   0.19307   0.00000  Uiso   1.00
H78    H     0.73481   0.23830   0.03769   0.00000  Uiso   1.00
H79    H     0.63508   0.13580   0.26727   0.00000  Uiso   1.00
H80    H     0.87670   0.22883   0.26787   0.00000  Uiso   1.00
H81    H     0.70971   0.30420   0.87554   0.00000  Uiso   1.00
H82    H     0.49945   0.08808   0.35966   0.00000  Uiso   1.00
H83    H     0.00896   0.28426   0.36091   0.00000  Uiso   1.00
O84    O     0.65963   0.43452   0.80810   0.00000  Uiso   1.00
O85    O     0.38379   0.15098   0.44325   0.00000  Uiso   1.00
O86    O     0.05225   0.40836   0.44490   0.00000  Uiso   1.00
N87    N     0.64890   0.46179   0.94790   0.00000  Uiso   1.00
N88    N     0.45231   0.25973   0.40051   0.00000  Uiso   1.00
N89    N     0.92865   0.44313   0.40170   0.00000  Uiso   1.00
N90    N     0.69281   0.34795   0.91198   0.00000  Uiso   1.00
N91    N     0.49622   0.14589   0.36459   0.00000  Uiso   1.00
N92    N     0.97256   0.32929   0.36578   0.00000  Uiso   1.00
C93    C     0.82722   0.10175   0.75316   0.00000  Uiso   1.00
C94    C     0.82306   0.11205   0.66026   0.00000  Uiso   1.00
C95    C     0.84403   0.05731   0.60215   0.00000  Uiso   1.00
C96    C     0.83596   0.07788   0.52018   0.00000  Uiso   1.00
C97    C     0.83380   0.08283   0.37941   0.00000  Uiso   1.00
C98    C     0.87725   0.16774   0.78499   0.00000  Uiso   1.00
C99    C     0.94378   0.15982   0.83176   0.00000  Uiso   1.00
C100   C     0.98131   0.22727   0.85480   0.00000  Uiso   1.00
C101   C     0.06326   0.31869   0.90773   0.00000  Uiso   1.00
C102   C     0.74597   0.11719   0.78530   0.00000  Uiso   1.00
C103   C     0.70212   0.06677   0.83236   0.00000  Uiso   1.00
C104   C     0.62913   0.09167   0.85569   0.00000  Uiso   1.00
C105   C     0.50724   0.10460   0.90910   0.00000  Uiso   1.00
C106   C     0.77558   0.23562   0.71093   0.00000  Uiso   1.00
C107   C     0.79501   0.18477   0.63732   0.00000  Uiso   1.00
C108   C     0.78690   0.20543   0.55542   0.00000  Uiso   1.00
C109   C     0.80785   0.15072   0.49720   0.00000  Uiso   1.00
C110   C     0.84920   0.24046   0.76205   0.00000  Uiso   1.00
C111   C     0.88664   0.30794   0.78503   0.00000  Uiso   1.00
C112   C     0.95321   0.30012   0.83182   0.00000  Uiso   1.00
C113   C     0.71792   0.18991   0.76236   0.00000  Uiso   1.00
C114   C     0.64498   0.21489   0.78563   0.00000  Uiso   1.00
C115   C     0.60103   0.16452   0.83271   0.00000  Uiso   1.00
H116   H     0.84906   0.04514   0.77103   0.00000  Uiso   1.00
H117   H     0.86574   0.00104   0.61993   0.00000  Uiso   1.00
H118   H     0.96546   0.10354   0.84951   0.00000  Uiso   1.00
H119   H     0.72384   0.01051   0.85010   0.00000  Uiso   1.00
H120   H     0.87190   0.98424   0.44228   0.00000  Uiso   1.00
H121   H     0.08215   0.20036   0.92640   0.00000  Uiso   1.00
H122   H     0.57264   0.00418   0.92766   0.00000  Uiso   1.00
H123   H     0.75374   0.29224   0.69307   0.00000  Uiso   1.00
H124   H     0.76519   0.26170   0.53769   0.00000  Uiso   1.00
H125   H     0.86492   0.36420   0.76727   0.00000  Uiso   1.00
H126   H     0.62330   0.27117   0.76787   0.00000  Uiso   1.00
H127   H     0.79029   0.19580   0.37554   0.00000  Uiso   1.00
H128   H     0.00055   0.41192   0.85966   0.00000  Uiso   1.00
H129   H     0.49104   0.21574   0.86091   0.00000  Uiso   1.00
O130   O     0.84037   0.06548   0.30810   0.00000  Uiso   1.00
O131   O     0.11621   0.34902   0.94325   0.00000  Uiso   1.00
O132   O     0.44775   0.09164   0.94490   0.00000  Uiso   1.00
N133   N     0.85110   0.03821   0.44790   0.00000  Uiso   1.00
N134   N     0.04769   0.24027   0.90051   0.00000  Uiso   1.00
N135   N     0.57135   0.05687   0.90170   0.00000  Uiso   1.00
N136   N     0.80719   0.15205   0.41198   0.00000  Uiso   1.00
N137   N     0.00378   0.35411   0.86459   0.00000  Uiso   1.00
N138   N     0.52744   0.17071   0.86578   0.00000  Uiso   1.00
C139   C     0.32722   0.60175   0.25316   0.00000  Uiso   1.00
C140   C     0.32306   0.61205   0.16026   0.00000  Uiso   1.00
C141   C     0.34403   0.55731   0.10215   0.00000  Uiso   1.00
C142   C     0.33596   0.57788   0.02018   0.00000  Uiso   1.00
C143   C     0.33380   0.58283   0.87941   0.00000  Uiso   1.00
C144   C     0.37725   0.66774   0.28499   0.00000  Uiso   1.00
C145   C     0.44378   0.65982   0.33176   0.00000  Uiso   1.00
C146   C     0.48131   0.72727   0.35480   0.00000  Uiso   1.00
C147   C     0.56326   0.81869   0.40773   0.00000  Uiso   1.00
C148   C     0.24597   0.61719   0.28530   0.00000  Uiso   1.00
C149   C     0.20212   0.56677   0.33236   0.00000  Uiso   1.00
C150   C     0.12913   0.59167   0.35569   0.00000  Uiso   1.00
C151   C     0.00724   0.60460   0.40910   0.00000  Uiso   1.00
C152   C     0.27558   0.73562   0.21093   0.00000  Uiso   1.00
C153   C     0.29501   0.68477   0.13732   0.00000  Uiso   1.00
C154   C     0.28690   0.70543   0.05542   0.00000  Uiso   1.00
C155   C     0.30785   0.65072   0.99720   0.00000  Uiso   1.00
C156   C     0.34920   0.74046   0.26205   0.00000  Uiso   1.00
C157   C     0.38664   0.80794   0.28503   0.00000  Uiso   1.00
C158   C     0.45321   0.80012   0.33182   0.00000  Uiso   1.00
C159   C     0.21792   0.68991   0.26236   0.00000  Uiso   1.00
C160   C     0.14498   0.71489   0.28563   0.00000  Uiso   1.00
C161   C     0.10103   0.66452   0.33271   0.00000  Uiso   1.00
H162   H     0.34906   0.54514   0.27103   0.00000  Uiso   1.00
H163   H     0.36574   0.50104   0.11993   0.00000  Uiso   1.00
H164   H     0.46546   0.60354   0.34951   0.00000  Uiso   1.00
H165   H     0.22384   0.51051   0.35010   0.00000  Uiso   1.00
H166   H     0.37190   0.48424   0.94228   0.00000  Uiso   1.00
H167   H     0.58215   0.70036   0.42640   0.00000  Uiso   1.00
H168   H     0.07264   0.50418   0.42766   0.00000  Uiso   1.00
H169   H     0.25374   0.79224   0.19307   0.00000  Uiso   1.00
H170   H     0.26519   0.76170   0.03769   0.00000  Uiso   1.00
H171   H     0.36492   0.86420   0.26727   0.00000  Uiso   1.00
H172   H     0.12330   0.77117   0.26787   0.00000  Uiso   1.00
H173   H     0.29029   0.69580   0.87554   0.00000  Uiso   1.00
H174   H     0.50055   0.91192   0.35966   0.00000  Uiso   1.00
H175   H     0.99104   0.71574   0.36091   0.00000  Uiso   1.00
O176   O     0.34037   0.56548   0.80810   0.00000  Uiso   1.00
O177   O     0.61621   0.84902   0.44325   0.00000  Uiso   1.00
O178   O     0.94775   0.59164   0.44490   0.00000  Uiso   1.00
N179   N     0.35110   0.53821   0.94790   0.00000  Uiso   1.00
N180   N     0.54769   0.74027   0.40051   0.00000  Uiso   1.00
N181   N     0.07135   0.55687   0.40170   0.00000  Uiso   1.00
N182   N     0.30719   0.65205   0.91198   0.00000  Uiso   1.00
N183   N     0.50378   0.85411   0.36459   0.00000  Uiso   1.00
N184   N     0.02744   0.67071   0.36578   0.00000  Uiso   1.00
C185   C     0.89825   0.82722   0.24684   0.00000  Uiso   1.00
C186   C     0.88795   0.82306   0.33974   0.00000  Uiso   1.00
C187   C     0.94269   0.84403   0.39785   0.00000  Uiso   1.00
C188   C     0.92212   0.83596   0.47982   0.00000  Uiso   1.00
C189   C     0.91717   0.83380   0.62059   0.00000  Uiso   1.00
C190   C     0.83226   0.87725   0.21501   0.00000  Uiso   1.00
C191   C     0.84018   0.94378   0.16824   0.00000  Uiso   1.00
C192   C     0.77273   0.98131   0.14520   0.00000  Uiso   1.00
C193   C     0.68131   0.06326   0.09227   0.00000  Uiso   1.00
C194   C     0.88281   0.74597   0.21470   0.00000  Uiso   1.00
C195   C     0.93323   0.70212   0.16764   0.00000  Uiso   1.00
C196   C     0.90833   0.62913   0.14431   0.00000  Uiso   1.00
C197   C     0.89540   0.50724   0.09090   0.00000  Uiso   1.00
C198   C     0.76438   0.77558   0.28907   0.00000  Uiso   1.00
C199   C     0.81523   0.79501   0.36268   0.00000  Uiso   1.00
C200   C     0.79457   0.78690   0.44458   0.00000  Uiso   1.00
C201   C     0.84928   0.80785   0.50280   0.00000  Uiso   1.00
C202   C     0.75954   0.84920   0.23795   0.00000  Uiso   1.00
C203   C     0.69206   0.88664   0.21497   0.00000  Uiso   1.00
C204   C     0.69988   0.95321   0.16818   0.00000  Uiso   1.00
C205   C     0.81009   0.71792   0.23764   0.00000  Uiso   1.00
C206   C     0.78511   0.64498   0.21437   0.00000  Uiso   1.00
C207   C     0.83548   0.60103   0.16729   0.00000  Uiso   1.00
H208   H     0.95486   0.84906   0.22897   0.00000  Uiso   1.00
H209   H     0.99896   0.86574   0.38007   0.00000  Uiso   1.00
H210   H     0.89646   0.96546   0.15049   0.00000  Uiso   1.00
H211   H     0.98949   0.72384   0.14990   0.00000  Uiso   1.00
H212   H     0.01576   0.87190   0.55772   0.00000  Uiso   1.00
H213   H     0.79964   0.08215   0.07360   0.00000  Uiso   1.00
H214   H     0.99582   0.57264   0.07234   0.00000  Uiso   1.00
H215   H     0.70776   0.75374   0.30693   0.00000  Uiso   1.00
H216   H     0.73830   0.76519   0.46231   0.00000  Uiso   1.00
H217   H     0.63580   0.86492   0.23273   0.00000  Uiso   1.00
H218   H     0.72883   0.62330   0.23213   0.00000  Uiso   1.00
H219   H     0.80420   0.79029   0.62446   0.00000  Uiso   1.00
H220   H     0.58808   0.00055   0.14034   0.00000  Uiso   1.00
H221   H     0.78426   0.49104   0.13909   0.00000  Uiso   1.00
O222   O     0.93452   0.84037   0.69190   0.00000  Uiso   1.00
O223   O     0.65098   0.11621   0.05675   0.00000  Uiso   1.00
O224   O     0.90836   0.44775   0.05510   0.00000  Uiso   1.00
N225   N     0.96179   0.85110   0.55210   0.00000  Uiso   1.00
N226   N     0.75973   0.04769   0.09949   0.00000  Uiso   1.00
N227   N     0.94313   0.57135   0.09830   0.00000  Uiso   1.00
N228   N     0.84795   0.80719   0.58802   0.00000  Uiso   1.00
N229   N     0.64589   0.00378   0.13541   0.00000  Uiso   1.00
N230   N     0.82929   0.52744   0.13422   0.00000  Uiso   1.00
C231   C     0.39825   0.32722   0.74684   0.00000  Uiso   1.00
C232   C     0.38795   0.32306   0.83974   0.00000  Uiso   1.00
C233   C     0.44269   0.34403   0.89785   0.00000  Uiso   1.00
C234   C     0.42212   0.33596   0.97982   0.00000  Uiso   1.00
C235   C     0.41717   0.33380   0.12059   0.00000  Uiso   1.00
C236   C     0.33226   0.37725   0.71501   0.00000  Uiso   1.00
C237   C     0.34018   0.44378   0.66824   0.00000  Uiso   1.00
C238   C     0.27273   0.48131   0.64520   0.00000  Uiso   1.00
C239   C     0.18131   0.56326   0.59227   0.00000  Uiso   1.00
C240   C     0.38281   0.24597   0.71470   0.00000  Uiso   1.00
C241   C     0.43323   0.20212   0.66764   0.00000  Uiso   1.00
C242   C     0.40833   0.12913   0.64431   0.00000  Uiso   1.00
C243   C     0.39540   0.00724   0.59090   0.00000  Uiso   1.00
C244   C     0.26438   0.27558   0.78907   0.00000  Uiso   1.00
C245   C     0.31523   0.29501   0.86268   0.00000  Uiso   1.00
C246   C     0.29457   0.28690   0.94458   0.00000  Uiso   1.00
C247   C     0.34928   0.30785   0.00280   0.00000  Uiso   1.00
C248   C     0.25954   0.34920   0.73795   0.00000  Uiso   1.00
C249   C     0.19206   0.38664   0.71497   0.00000  Uiso   1.00
C250   C     0.19988   0.45321   0.66818   0.00000  Uiso   1.00
C251   C     0.31009   0.21792   0.73764   0.00000  Uiso   1.00
C252   C     0.28511   0.14498   0.71437   0.00000  Uiso   1.00
C253   C     0.33548   0.10103   0.66729   0.00000  Uiso   1.00
H254   H     0.45486   0.34906   0.72897   0.00000  Uiso   1.00
H255   H     0.49896   0.36574   0.88007   0.00000  Uiso   1.00
H256   H     0.39646   0.46546   0.65049   0.00000  Uiso   1.00
H257   H     0.48949   0.22384   0.64990   0.00000  Uiso   1.00
H258   H     0.51576   0.37190   0.05772   0.00000  Uiso   1.00
H259   H     0.29964   0.58215   0.57360   0.00000  Uiso   1.00
H260   H     0.49582   0.07264   0.57234   0.00000  Uiso   1.00
H261   H     0.20776   0.25374   0.80693   0.00000  Uiso   1.00
H262   H     0.23830   0.26519   0.96231   0.00000  Uiso   1.00
H263   H     0.13580   0.36492   0.73273   0.00000  Uiso   1.00
H264   H     0.22883   0.12330   0.73213   0.00000  Uiso   1.00
H265   H     0.30420   0.29029   0.12446   0.00000  Uiso   1.00
H266   H     0.08808   0.50055   0.64034   0.00000  Uiso   1.00
H267   H     0.28426   0.99104   0.63909   0.00000  Uiso   1.00
O268   O     0.43452   0.34037   0.19190   0.00000  Uiso   1.00
O269   O     0.15098   0.61621   0.55675   0.00000  Uiso   1.00
O270   O     0.40836   0.94775   0.55510   0.00000  Uiso   1.00
N271   N     0.46179   0.35110   0.05210   0.00000  Uiso   1.00
N272   N     0.25973   0.54769   0.59949   0.00000  Uiso   1.00
N273   N     0.44313   0.07135   0.59830   0.00000  Uiso   1.00
N274   N     0.34795   0.30719   0.08802   0.00000  Uiso   1.00
N275   N     0.14589   0.50378   0.63541   0.00000  Uiso   1.00
N276   N     0.32929   0.02744   0.63422   0.00000  Uiso   1.00
C277   C     0.10175   0.17278   0.24684   0.00000  Uiso   1.00
C278   C     0.11205   0.17694   0.33974   0.00000  Uiso   1.00
C279   C     0.05731   0.15597   0.39785   0.00000  Uiso   1.00
C280   C     0.07788   0.16404   0.47982   0.00000  Uiso   1.00
C281   C     0.08283   0.16620   0.62059   0.00000  Uiso   1.00
C282   C     0.16774   0.12275   0.21501   0.00000  Uiso   1.00
C283   C     0.15982   0.05622   0.16824   0.00000  Uiso   1.00
C284   C     0.22727   0.01869   0.14520   0.00000  Uiso   1.00
C285   C     0.31869   0.93674   0.09227   0.00000  Uiso   1.00
C286   C     0.11719   0.25403   0.21470   0.00000  Uiso   1.00
C287   C     0.06677   0.29788   0.16764   0.00000  Uiso   1.00
C288   C     0.09167   0.37087   0.14431   0.00000  Uiso   1.00
C289   C     0.10460   0.49276   0.09090   0.00000  Uiso   1.00
C290   C     0.23562   0.22442   0.28907   0.00000  Uiso   1.00
C291   C     0.18477   0.20499   0.36268   0.00000  Uiso   1.00
C292   C     0.20543   0.21310   0.44458   0.00000  Uiso   1.00
C293   C     0.15072   0.19215   0.50280   0.00000  Uiso   1.00
C294   C     0.24046   0.15080   0.23795   0.00000  Uiso   1.00
C295   C     0.30794   0.11336   0.21497   0.00000  Uiso   1.00
C296   C     0.30012   0.04679   0.16818   0.00000  Uiso   1.00
C297   C     0.18991   0.28208   0.23764   0.00000  Uiso   1.00
C298   C     0.21489   0.35502   0.21437   0.00000  Uiso   1.00
C299   C     0.16452   0.39897   0.16729   0.00000  Uiso   1.00
H300   H     0.04514   0.15094   0.22897   0.00000  Uiso   1.00
H301   H     0.00104   0.13426   0.38007   0.00000  Uiso   1.00
H302   H     0.10354   0.03454   0.15049   0.00000  Uiso   1.00
H303   H     0.01051   0.27616   0.14990   0.00000  Uiso   1.00
H304   H     0.98424   0.12810   0.55772   0.00000  Uiso   1.00
H305   H     0.20036   0.91785   0.07360   0.00000  Uiso   1.00
H306   H     0.00418   0.42736   0.07234   0.00000  Uiso   1.00
H307   H     0.29224   0.24626   0.30693   0.00000  Uiso   1.00
H308   H     0.26170   0.23481   0.46231   0.00000  Uiso   1.00
H309   H     0.36420   0.13508   0.23273   0.00000  Uiso   1.00
H310   H     0.27117   0.37670   0.23213   0.00000  Uiso   1.00
H311   H     0.19580   0.20971   0.62446   0.00000  Uiso   1.00
H312   H     0.41192   0.99945   0.14034   0.00000  Uiso   1.00
H313   H     0.21574   0.50896   0.13909   0.00000  Uiso   1.00
O314   O     0.06548   0.15963   0.69190   0.00000  Uiso   1.00
O315   O     0.34902   0.88379   0.05675   0.00000  Uiso   1.00
O316   O     0.09164   0.55225   0.05510   0.00000  Uiso   1.00
N317   N     0.03821   0.14890   0.55210   0.00000  Uiso   1.00
N318   N     0.24027   0.95231   0.09949   0.00000  Uiso   1.00
N319   N     0.05687   0.42865   0.09830   0.00000  Uiso   1.00
N320   N     0.15205   0.19281   0.58802   0.00000  Uiso   1.00
N321   N     0.35411   0.99622   0.13541   0.00000  Uiso   1.00
N322   N     0.17071   0.47256   0.13422   0.00000  Uiso   1.00
C323   C     0.60175   0.67278   0.74684   0.00000  Uiso   1.00
C324   C     0.61205   0.67694   0.83974   0.00000  Uiso   1.00
C325   C     0.55731   0.65597   0.89785   0.00000  Uiso   1.00
C326   C     0.57788   0.66404   0.97982   0.00000  Uiso   1.00
C327   C     0.58283   0.66620   0.12059   0.00000  Uiso   1.00
C328   C     0.66774   0.62275   0.71501   0.00000  Uiso   1.00
C329   C     0.65982   0.55622   0.66824   0.00000  Uiso   1.00
C330   C     0.72727   0.51869   0.64520   0.00000  Uiso   1.00
C331   C     0.81869   0.43674   0.59227   0.00000  Uiso   1.00
C332   C     0.61719   0.75403   0.71470   0.00000  Uiso   1.00
C333   C     0.56677   0.79788   0.66764   0.00000  Uiso   1.00
C334   C     0.59167   0.87087   0.64431   0.00000  Uiso   1.00
C335   C     0.60460   0.99276   0.59090   0.00000  Uiso   1.00
C336   C     0.73562   0.72442   0.78907   0.00000  Uiso   1.00
C337   C     0.68477   0.70499   0.86268   0.00000  Uiso   1.00
C338   C     0.70543   0.71310   0.94458   0.00000  Uiso   1.00
C339   C     0.65072   0.69215   0.00280   0.00000  Uiso   1.00
C340   C     0.74046   0.65080   0.73795   0.00000  Uiso   1.00
C341   C     0.80794   0.61336   0.71497   0.00000  Uiso   1.00
C342   C     0.80012   0.54679   0.66818   0.00000  Uiso   1.00
C343   C     0.68991   0.78208   0.73764   0.00000  Uiso   1.00
C344   C     0.71489   0.85502   0.71437   0.00000  Uiso   1.00
C345   C     0.66452   0.89897   0.66729   0.00000  Uiso   1.00
H346   H     0.54514   0.65094   0.72897   0.00000  Uiso   1.00
H347   H     0.50104   0.63426   0.88007   0.00000  Uiso   1.00
H348   H     0.60354   0.53454   0.65049   0.00000  Uiso   1.00
H349   H     0.51051   0.77616   0.64990   0.00000  Uiso   1.00
H350   H     0.48424   0.62810   0.05772   0.00000  Uiso   1.00
H351   H     0.70036   0.41785   0.57360   0.00000  Uiso   1.00
H352   H     0.50418   0.92736   0.57234   0.00000  Uiso   1.00
H353   H     0.79224   0.74626   0.80693   0.00000  Uiso   1.00
H354   H     0.76170   0.73481   0.96231   0.00000  Uiso   1.00
H355   H     0.86420   0.63508   0.73273   0.00000  Uiso   1.00
H356   H     0.77117   0.87670   0.73213   0.00000  Uiso   1.00
H357   H     0.69580   0.70971   0.12446   0.00000  Uiso   1.00
H358   H     0.91192   0.49945   0.64034   0.00000  Uiso   1.00
H359   H     0.71574   0.00896   0.63909   0.00000  Uiso   1.00
O360   O     0.56548   0.65963   0.19190   0.00000  Uiso   1.00
O361   O     0.84902   0.38379   0.55675   0.00000  Uiso   1.00
O362   O     0.59164   0.05225   0.55510   0.00000  Uiso   1.00
N363   N     0.53821   0.64890   0.05210   0.00000  Uiso   1.00
N364   N     0.74027   0.45231   0.59949   0.00000  Uiso   1.00
N365   N     0.55687   0.92865   0.59830   0.00000  Uiso   1.00
N366   N     0.65205   0.69281   0.08802   0.00000  Uiso   1.00
N367   N     0.85411   0.49622   0.63541   0.00000  Uiso   1.00
N368   N     0.67071   0.97256   0.63422   0.00000  Uiso   1.00
