data_job_02399
_audit_creation_date              2018-12-19
_audit_creation_method            'Materials Studio'
_symmetry_space_group_name_H-M    'P1'
_symmetry_Int_Tables_number       1
_symmetry_cell_setting            triclinic
loop_
_symmetry_equiv_pos_as_xyz
  x,y,z
_cell_length_a                    14.7412
_cell_length_b                    16.0962
_cell_length_c                    15.3526
_cell_angle_alpha                 90.0000
_cell_angle_beta                  75.7190
_cell_angle_gamma                 90.0000
loop_
_atom_site_label
_atom_site_type_symbol
_atom_site_fract_x
_atom_site_fract_y
_atom_site_fract_z
_atom_site_U_iso_or_equiv
_atom_site_adp_type
_atom_site_occupancy
C1     C     0.70539   0.12549   0.95307   0.00000  Uiso   1.00
C2     C     0.70680   0.22021   0.95366   0.00000  Uiso   1.00
C3     C     0.62873   0.27150   0.97066   0.00000  Uiso   1.00
C4     C     0.64478   0.35656   0.96805   0.00000  Uiso   1.00
C5     C     0.63314   0.49870   0.97180   0.00000  Uiso   1.00
C6     C     0.76433   0.09932   0.86097   0.00000  Uiso   1.00
C7     C     0.73463   0.04895   0.80004   0.00000  Uiso   1.00
C8     C     0.79911   0.03224   0.71941   0.00000  Uiso   1.00
C9     C     0.87681   0.98664   0.57929   0.00000  Uiso   1.00
C10    C     0.75971   0.09795   0.02068   0.00000  Uiso   1.00
C11    C     0.72614   0.04641   0.09403   0.00000  Uiso   1.00
C12    C     0.78674   0.02853   0.14785   0.00000  Uiso   1.00
C13    C     0.85727   0.98081   0.25571   0.00000  Uiso   1.00
C14    C     0.87272   0.18535   0.91822   0.00000  Uiso   1.00
C15    C     0.79769   0.25273   0.93473   0.00000  Uiso   1.00
C16    C     0.81386   0.33774   0.93210   0.00000  Uiso   1.00
C17    C     0.73582   0.38914   0.94909   0.00000  Uiso   1.00
C18    C     0.85521   0.13183   0.84204   0.00000  Uiso   1.00
C19    C     0.91975   0.11519   0.76148   0.00000  Uiso   1.00
C20    C     0.89016   0.06482   0.70044   0.00000  Uiso   1.00
C21    C     0.85060   0.13047   0.00176   0.00000  Uiso   1.00
C22    C     0.91126   0.11266   0.05547   0.00000  Uiso   1.00
C23    C     0.87779   0.06111   0.12889   0.00000  Uiso   1.00
H24    H     0.63464   0.10017   0.96780   0.00000  Uiso   1.00
H25    H     0.55841   0.24631   0.98529   0.00000  Uiso   1.00
H26    H     0.66430   0.02379   0.81471   0.00000  Uiso   1.00
H27    H     0.65581   0.02126   0.10865   0.00000  Uiso   1.00
H28    H     0.51398   0.42268   0.99631   0.00000  Uiso   1.00
H29    H     0.73726   0.95347   0.63663   0.00000  Uiso   1.00
H30    H     0.71935   0.94812   0.25647   0.00000  Uiso   1.00
H31    H     0.94348   0.21067   0.90348   0.00000  Uiso   1.00
H32    H     0.88420   0.36288   0.91745   0.00000  Uiso   1.00
H33    H     0.99008   0.14036   0.74686   0.00000  Uiso   1.00
H34    H     0.98159   0.13783   0.04081   0.00000  Uiso   1.00
H35    H     0.77840   0.51729   0.94124   0.00000  Uiso   1.00
H36    H     0.00167   0.04807   0.58156   0.00000  Uiso   1.00
H37    H     0.98377   0.04273   0.20140   0.00000  Uiso   1.00
O38    O     0.60162   0.56812   0.97909   0.00000  Uiso   1.00
O39    O     0.89455   0.95252   0.50722   0.00000  Uiso   1.00
O40    O     0.87106   0.94551   0.32044   0.00000  Uiso   1.00
N41    N     0.58434   0.42406   0.98145   0.00000  Uiso   1.00
N42    N     0.79309   0.98538   0.64517   0.00000  Uiso   1.00
N43    N     0.77636   0.98037   0.22465   0.00000  Uiso   1.00
N44    N     0.72663   0.47497   0.95182   0.00000  Uiso   1.00
N45    N     0.93537   0.03629   0.61554   0.00000  Uiso   1.00
N46    N     0.91864   0.03128   0.19502   0.00000  Uiso   1.00
C47    C     0.29461   0.62549   0.54693   0.00000  Uiso   1.00
C48    C     0.29320   0.72021   0.54634   0.00000  Uiso   1.00
C49    C     0.37127   0.77150   0.52934   0.00000  Uiso   1.00
C50    C     0.35522   0.85656   0.53195   0.00000  Uiso   1.00
C51    C     0.36686   0.99870   0.52820   0.00000  Uiso   1.00
C52    C     0.23567   0.59932   0.63903   0.00000  Uiso   1.00
C53    C     0.26537   0.54895   0.69996   0.00000  Uiso   1.00
C54    C     0.20089   0.53224   0.78059   0.00000  Uiso   1.00
C55    C     0.12319   0.48664   0.92071   0.00000  Uiso   1.00
C56    C     0.24029   0.59795   0.47932   0.00000  Uiso   1.00
C57    C     0.27386   0.54641   0.40597   0.00000  Uiso   1.00
C58    C     0.21326   0.52853   0.35215   0.00000  Uiso   1.00
C59    C     0.14273   0.48081   0.24429   0.00000  Uiso   1.00
C60    C     0.12728   0.68535   0.58178   0.00000  Uiso   1.00
C61    C     0.20231   0.75273   0.56527   0.00000  Uiso   1.00
C62    C     0.18614   0.83774   0.56790   0.00000  Uiso   1.00
C63    C     0.26418   0.88914   0.55091   0.00000  Uiso   1.00
C64    C     0.14479   0.63183   0.65796   0.00000  Uiso   1.00
C65    C     0.08025   0.61519   0.73852   0.00000  Uiso   1.00
C66    C     0.10984   0.56482   0.79956   0.00000  Uiso   1.00
C67    C     0.14940   0.63047   0.49824   0.00000  Uiso   1.00
C68    C     0.08874   0.61266   0.44453   0.00000  Uiso   1.00
C69    C     0.12221   0.56111   0.37111   0.00000  Uiso   1.00
H70    H     0.36536   0.60017   0.53220   0.00000  Uiso   1.00
H71    H     0.44159   0.74631   0.51471   0.00000  Uiso   1.00
H72    H     0.33570   0.52379   0.68529   0.00000  Uiso   1.00
H73    H     0.34419   0.52126   0.39135   0.00000  Uiso   1.00
H74    H     0.48602   0.92268   0.50369   0.00000  Uiso   1.00
H75    H     0.26274   0.45347   0.86337   0.00000  Uiso   1.00
H76    H     0.28065   0.44812   0.24353   0.00000  Uiso   1.00
H77    H     0.05652   0.71067   0.59652   0.00000  Uiso   1.00
H78    H     0.11580   0.86288   0.58255   0.00000  Uiso   1.00
H79    H     0.00992   0.64036   0.75314   0.00000  Uiso   1.00
H80    H     0.01841   0.63783   0.45919   0.00000  Uiso   1.00
H81    H     0.22160   0.01729   0.55876   0.00000  Uiso   1.00
H82    H     0.99833   0.54807   0.91844   0.00000  Uiso   1.00
H83    H     0.01623   0.54273   0.29860   0.00000  Uiso   1.00
O84    O     0.39838   0.06812   0.52091   0.00000  Uiso   1.00
O85    O     0.10545   0.45252   0.99278   0.00000  Uiso   1.00
O86    O     0.12894   0.44551   0.17956   0.00000  Uiso   1.00
N87    N     0.41566   0.92406   0.51855   0.00000  Uiso   1.00
N88    N     0.20691   0.48538   0.85483   0.00000  Uiso   1.00
N89    N     0.22364   0.48037   0.27535   0.00000  Uiso   1.00
N90    N     0.27337   0.97497   0.54818   0.00000  Uiso   1.00
N91    N     0.06463   0.53629   0.88446   0.00000  Uiso   1.00
N92    N     0.08136   0.53128   0.30498   0.00000  Uiso   1.00
C93    C     0.29461   0.87451   0.04693   0.00000  Uiso   1.00
C94    C     0.29320   0.77979   0.04634   0.00000  Uiso   1.00
C95    C     0.37127   0.72850   0.02934   0.00000  Uiso   1.00
C96    C     0.35522   0.64344   0.03195   0.00000  Uiso   1.00
C97    C     0.36686   0.50130   0.02820   0.00000  Uiso   1.00
C98    C     0.23567   0.90068   0.13903   0.00000  Uiso   1.00
C99    C     0.26537   0.95105   0.19996   0.00000  Uiso   1.00
C100   C     0.20089   0.96776   0.28059   0.00000  Uiso   1.00
C101   C     0.12319   0.01336   0.42071   0.00000  Uiso   1.00
C102   C     0.24029   0.90205   0.97932   0.00000  Uiso   1.00
C103   C     0.27386   0.95359   0.90597   0.00000  Uiso   1.00
C104   C     0.21326   0.97147   0.85215   0.00000  Uiso   1.00
C105   C     0.14273   0.01919   0.74429   0.00000  Uiso   1.00
C106   C     0.12728   0.81465   0.08178   0.00000  Uiso   1.00
C107   C     0.20231   0.74727   0.06527   0.00000  Uiso   1.00
C108   C     0.18614   0.66226   0.06790   0.00000  Uiso   1.00
C109   C     0.26418   0.61086   0.05091   0.00000  Uiso   1.00
C110   C     0.14479   0.86817   0.15796   0.00000  Uiso   1.00
C111   C     0.08025   0.88481   0.23852   0.00000  Uiso   1.00
C112   C     0.10984   0.93518   0.29956   0.00000  Uiso   1.00
C113   C     0.14940   0.86953   0.99824   0.00000  Uiso   1.00
C114   C     0.08874   0.88734   0.94453   0.00000  Uiso   1.00
C115   C     0.12221   0.93889   0.87111   0.00000  Uiso   1.00
H116   H     0.36536   0.89983   0.03220   0.00000  Uiso   1.00
H117   H     0.44159   0.75369   0.01471   0.00000  Uiso   1.00
H118   H     0.33570   0.97621   0.18529   0.00000  Uiso   1.00
H119   H     0.34419   0.97874   0.89135   0.00000  Uiso   1.00
H120   H     0.48602   0.57732   0.00369   0.00000  Uiso   1.00
H121   H     0.26274   0.04653   0.36337   0.00000  Uiso   1.00
H122   H     0.28065   0.05188   0.74353   0.00000  Uiso   1.00
H123   H     0.05652   0.78933   0.09652   0.00000  Uiso   1.00
H124   H     0.11580   0.63712   0.08255   0.00000  Uiso   1.00
H125   H     0.00992   0.85964   0.25314   0.00000  Uiso   1.00
H126   H     0.01841   0.86217   0.95919   0.00000  Uiso   1.00
H127   H     0.22160   0.48271   0.05876   0.00000  Uiso   1.00
H128   H     0.99833   0.95193   0.41844   0.00000  Uiso   1.00
H129   H     0.01623   0.95727   0.79860   0.00000  Uiso   1.00
O130   O     0.39838   0.43188   0.02091   0.00000  Uiso   1.00
O131   O     0.10545   0.04748   0.49278   0.00000  Uiso   1.00
O132   O     0.12894   0.05449   0.67956   0.00000  Uiso   1.00
N133   N     0.41566   0.57594   0.01855   0.00000  Uiso   1.00
N134   N     0.20691   0.01462   0.35483   0.00000  Uiso   1.00
N135   N     0.22364   0.01963   0.77535   0.00000  Uiso   1.00
N136   N     0.27337   0.52503   0.04818   0.00000  Uiso   1.00
N137   N     0.06463   0.96371   0.38446   0.00000  Uiso   1.00
N138   N     0.08136   0.96872   0.80498   0.00000  Uiso   1.00
C139   C     0.70539   0.37451   0.45307   0.00000  Uiso   1.00
C140   C     0.70680   0.27979   0.45366   0.00000  Uiso   1.00
C141   C     0.62873   0.22850   0.47066   0.00000  Uiso   1.00
C142   C     0.64478   0.14344   0.46805   0.00000  Uiso   1.00
C143   C     0.63314   0.00130   0.47180   0.00000  Uiso   1.00
C144   C     0.76433   0.40068   0.36097   0.00000  Uiso   1.00
C145   C     0.73463   0.45105   0.30004   0.00000  Uiso   1.00
C146   C     0.79911   0.46776   0.21941   0.00000  Uiso   1.00
C147   C     0.87681   0.51336   0.07929   0.00000  Uiso   1.00
C148   C     0.75971   0.40205   0.52068   0.00000  Uiso   1.00
C149   C     0.72614   0.45359   0.59403   0.00000  Uiso   1.00
C150   C     0.78674   0.47147   0.64785   0.00000  Uiso   1.00
C151   C     0.85727   0.51919   0.75571   0.00000  Uiso   1.00
C152   C     0.87272   0.31465   0.41822   0.00000  Uiso   1.00
C153   C     0.79769   0.24727   0.43473   0.00000  Uiso   1.00
C154   C     0.81386   0.16226   0.43210   0.00000  Uiso   1.00
C155   C     0.73582   0.11086   0.44909   0.00000  Uiso   1.00
C156   C     0.85521   0.36817   0.34204   0.00000  Uiso   1.00
C157   C     0.91975   0.38481   0.26148   0.00000  Uiso   1.00
C158   C     0.89016   0.43518   0.20044   0.00000  Uiso   1.00
C159   C     0.85060   0.36953   0.50176   0.00000  Uiso   1.00
C160   C     0.91126   0.38734   0.55547   0.00000  Uiso   1.00
C161   C     0.87779   0.43889   0.62889   0.00000  Uiso   1.00
H162   H     0.63464   0.39983   0.46780   0.00000  Uiso   1.00
H163   H     0.55841   0.25369   0.48529   0.00000  Uiso   1.00
H164   H     0.66430   0.47621   0.31471   0.00000  Uiso   1.00
H165   H     0.65581   0.47874   0.60865   0.00000  Uiso   1.00
H166   H     0.51398   0.07732   0.49631   0.00000  Uiso   1.00
H167   H     0.73726   0.54653   0.13663   0.00000  Uiso   1.00
H168   H     0.71935   0.55188   0.75647   0.00000  Uiso   1.00
H169   H     0.94348   0.28933   0.40348   0.00000  Uiso   1.00
H170   H     0.88420   0.13712   0.41745   0.00000  Uiso   1.00
H171   H     0.99008   0.35964   0.24686   0.00000  Uiso   1.00
H172   H     0.98159   0.36217   0.54081   0.00000  Uiso   1.00
H173   H     0.77840   0.98271   0.44124   0.00000  Uiso   1.00
H174   H     0.00167   0.45193   0.08156   0.00000  Uiso   1.00
H175   H     0.98377   0.45727   0.70140   0.00000  Uiso   1.00
O176   O     0.60162   0.93188   0.47909   0.00000  Uiso   1.00
O177   O     0.89455   0.54748   0.00722   0.00000  Uiso   1.00
O178   O     0.87106   0.55449   0.82044   0.00000  Uiso   1.00
N179   N     0.58434   0.07594   0.48145   0.00000  Uiso   1.00
N180   N     0.79309   0.51462   0.14517   0.00000  Uiso   1.00
N181   N     0.77636   0.51963   0.72465   0.00000  Uiso   1.00
N182   N     0.72663   0.02503   0.45182   0.00000  Uiso   1.00
N183   N     0.93537   0.46371   0.11554   0.00000  Uiso   1.00
N184   N     0.91864   0.46872   0.69502   0.00000  Uiso   1.00
