data_job_05225
_audit_creation_date              2018-12-19
_audit_creation_method            'Materials Studio'
_symmetry_space_group_name_H-M    'P1'
_symmetry_Int_Tables_number       1
_symmetry_cell_setting            triclinic
loop_
_symmetry_equiv_pos_as_xyz
  x,y,z
_cell_length_a                    9.5720
_cell_length_b                    16.2769
_cell_length_c                    19.9861
_cell_angle_alpha                 90.0000
_cell_angle_beta                  127.9631
_cell_angle_gamma                 90.0000
loop_
_atom_site_label
_atom_site_type_symbol
_atom_site_fract_x
_atom_site_fract_y
_atom_site_fract_z
_atom_site_U_iso_or_equiv
_atom_site_adp_type
_atom_site_occupancy
C1     C     0.52475   0.45617   0.82263   0.00000  Uiso   1.00
C2     C     0.36966   0.42687   0.73424   0.00000  Uiso   1.00
C3     C     0.25545   0.36292   0.71638   0.00000  Uiso   1.00
C4     C     0.12188   0.34561   0.63139   0.00000  Uiso   1.00
C5     C     0.88395   0.29323   0.50399   0.00000  Uiso   1.00
C6     C     0.68819   0.45112   0.82610   0.00000  Uiso   1.00
C7     C     0.84179   0.40756   0.88549   0.00000  Uiso   1.00
C8     C     0.97636   0.41067   0.87783   0.00000  Uiso   1.00
C9     C     0.23299   0.39598   0.89309   0.00000  Uiso   1.00
C10    C     0.49301   0.54739   0.82587   0.00000  Uiso   1.00
C11    C     0.48256   0.58480   0.88507   0.00000  Uiso   1.00
C12    C     0.45285   0.66897   0.87722   0.00000  Uiso   1.00
C13    C     0.40644   0.80376   0.89212   0.00000  Uiso   1.00
C14    C     0.49061   0.53916   0.70345   0.00000  Uiso   1.00
C15    C     0.35113   0.47195   0.66951   0.00000  Uiso   1.00
C16    C     0.21769   0.45473   0.58452   0.00000  Uiso   1.00
C17    C     0.10330   0.39077   0.56653   0.00000  Uiso   1.00
C18    C     0.66965   0.49619   0.76137   0.00000  Uiso   1.00
C19    C     0.80403   0.49937   0.75363   0.00000  Uiso   1.00
C20    C     0.95779   0.45583   0.81298   0.00000  Uiso   1.00
C21    C     0.47447   0.59247   0.76113   0.00000  Uiso   1.00
C22    C     0.44479   0.67661   0.75320   0.00000  Uiso   1.00
C23    C     0.43428   0.71413   0.81237   0.00000  Uiso   1.00
H24    H     0.53919   0.42108   0.87303   0.00000  Uiso   1.00
H25    H     0.26986   0.32805   0.76650   0.00000  Uiso   1.00
H26    H     0.85611   0.37269   0.93558   0.00000  Uiso   1.00
H27    H     0.49692   0.54989   0.93515   0.00000  Uiso   1.00
H28    H     0.96311   0.24476   0.61983   0.00000  Uiso   1.00
H29    H     0.19927   0.33891   0.97637   0.00000  Uiso   1.00
H30    H     0.44187   0.71259   0.97548   0.00000  Uiso   1.00
H31    H     0.47618   0.57425   0.65305   0.00000  Uiso   1.00
H32    H     0.20337   0.48962   0.53444   0.00000  Uiso   1.00
H33    H     0.78963   0.53426   0.70352   0.00000  Uiso   1.00
H34    H     0.43045   0.71147   0.70310   0.00000  Uiso   1.00
H35    H     0.90916   0.37590   0.43149   0.00000  Uiso   1.00
H36    H     0.14533   0.47005   0.78803   0.00000  Uiso   1.00
H37    H     0.38791   0.84372   0.78713   0.00000  Uiso   1.00
O38    O     0.75785   0.25188   0.45160   0.00000  Uiso   1.00
O39    O     0.37966   0.37542   0.91938   0.00000  Uiso   1.00
O40    O     0.38595   0.86566   0.91821   0.00000  Uiso   1.00
N41    N     0.98783   0.28725   0.59178   0.00000  Uiso   1.00
N42    N     0.14356   0.37527   0.92512   0.00000  Uiso   1.00
N43    N     0.43549   0.72462   0.92430   0.00000  Uiso   1.00
N44    N     0.95880   0.35782   0.49043   0.00000  Uiso   1.00
N45    N     0.11453   0.44583   0.82377   0.00000  Uiso   1.00
N46    N     0.40646   0.79519   0.82295   0.00000  Uiso   1.00
C47    C     0.47525   0.95617   0.67737   0.00000  Uiso   1.00
C48    C     0.63034   0.92687   0.76576   0.00000  Uiso   1.00
C49    C     0.74455   0.86292   0.78362   0.00000  Uiso   1.00
C50    C     0.87812   0.84561   0.86861   0.00000  Uiso   1.00
C51    C     0.11605   0.79323   0.99601   0.00000  Uiso   1.00
C52    C     0.31181   0.95112   0.67390   0.00000  Uiso   1.00
C53    C     0.15821   0.90756   0.61451   0.00000  Uiso   1.00
C54    C     0.02364   0.91067   0.62217   0.00000  Uiso   1.00
C55    C     0.76701   0.89598   0.60691   0.00000  Uiso   1.00
C56    C     0.50699   0.04739   0.67413   0.00000  Uiso   1.00
C57    C     0.51744   0.08480   0.61493   0.00000  Uiso   1.00
C58    C     0.54715   0.16897   0.62278   0.00000  Uiso   1.00
C59    C     0.59356   0.30376   0.60788   0.00000  Uiso   1.00
C60    C     0.50939   0.03916   0.79655   0.00000  Uiso   1.00
C61    C     0.64887   0.97195   0.83049   0.00000  Uiso   1.00
C62    C     0.78231   0.95473   0.91548   0.00000  Uiso   1.00
C63    C     0.89670   0.89077   0.93347   0.00000  Uiso   1.00
C64    C     0.33035   0.99619   0.73863   0.00000  Uiso   1.00
C65    C     0.19597   0.99937   0.74637   0.00000  Uiso   1.00
C66    C     0.04221   0.95583   0.68702   0.00000  Uiso   1.00
C67    C     0.52553   0.09247   0.73887   0.00000  Uiso   1.00
C68    C     0.55521   0.17661   0.74680   0.00000  Uiso   1.00
C69    C     0.56572   0.21413   0.68763   0.00000  Uiso   1.00
H70    H     0.46081   0.92108   0.62697   0.00000  Uiso   1.00
H71    H     0.73014   0.82805   0.73350   0.00000  Uiso   1.00
H72    H     0.14389   0.87269   0.56442   0.00000  Uiso   1.00
H73    H     0.50308   0.04989   0.56485   0.00000  Uiso   1.00
H74    H     0.03689   0.74476   0.88017   0.00000  Uiso   1.00
H75    H     0.80073   0.83891   0.52363   0.00000  Uiso   1.00
H76    H     0.55813   0.21259   0.52452   0.00000  Uiso   1.00
H77    H     0.52382   0.07425   0.84695   0.00000  Uiso   1.00
H78    H     0.79663   0.98962   0.96556   0.00000  Uiso   1.00
H79    H     0.21037   0.03426   0.79648   0.00000  Uiso   1.00
H80    H     0.56955   0.21147   0.79690   0.00000  Uiso   1.00
H81    H     0.09084   0.87590   0.06851   0.00000  Uiso   1.00
H82    H     0.85467   0.97005   0.71197   0.00000  Uiso   1.00
H83    H     0.61209   0.34372   0.71287   0.00000  Uiso   1.00
O84    O     0.24215   0.75188   0.04840   0.00000  Uiso   1.00
O85    O     0.62034   0.87542   0.58062   0.00000  Uiso   1.00
O86    O     0.61405   0.36566   0.58179   0.00000  Uiso   1.00
N87    N     0.01217   0.78725   0.90822   0.00000  Uiso   1.00
N88    N     0.85644   0.87527   0.57488   0.00000  Uiso   1.00
N89    N     0.56451   0.22462   0.57570   0.00000  Uiso   1.00
N90    N     0.04120   0.85782   0.00957   0.00000  Uiso   1.00
N91    N     0.88547   0.94583   0.67623   0.00000  Uiso   1.00
N92    N     0.59354   0.29519   0.67705   0.00000  Uiso   1.00
C93    C     0.47525   0.54383   0.17737   0.00000  Uiso   1.00
C94    C     0.63034   0.57313   0.26576   0.00000  Uiso   1.00
C95    C     0.74455   0.63708   0.28362   0.00000  Uiso   1.00
C96    C     0.87812   0.65439   0.36861   0.00000  Uiso   1.00
C97    C     0.11605   0.70677   0.49601   0.00000  Uiso   1.00
C98    C     0.31181   0.54888   0.17390   0.00000  Uiso   1.00
C99    C     0.15821   0.59244   0.11451   0.00000  Uiso   1.00
C100   C     0.02364   0.58933   0.12217   0.00000  Uiso   1.00
C101   C     0.76701   0.60402   0.10691   0.00000  Uiso   1.00
C102   C     0.50699   0.45261   0.17413   0.00000  Uiso   1.00
C103   C     0.51744   0.41520   0.11493   0.00000  Uiso   1.00
C104   C     0.54715   0.33103   0.12278   0.00000  Uiso   1.00
C105   C     0.59356   0.19624   0.10788   0.00000  Uiso   1.00
C106   C     0.50939   0.46084   0.29655   0.00000  Uiso   1.00
C107   C     0.64887   0.52805   0.33049   0.00000  Uiso   1.00
C108   C     0.78231   0.54527   0.41548   0.00000  Uiso   1.00
C109   C     0.89670   0.60923   0.43347   0.00000  Uiso   1.00
C110   C     0.33035   0.50381   0.23863   0.00000  Uiso   1.00
C111   C     0.19597   0.50063   0.24637   0.00000  Uiso   1.00
C112   C     0.04221   0.54417   0.18702   0.00000  Uiso   1.00
C113   C     0.52553   0.40753   0.23887   0.00000  Uiso   1.00
C114   C     0.55521   0.32339   0.24680   0.00000  Uiso   1.00
C115   C     0.56572   0.28587   0.18763   0.00000  Uiso   1.00
H116   H     0.46081   0.57892   0.12697   0.00000  Uiso   1.00
H117   H     0.73014   0.67195   0.23350   0.00000  Uiso   1.00
H118   H     0.14389   0.62731   0.06442   0.00000  Uiso   1.00
H119   H     0.50308   0.45011   0.06485   0.00000  Uiso   1.00
H120   H     0.03689   0.75524   0.38017   0.00000  Uiso   1.00
H121   H     0.80073   0.66109   0.02363   0.00000  Uiso   1.00
H122   H     0.55813   0.28741   0.02452   0.00000  Uiso   1.00
H123   H     0.52382   0.42575   0.34695   0.00000  Uiso   1.00
H124   H     0.79663   0.51038   0.46556   0.00000  Uiso   1.00
H125   H     0.21037   0.46574   0.29648   0.00000  Uiso   1.00
H126   H     0.56955   0.28853   0.29690   0.00000  Uiso   1.00
H127   H     0.09084   0.62410   0.56851   0.00000  Uiso   1.00
H128   H     0.85467   0.52995   0.21197   0.00000  Uiso   1.00
H129   H     0.61209   0.15628   0.21287   0.00000  Uiso   1.00
O130   O     0.24215   0.74812   0.54840   0.00000  Uiso   1.00
O131   O     0.62034   0.62458   0.08062   0.00000  Uiso   1.00
O132   O     0.61405   0.13434   0.08179   0.00000  Uiso   1.00
N133   N     0.01217   0.71275   0.40822   0.00000  Uiso   1.00
N134   N     0.85644   0.62473   0.07488   0.00000  Uiso   1.00
N135   N     0.56451   0.27538   0.07570   0.00000  Uiso   1.00
N136   N     0.04120   0.64218   0.50957   0.00000  Uiso   1.00
N137   N     0.88547   0.55417   0.17623   0.00000  Uiso   1.00
N138   N     0.59354   0.20481   0.17705   0.00000  Uiso   1.00
C139   C     0.52475   0.04383   0.32263   0.00000  Uiso   1.00
C140   C     0.36966   0.07313   0.23424   0.00000  Uiso   1.00
C141   C     0.25545   0.13708   0.21638   0.00000  Uiso   1.00
C142   C     0.12188   0.15439   0.13139   0.00000  Uiso   1.00
C143   C     0.88395   0.20677   0.00399   0.00000  Uiso   1.00
C144   C     0.68819   0.04888   0.32610   0.00000  Uiso   1.00
C145   C     0.84179   0.09244   0.38549   0.00000  Uiso   1.00
C146   C     0.97636   0.08933   0.37783   0.00000  Uiso   1.00
C147   C     0.23299   0.10402   0.39309   0.00000  Uiso   1.00
C148   C     0.49301   0.95261   0.32587   0.00000  Uiso   1.00
C149   C     0.48256   0.91520   0.38507   0.00000  Uiso   1.00
C150   C     0.45285   0.83103   0.37722   0.00000  Uiso   1.00
C151   C     0.40644   0.69624   0.39212   0.00000  Uiso   1.00
C152   C     0.49061   0.96084   0.20345   0.00000  Uiso   1.00
C153   C     0.35113   0.02805   0.16951   0.00000  Uiso   1.00
C154   C     0.21769   0.04527   0.08452   0.00000  Uiso   1.00
C155   C     0.10330   0.10923   0.06653   0.00000  Uiso   1.00
C156   C     0.66965   0.00381   0.26137   0.00000  Uiso   1.00
C157   C     0.80403   0.00063   0.25363   0.00000  Uiso   1.00
C158   C     0.95779   0.04417   0.31298   0.00000  Uiso   1.00
C159   C     0.47447   0.90753   0.26113   0.00000  Uiso   1.00
C160   C     0.44479   0.82339   0.25320   0.00000  Uiso   1.00
C161   C     0.43428   0.78587   0.31237   0.00000  Uiso   1.00
H162   H     0.53919   0.07892   0.37303   0.00000  Uiso   1.00
H163   H     0.26986   0.17195   0.26650   0.00000  Uiso   1.00
H164   H     0.85611   0.12731   0.43558   0.00000  Uiso   1.00
H165   H     0.49692   0.95011   0.43515   0.00000  Uiso   1.00
H166   H     0.96311   0.25524   0.11983   0.00000  Uiso   1.00
H167   H     0.19927   0.16109   0.47637   0.00000  Uiso   1.00
H168   H     0.44187   0.78741   0.47548   0.00000  Uiso   1.00
H169   H     0.47618   0.92575   0.15305   0.00000  Uiso   1.00
H170   H     0.20337   0.01038   0.03444   0.00000  Uiso   1.00
H171   H     0.78963   0.96574   0.20352   0.00000  Uiso   1.00
H172   H     0.43045   0.78853   0.20310   0.00000  Uiso   1.00
H173   H     0.90916   0.12410   0.93149   0.00000  Uiso   1.00
H174   H     0.14533   0.02995   0.28803   0.00000  Uiso   1.00
H175   H     0.38791   0.65628   0.28713   0.00000  Uiso   1.00
O176   O     0.75785   0.24812   0.95160   0.00000  Uiso   1.00
O177   O     0.37966   0.12458   0.41938   0.00000  Uiso   1.00
O178   O     0.38595   0.63434   0.41821   0.00000  Uiso   1.00
N179   N     0.98783   0.21275   0.09178   0.00000  Uiso   1.00
N180   N     0.14356   0.12473   0.42512   0.00000  Uiso   1.00
N181   N     0.43549   0.77538   0.42430   0.00000  Uiso   1.00
N182   N     0.95880   0.14218   0.99043   0.00000  Uiso   1.00
N183   N     0.11453   0.05417   0.32377   0.00000  Uiso   1.00
N184   N     0.40646   0.70481   0.32295   0.00000  Uiso   1.00
