data_job_01034
_audit_creation_date              2018-12-19
_audit_creation_method            'Materials Studio'
_symmetry_space_group_name_H-M    'P1'
_symmetry_Int_Tables_number       1
_symmetry_cell_setting            triclinic
loop_
_symmetry_equiv_pos_as_xyz
  x,y,z
_cell_length_a                    9.6694
_cell_length_b                    10.1200
_cell_length_c                    14.8108
_cell_angle_alpha                 83.2012
_cell_angle_beta                  100.2057
_cell_angle_gamma                 76.9543
loop_
_atom_site_label
_atom_site_type_symbol
_atom_site_fract_x
_atom_site_fract_y
_atom_site_fract_z
_atom_site_U_iso_or_equiv
_atom_site_adp_type
_atom_site_occupancy
C1     C     0.47602   0.15624   0.83213   0.00000  Uiso   1.00
C2     C     0.41667   0.14307   0.73200   0.00000  Uiso   1.00
C3     C     0.29670   0.09361   0.70200   0.00000  Uiso   1.00
C4     C     0.25989   0.08969   0.60756   0.00000  Uiso   1.00
C5     C     0.15555   0.06249   0.46155   0.00000  Uiso   1.00
C6     C     0.63454   0.07448   0.85543   0.00000  Uiso   1.00
C7     C     0.69775   0.96736   0.92921   0.00000  Uiso   1.00
C8     C     0.84434   0.90572   0.93867   0.00000  Uiso   1.00
C9     C     0.07827   0.77210   0.98432   0.00000  Uiso   1.00
C10    C     0.47827   0.30667   0.83057   0.00000  Uiso   1.00
C11    C     0.41011   0.39477   0.88346   0.00000  Uiso   1.00
C12    C     0.42516   0.52862   0.87201   0.00000  Uiso   1.00
C13    C     0.41645   0.75550   0.87906   0.00000  Uiso   1.00
C14    C     0.62399   0.23725   0.71776   0.00000  Uiso   1.00
C15    C     0.49705   0.18707   0.66989   0.00000  Uiso   1.00
C16    C     0.46040   0.18324   0.57546   0.00000  Uiso   1.00
C17    C     0.34039   0.13378   0.54532   0.00000  Uiso   1.00
C18    C     0.71491   0.11848   0.79331   0.00000  Uiso   1.00
C19    C     0.86145   0.05699   0.80267   0.00000  Uiso   1.00
C20    C     0.92486   0.94980   0.87643   0.00000  Uiso   1.00
C21    C     0.55863   0.35067   0.76845   0.00000  Uiso   1.00
C22    C     0.57380   0.48440   0.75692   0.00000  Uiso   1.00
C23    C     0.50567   0.57269   0.80977   0.00000  Uiso   1.00
H24    H     0.41346   0.12198   0.88049   0.00000  Uiso   1.00
H25    H     0.23454   0.05955   0.75010   0.00000  Uiso   1.00
H26    H     0.63553   0.93334   0.97727   0.00000  Uiso   1.00
H27    H     0.34793   0.36069   0.93153   0.00000  Uiso   1.00
H28    H     0.07165   0.00971   0.57814   0.00000  Uiso   1.00
H29    H     0.91716   0.74361   0.05717   0.00000  Uiso   1.00
H30    H     0.31070   0.64475   0.96071   0.00000  Uiso   1.00
H31    H     0.68656   0.27151   0.66939   0.00000  Uiso   1.00
H32    H     0.52262   0.21729   0.52741   0.00000  Uiso   1.00
H33    H     0.92361   0.09107   0.75458   0.00000  Uiso   1.00
H34    H     0.63601   0.51842   0.70884   0.00000  Uiso   1.00
H35    H     0.30547   0.13772   0.39740   0.00000  Uiso   1.00
H36    H     0.15099   0.87163   0.87643   0.00000  Uiso   1.00
H37    H     0.54452   0.77277   0.77996   0.00000  Uiso   1.00
O38    O     0.07581   0.03531   0.39818   0.00000  Uiso   1.00
O39    O     0.18510   0.68622   0.02666   0.00000  Uiso   1.00
O40    O     0.38942   0.86849   0.90010   0.00000  Uiso   1.00
N41    N     0.14916   0.04730   0.55509   0.00000  Uiso   1.00
N42    N     0.93966   0.79850   0.00294   0.00000  Uiso   1.00
N43    N     0.37270   0.64098   0.91278   0.00000  Uiso   1.00
N44    N     0.27497   0.11619   0.45783   0.00000  Uiso   1.00
N45    N     0.06547   0.86739   0.90568   0.00000  Uiso   1.00
N46    N     0.49851   0.70987   0.81552   0.00000  Uiso   1.00
C47    C     0.52398   0.84376   0.16787   0.00000  Uiso   1.00
C48    C     0.58333   0.85693   0.26800   0.00000  Uiso   1.00
C49    C     0.70330   0.90639   0.29800   0.00000  Uiso   1.00
C50    C     0.74011   0.91031   0.39244   0.00000  Uiso   1.00
C51    C     0.84445   0.93751   0.53845   0.00000  Uiso   1.00
C52    C     0.36546   0.92552   0.14457   0.00000  Uiso   1.00
C53    C     0.30225   0.03264   0.07079   0.00000  Uiso   1.00
C54    C     0.15566   0.09428   0.06133   0.00000  Uiso   1.00
C55    C     0.92173   0.22790   0.01568   0.00000  Uiso   1.00
C56    C     0.52173   0.69333   0.16943   0.00000  Uiso   1.00
C57    C     0.58989   0.60523   0.11654   0.00000  Uiso   1.00
C58    C     0.57484   0.47138   0.12799   0.00000  Uiso   1.00
C59    C     0.58355   0.24450   0.12094   0.00000  Uiso   1.00
C60    C     0.37601   0.76275   0.28224   0.00000  Uiso   1.00
C61    C     0.50295   0.81293   0.33011   0.00000  Uiso   1.00
C62    C     0.53960   0.81676   0.42454   0.00000  Uiso   1.00
C63    C     0.65961   0.86622   0.45468   0.00000  Uiso   1.00
C64    C     0.28509   0.88152   0.20669   0.00000  Uiso   1.00
C65    C     0.13855   0.94301   0.19733   0.00000  Uiso   1.00
C66    C     0.07514   0.05020   0.12357   0.00000  Uiso   1.00
C67    C     0.44137   0.64933   0.23155   0.00000  Uiso   1.00
C68    C     0.42620   0.51560   0.24308   0.00000  Uiso   1.00
C69    C     0.49433   0.42731   0.19023   0.00000  Uiso   1.00
H70    H     0.58654   0.87802   0.11951   0.00000  Uiso   1.00
H71    H     0.76546   0.94045   0.24990   0.00000  Uiso   1.00
H72    H     0.36447   0.06666   0.02273   0.00000  Uiso   1.00
H73    H     0.65207   0.63931   0.06847   0.00000  Uiso   1.00
H74    H     0.92835   0.99029   0.42186   0.00000  Uiso   1.00
H75    H     0.08284   0.25639   0.94283   0.00000  Uiso   1.00
H76    H     0.68930   0.35525   0.03929   0.00000  Uiso   1.00
H77    H     0.31344   0.72849   0.33061   0.00000  Uiso   1.00
H78    H     0.47738   0.78271   0.47259   0.00000  Uiso   1.00
H79    H     0.07639   0.90893   0.24542   0.00000  Uiso   1.00
H80    H     0.36399   0.48158   0.29116   0.00000  Uiso   1.00
H81    H     0.69453   0.86228   0.60260   0.00000  Uiso   1.00
H82    H     0.84901   0.12837   0.12357   0.00000  Uiso   1.00
H83    H     0.45548   0.22723   0.22004   0.00000  Uiso   1.00
O84    O     0.92419   0.96469   0.60182   0.00000  Uiso   1.00
O85    O     0.81490   0.31378   0.97334   0.00000  Uiso   1.00
O86    O     0.61058   0.13151   0.09990   0.00000  Uiso   1.00
N87    N     0.85084   0.95270   0.44491   0.00000  Uiso   1.00
N88    N     0.06034   0.20150   0.99706   0.00000  Uiso   1.00
N89    N     0.62730   0.35902   0.08722   0.00000  Uiso   1.00
N90    N     0.72503   0.88381   0.54217   0.00000  Uiso   1.00
N91    N     0.93453   0.13261   0.09432   0.00000  Uiso   1.00
N92    N     0.50149   0.29013   0.18448   0.00000  Uiso   1.00
