data_job_02730
_audit_creation_date              2018-12-19
_audit_creation_method            'Materials Studio'
_symmetry_space_group_name_H-M    'P1'
_symmetry_Int_Tables_number       1
_symmetry_cell_setting            triclinic
loop_
_symmetry_equiv_pos_as_xyz
  x,y,z
_cell_length_a                    19.2900
_cell_length_b                    19.3955
_cell_length_c                    15.0896
_cell_angle_alpha                 90.0000
_cell_angle_beta                  90.0000
_cell_angle_gamma                 90.0000
loop_
_atom_site_label
_atom_site_type_symbol
_atom_site_fract_x
_atom_site_fract_y
_atom_site_fract_z
_atom_site_U_iso_or_equiv
_atom_site_adp_type
_atom_site_occupancy
C1     C     0.32195   0.20204   0.04808   0.00000  Uiso   1.00
C2     C     0.24292   0.20369   0.04911   0.00000  Uiso   1.00
C3     C     0.20146   0.20229   0.12425   0.00000  Uiso   1.00
C4     C     0.13024   0.20419   0.11120   0.00000  Uiso   1.00
C5     C     0.01188   0.20624   0.12575   0.00000  Uiso   1.00
C6     C     0.34202   0.14048   0.99069   0.00000  Uiso   1.00
C7     C     0.38390   0.08593   0.01670   0.00000  Uiso   1.00
C8     C     0.39612   0.03463   0.95446   0.00000  Uiso   1.00
C9     C     0.43167   0.93857   0.87829   0.00000  Uiso   1.00
C10    C     0.34475   0.26596   0.99699   0.00000  Uiso   1.00
C11    C     0.38893   0.31691   0.02829   0.00000  Uiso   1.00
C12    C     0.40345   0.37125   0.97134   0.00000  Uiso   1.00
C13    C     0.44323   0.47002   0.90495   0.00000  Uiso   1.00
C14    C     0.26919   0.20793   0.89128   0.00000  Uiso   1.00
C15    C     0.21426   0.20689   0.96394   0.00000  Uiso   1.00
C16    C     0.14308   0.20881   0.95077   0.00000  Uiso   1.00
C17    C     0.10153   0.20740   0.02588   0.00000  Uiso   1.00
C18    C     0.31337   0.14368   0.90552   0.00000  Uiso   1.00
C19    C     0.32553   0.09245   0.84322   0.00000  Uiso   1.00
C20    C     0.36741   0.03784   0.86913   0.00000  Uiso   1.00
C21    C     0.31609   0.26917   0.91182   0.00000  Uiso   1.00
C22    C     0.33055   0.32343   0.85480   0.00000  Uiso   1.00
C23    C     0.37474   0.37446   0.88601   0.00000  Uiso   1.00
H24    H     0.34426   0.19954   0.11439   0.00000  Uiso   1.00
H25    H     0.22366   0.19980   0.19016   0.00000  Uiso   1.00
H26    H     0.40608   0.08347   0.08262   0.00000  Uiso   1.00
H27    H     0.41110   0.31442   0.09420   0.00000  Uiso   1.00
H28    H     0.07731   0.20148   0.23660   0.00000  Uiso   1.00
H29    H     0.46197   0.95620   0.00983   0.00000  Uiso   1.00
H30    H     0.47256   0.44320   0.03426   0.00000  Uiso   1.00
H31    H     0.24688   0.21042   0.82496   0.00000  Uiso   1.00
H32    H     0.12092   0.21128   0.88485   0.00000  Uiso   1.00
H33    H     0.30335   0.09495   0.77731   0.00000  Uiso   1.00
H34    H     0.30836   0.32590   0.78890   0.00000  Uiso   1.00
H35    H     0.99392   0.21079   0.98880   0.00000  Uiso   1.00
H36    H     0.37859   0.96552   0.76204   0.00000  Uiso   1.00
H37    H     0.38917   0.45251   0.78646   0.00000  Uiso   1.00
O38    O     0.95452   0.20648   0.15731   0.00000  Uiso   1.00
O39    O     0.45919   0.88470   0.85981   0.00000  Uiso   1.00
O40    O     0.47307   0.52362   0.89186   0.00000  Uiso   1.00
N41    N     0.07497   0.20357   0.17006   0.00000  Uiso   1.00
N42    N     0.43460   0.97424   0.95806   0.00000  Uiso   1.00
N43    N     0.44451   0.42953   0.98088   0.00000  Uiso   1.00
N44    N     0.03010   0.20858   0.03672   0.00000  Uiso   1.00
N45    N     0.38973   0.97925   0.82472   0.00000  Uiso   1.00
N46    N     0.39964   0.43455   0.84755   0.00000  Uiso   1.00
C47    C     0.17805   0.79796   0.04808   0.00000  Uiso   1.00
C48    C     0.25708   0.79631   0.04911   0.00000  Uiso   1.00
C49    C     0.29854   0.79771   0.12425   0.00000  Uiso   1.00
C50    C     0.36976   0.79581   0.11120   0.00000  Uiso   1.00
C51    C     0.48812   0.79376   0.12575   0.00000  Uiso   1.00
C52    C     0.15798   0.85952   0.99069   0.00000  Uiso   1.00
C53    C     0.11610   0.91407   0.01670   0.00000  Uiso   1.00
C54    C     0.10388   0.96537   0.95446   0.00000  Uiso   1.00
C55    C     0.06833   0.06143   0.87829   0.00000  Uiso   1.00
C56    C     0.15525   0.73404   0.99699   0.00000  Uiso   1.00
C57    C     0.11107   0.68309   0.02829   0.00000  Uiso   1.00
C58    C     0.09655   0.62875   0.97134   0.00000  Uiso   1.00
C59    C     0.05677   0.52998   0.90495   0.00000  Uiso   1.00
C60    C     0.23081   0.79207   0.89128   0.00000  Uiso   1.00
C61    C     0.28574   0.79311   0.96394   0.00000  Uiso   1.00
C62    C     0.35692   0.79119   0.95077   0.00000  Uiso   1.00
C63    C     0.39847   0.79260   0.02588   0.00000  Uiso   1.00
C64    C     0.18663   0.85632   0.90552   0.00000  Uiso   1.00
C65    C     0.17447   0.90755   0.84322   0.00000  Uiso   1.00
C66    C     0.13259   0.96216   0.86913   0.00000  Uiso   1.00
C67    C     0.18391   0.73083   0.91182   0.00000  Uiso   1.00
C68    C     0.16945   0.67657   0.85480   0.00000  Uiso   1.00
C69    C     0.12526   0.62554   0.88601   0.00000  Uiso   1.00
H70    H     0.15574   0.80046   0.11439   0.00000  Uiso   1.00
H71    H     0.27634   0.80020   0.19016   0.00000  Uiso   1.00
H72    H     0.09392   0.91653   0.08262   0.00000  Uiso   1.00
H73    H     0.08890   0.68558   0.09420   0.00000  Uiso   1.00
H74    H     0.42269   0.79852   0.23660   0.00000  Uiso   1.00
H75    H     0.03803   0.04380   0.00983   0.00000  Uiso   1.00
H76    H     0.02744   0.55680   0.03426   0.00000  Uiso   1.00
H77    H     0.25312   0.78958   0.82496   0.00000  Uiso   1.00
H78    H     0.37908   0.78872   0.88485   0.00000  Uiso   1.00
H79    H     0.19665   0.90505   0.77731   0.00000  Uiso   1.00
H80    H     0.19164   0.67410   0.78890   0.00000  Uiso   1.00
H81    H     0.50608   0.78921   0.98880   0.00000  Uiso   1.00
H82    H     0.12141   0.03448   0.76204   0.00000  Uiso   1.00
H83    H     0.11083   0.54749   0.78646   0.00000  Uiso   1.00
O84    O     0.54548   0.79352   0.15731   0.00000  Uiso   1.00
O85    O     0.04081   0.11530   0.85981   0.00000  Uiso   1.00
O86    O     0.02693   0.47638   0.89186   0.00000  Uiso   1.00
N87    N     0.42503   0.79643   0.17006   0.00000  Uiso   1.00
N88    N     0.06540   0.02576   0.95806   0.00000  Uiso   1.00
N89    N     0.05549   0.57047   0.98088   0.00000  Uiso   1.00
N90    N     0.46990   0.79142   0.03672   0.00000  Uiso   1.00
N91    N     0.11027   0.02075   0.82472   0.00000  Uiso   1.00
N92    N     0.10036   0.56545   0.84755   0.00000  Uiso   1.00
C93    C     0.67805   0.20204   0.45192   0.00000  Uiso   1.00
C94    C     0.75708   0.20369   0.45089   0.00000  Uiso   1.00
C95    C     0.79854   0.20229   0.37575   0.00000  Uiso   1.00
C96    C     0.86976   0.20419   0.38880   0.00000  Uiso   1.00
C97    C     0.98812   0.20624   0.37425   0.00000  Uiso   1.00
C98    C     0.65798   0.14048   0.50931   0.00000  Uiso   1.00
C99    C     0.61610   0.08593   0.48330   0.00000  Uiso   1.00
C100   C     0.60388   0.03463   0.54554   0.00000  Uiso   1.00
C101   C     0.56833   0.93857   0.62171   0.00000  Uiso   1.00
C102   C     0.65525   0.26596   0.50301   0.00000  Uiso   1.00
C103   C     0.61107   0.31691   0.47171   0.00000  Uiso   1.00
C104   C     0.59655   0.37125   0.52866   0.00000  Uiso   1.00
C105   C     0.55677   0.47002   0.59505   0.00000  Uiso   1.00
C106   C     0.73081   0.20793   0.60872   0.00000  Uiso   1.00
C107   C     0.78574   0.20689   0.53606   0.00000  Uiso   1.00
C108   C     0.85692   0.20881   0.54923   0.00000  Uiso   1.00
C109   C     0.89847   0.20740   0.47412   0.00000  Uiso   1.00
C110   C     0.68663   0.14368   0.59448   0.00000  Uiso   1.00
C111   C     0.67447   0.09245   0.65678   0.00000  Uiso   1.00
C112   C     0.63259   0.03784   0.63087   0.00000  Uiso   1.00
C113   C     0.68391   0.26917   0.58818   0.00000  Uiso   1.00
C114   C     0.66945   0.32343   0.64520   0.00000  Uiso   1.00
C115   C     0.62526   0.37446   0.61399   0.00000  Uiso   1.00
H116   H     0.65574   0.19954   0.38561   0.00000  Uiso   1.00
H117   H     0.77634   0.19980   0.30984   0.00000  Uiso   1.00
H118   H     0.59392   0.08347   0.41738   0.00000  Uiso   1.00
H119   H     0.58890   0.31442   0.40580   0.00000  Uiso   1.00
H120   H     0.92269   0.20148   0.26340   0.00000  Uiso   1.00
H121   H     0.53803   0.95620   0.49017   0.00000  Uiso   1.00
H122   H     0.52744   0.44320   0.46574   0.00000  Uiso   1.00
H123   H     0.75312   0.21042   0.67504   0.00000  Uiso   1.00
H124   H     0.87908   0.21128   0.61515   0.00000  Uiso   1.00
H125   H     0.69665   0.09495   0.72269   0.00000  Uiso   1.00
H126   H     0.69164   0.32590   0.71110   0.00000  Uiso   1.00
H127   H     0.00608   0.21079   0.51120   0.00000  Uiso   1.00
H128   H     0.62141   0.96552   0.73796   0.00000  Uiso   1.00
H129   H     0.61083   0.45251   0.71354   0.00000  Uiso   1.00
O130   O     0.04548   0.20648   0.34269   0.00000  Uiso   1.00
O131   O     0.54081   0.88470   0.64019   0.00000  Uiso   1.00
O132   O     0.52693   0.52362   0.60814   0.00000  Uiso   1.00
N133   N     0.92503   0.20357   0.32994   0.00000  Uiso   1.00
N134   N     0.56540   0.97424   0.54194   0.00000  Uiso   1.00
N135   N     0.55549   0.42953   0.51912   0.00000  Uiso   1.00
N136   N     0.96990   0.20858   0.46328   0.00000  Uiso   1.00
N137   N     0.61027   0.97925   0.67528   0.00000  Uiso   1.00
N138   N     0.60036   0.43455   0.65245   0.00000  Uiso   1.00
C139   C     0.82195   0.79796   0.45192   0.00000  Uiso   1.00
C140   C     0.74292   0.79631   0.45089   0.00000  Uiso   1.00
C141   C     0.70146   0.79771   0.37575   0.00000  Uiso   1.00
C142   C     0.63024   0.79581   0.38880   0.00000  Uiso   1.00
C143   C     0.51188   0.79376   0.37425   0.00000  Uiso   1.00
C144   C     0.84202   0.85952   0.50931   0.00000  Uiso   1.00
C145   C     0.88390   0.91407   0.48330   0.00000  Uiso   1.00
C146   C     0.89612   0.96537   0.54554   0.00000  Uiso   1.00
C147   C     0.93167   0.06143   0.62171   0.00000  Uiso   1.00
C148   C     0.84475   0.73404   0.50301   0.00000  Uiso   1.00
C149   C     0.88893   0.68309   0.47171   0.00000  Uiso   1.00
C150   C     0.90345   0.62875   0.52866   0.00000  Uiso   1.00
C151   C     0.94323   0.52998   0.59505   0.00000  Uiso   1.00
C152   C     0.76919   0.79207   0.60872   0.00000  Uiso   1.00
C153   C     0.71426   0.79311   0.53606   0.00000  Uiso   1.00
C154   C     0.64308   0.79119   0.54923   0.00000  Uiso   1.00
C155   C     0.60153   0.79260   0.47412   0.00000  Uiso   1.00
C156   C     0.81337   0.85632   0.59448   0.00000  Uiso   1.00
C157   C     0.82553   0.90755   0.65678   0.00000  Uiso   1.00
C158   C     0.86741   0.96216   0.63087   0.00000  Uiso   1.00
C159   C     0.81609   0.73083   0.58818   0.00000  Uiso   1.00
C160   C     0.83055   0.67657   0.64520   0.00000  Uiso   1.00
C161   C     0.87474   0.62554   0.61399   0.00000  Uiso   1.00
H162   H     0.84426   0.80046   0.38561   0.00000  Uiso   1.00
H163   H     0.72366   0.80020   0.30984   0.00000  Uiso   1.00
H164   H     0.90608   0.91653   0.41738   0.00000  Uiso   1.00
H165   H     0.91110   0.68558   0.40580   0.00000  Uiso   1.00
H166   H     0.57731   0.79852   0.26340   0.00000  Uiso   1.00
H167   H     0.96197   0.04380   0.49017   0.00000  Uiso   1.00
H168   H     0.97256   0.55680   0.46574   0.00000  Uiso   1.00
H169   H     0.74688   0.78958   0.67504   0.00000  Uiso   1.00
H170   H     0.62092   0.78872   0.61515   0.00000  Uiso   1.00
H171   H     0.80335   0.90505   0.72269   0.00000  Uiso   1.00
H172   H     0.80836   0.67410   0.71110   0.00000  Uiso   1.00
H173   H     0.49392   0.78921   0.51120   0.00000  Uiso   1.00
H174   H     0.87859   0.03448   0.73796   0.00000  Uiso   1.00
H175   H     0.88917   0.54749   0.71354   0.00000  Uiso   1.00
O176   O     0.45452   0.79352   0.34269   0.00000  Uiso   1.00
O177   O     0.95919   0.11530   0.64019   0.00000  Uiso   1.00
O178   O     0.97307   0.47638   0.60814   0.00000  Uiso   1.00
N179   N     0.57497   0.79643   0.32994   0.00000  Uiso   1.00
N180   N     0.93460   0.02576   0.54194   0.00000  Uiso   1.00
N181   N     0.94451   0.57047   0.51912   0.00000  Uiso   1.00
N182   N     0.53010   0.79142   0.46328   0.00000  Uiso   1.00
N183   N     0.88973   0.02075   0.67528   0.00000  Uiso   1.00
N184   N     0.89964   0.56545   0.65245   0.00000  Uiso   1.00
C185   C     0.67805   0.79796   0.95192   0.00000  Uiso   1.00
C186   C     0.75708   0.79631   0.95089   0.00000  Uiso   1.00
C187   C     0.79854   0.79771   0.87575   0.00000  Uiso   1.00
C188   C     0.86976   0.79581   0.88880   0.00000  Uiso   1.00
C189   C     0.98812   0.79376   0.87425   0.00000  Uiso   1.00
C190   C     0.65798   0.85952   0.00931   0.00000  Uiso   1.00
C191   C     0.61610   0.91407   0.98330   0.00000  Uiso   1.00
C192   C     0.60388   0.96537   0.04554   0.00000  Uiso   1.00
C193   C     0.56833   0.06143   0.12171   0.00000  Uiso   1.00
C194   C     0.65525   0.73404   0.00301   0.00000  Uiso   1.00
C195   C     0.61107   0.68309   0.97171   0.00000  Uiso   1.00
C196   C     0.59655   0.62875   0.02866   0.00000  Uiso   1.00
C197   C     0.55677   0.52998   0.09505   0.00000  Uiso   1.00
C198   C     0.73081   0.79207   0.10872   0.00000  Uiso   1.00
C199   C     0.78574   0.79311   0.03606   0.00000  Uiso   1.00
C200   C     0.85692   0.79119   0.04923   0.00000  Uiso   1.00
C201   C     0.89847   0.79260   0.97412   0.00000  Uiso   1.00
C202   C     0.68663   0.85632   0.09448   0.00000  Uiso   1.00
C203   C     0.67447   0.90755   0.15678   0.00000  Uiso   1.00
C204   C     0.63259   0.96216   0.13087   0.00000  Uiso   1.00
C205   C     0.68391   0.73083   0.08818   0.00000  Uiso   1.00
C206   C     0.66945   0.67657   0.14520   0.00000  Uiso   1.00
C207   C     0.62526   0.62554   0.11399   0.00000  Uiso   1.00
H208   H     0.65574   0.80046   0.88561   0.00000  Uiso   1.00
H209   H     0.77634   0.80020   0.80984   0.00000  Uiso   1.00
H210   H     0.59392   0.91653   0.91738   0.00000  Uiso   1.00
H211   H     0.58890   0.68558   0.90580   0.00000  Uiso   1.00
H212   H     0.92269   0.79852   0.76340   0.00000  Uiso   1.00
H213   H     0.53803   0.04380   0.99017   0.00000  Uiso   1.00
H214   H     0.52744   0.55680   0.96574   0.00000  Uiso   1.00
H215   H     0.75312   0.78958   0.17504   0.00000  Uiso   1.00
H216   H     0.87908   0.78872   0.11515   0.00000  Uiso   1.00
H217   H     0.69665   0.90505   0.22269   0.00000  Uiso   1.00
H218   H     0.69164   0.67410   0.21110   0.00000  Uiso   1.00
H219   H     0.00608   0.78921   0.01120   0.00000  Uiso   1.00
H220   H     0.62141   0.03448   0.23796   0.00000  Uiso   1.00
H221   H     0.61083   0.54749   0.21354   0.00000  Uiso   1.00
O222   O     0.04548   0.79352   0.84269   0.00000  Uiso   1.00
O223   O     0.54081   0.11530   0.14019   0.00000  Uiso   1.00
O224   O     0.52693   0.47638   0.10814   0.00000  Uiso   1.00
N225   N     0.92503   0.79643   0.82994   0.00000  Uiso   1.00
N226   N     0.56540   0.02576   0.04194   0.00000  Uiso   1.00
N227   N     0.55549   0.57047   0.01912   0.00000  Uiso   1.00
N228   N     0.96990   0.79142   0.96328   0.00000  Uiso   1.00
N229   N     0.61027   0.02075   0.17528   0.00000  Uiso   1.00
N230   N     0.60036   0.56545   0.15245   0.00000  Uiso   1.00
C231   C     0.82195   0.20204   0.95192   0.00000  Uiso   1.00
C232   C     0.74292   0.20369   0.95089   0.00000  Uiso   1.00
C233   C     0.70146   0.20229   0.87575   0.00000  Uiso   1.00
C234   C     0.63024   0.20419   0.88880   0.00000  Uiso   1.00
C235   C     0.51188   0.20624   0.87425   0.00000  Uiso   1.00
C236   C     0.84202   0.14048   0.00931   0.00000  Uiso   1.00
C237   C     0.88390   0.08593   0.98330   0.00000  Uiso   1.00
C238   C     0.89612   0.03463   0.04554   0.00000  Uiso   1.00
C239   C     0.93167   0.93857   0.12171   0.00000  Uiso   1.00
C240   C     0.84475   0.26596   0.00301   0.00000  Uiso   1.00
C241   C     0.88893   0.31691   0.97171   0.00000  Uiso   1.00
C242   C     0.90345   0.37125   0.02866   0.00000  Uiso   1.00
C243   C     0.94323   0.47002   0.09505   0.00000  Uiso   1.00
C244   C     0.76919   0.20793   0.10872   0.00000  Uiso   1.00
C245   C     0.71426   0.20689   0.03606   0.00000  Uiso   1.00
C246   C     0.64308   0.20881   0.04923   0.00000  Uiso   1.00
C247   C     0.60153   0.20740   0.97412   0.00000  Uiso   1.00
C248   C     0.81337   0.14368   0.09448   0.00000  Uiso   1.00
C249   C     0.82553   0.09245   0.15678   0.00000  Uiso   1.00
C250   C     0.86741   0.03784   0.13087   0.00000  Uiso   1.00
C251   C     0.81609   0.26917   0.08818   0.00000  Uiso   1.00
C252   C     0.83055   0.32343   0.14520   0.00000  Uiso   1.00
C253   C     0.87474   0.37446   0.11399   0.00000  Uiso   1.00
H254   H     0.84426   0.19954   0.88561   0.00000  Uiso   1.00
H255   H     0.72366   0.19980   0.80984   0.00000  Uiso   1.00
H256   H     0.90608   0.08347   0.91738   0.00000  Uiso   1.00
H257   H     0.91110   0.31442   0.90580   0.00000  Uiso   1.00
H258   H     0.57731   0.20148   0.76340   0.00000  Uiso   1.00
H259   H     0.96197   0.95620   0.99017   0.00000  Uiso   1.00
H260   H     0.97256   0.44320   0.96574   0.00000  Uiso   1.00
H261   H     0.74688   0.21042   0.17504   0.00000  Uiso   1.00
H262   H     0.62092   0.21128   0.11515   0.00000  Uiso   1.00
H263   H     0.80335   0.09495   0.22269   0.00000  Uiso   1.00
H264   H     0.80836   0.32590   0.21110   0.00000  Uiso   1.00
H265   H     0.49392   0.21079   0.01120   0.00000  Uiso   1.00
H266   H     0.87859   0.96552   0.23796   0.00000  Uiso   1.00
H267   H     0.88917   0.45251   0.21354   0.00000  Uiso   1.00
O268   O     0.45452   0.20648   0.84269   0.00000  Uiso   1.00
O269   O     0.95919   0.88470   0.14019   0.00000  Uiso   1.00
O270   O     0.97307   0.52362   0.10814   0.00000  Uiso   1.00
N271   N     0.57497   0.20357   0.82994   0.00000  Uiso   1.00
N272   N     0.93460   0.97424   0.04194   0.00000  Uiso   1.00
N273   N     0.94451   0.42953   0.01912   0.00000  Uiso   1.00
N274   N     0.53010   0.20858   0.96328   0.00000  Uiso   1.00
N275   N     0.88973   0.97925   0.17528   0.00000  Uiso   1.00
N276   N     0.89964   0.43455   0.15245   0.00000  Uiso   1.00
C277   C     0.32195   0.79796   0.54808   0.00000  Uiso   1.00
C278   C     0.24292   0.79631   0.54911   0.00000  Uiso   1.00
C279   C     0.20146   0.79771   0.62425   0.00000  Uiso   1.00
C280   C     0.13024   0.79581   0.61120   0.00000  Uiso   1.00
C281   C     0.01188   0.79376   0.62575   0.00000  Uiso   1.00
C282   C     0.34202   0.85952   0.49069   0.00000  Uiso   1.00
C283   C     0.38390   0.91407   0.51670   0.00000  Uiso   1.00
C284   C     0.39612   0.96537   0.45446   0.00000  Uiso   1.00
C285   C     0.43167   0.06143   0.37829   0.00000  Uiso   1.00
C286   C     0.34475   0.73404   0.49699   0.00000  Uiso   1.00
C287   C     0.38893   0.68309   0.52829   0.00000  Uiso   1.00
C288   C     0.40345   0.62875   0.47134   0.00000  Uiso   1.00
C289   C     0.44323   0.52998   0.40495   0.00000  Uiso   1.00
C290   C     0.26919   0.79207   0.39128   0.00000  Uiso   1.00
C291   C     0.21426   0.79311   0.46394   0.00000  Uiso   1.00
C292   C     0.14308   0.79119   0.45077   0.00000  Uiso   1.00
C293   C     0.10153   0.79260   0.52588   0.00000  Uiso   1.00
C294   C     0.31337   0.85632   0.40552   0.00000  Uiso   1.00
C295   C     0.32553   0.90755   0.34322   0.00000  Uiso   1.00
C296   C     0.36741   0.96216   0.36913   0.00000  Uiso   1.00
C297   C     0.31609   0.73083   0.41182   0.00000  Uiso   1.00
C298   C     0.33055   0.67657   0.35480   0.00000  Uiso   1.00
C299   C     0.37474   0.62554   0.38601   0.00000  Uiso   1.00
H300   H     0.34426   0.80046   0.61439   0.00000  Uiso   1.00
H301   H     0.22366   0.80020   0.69016   0.00000  Uiso   1.00
H302   H     0.40608   0.91653   0.58262   0.00000  Uiso   1.00
H303   H     0.41110   0.68558   0.59420   0.00000  Uiso   1.00
H304   H     0.07731   0.79852   0.73660   0.00000  Uiso   1.00
H305   H     0.46197   0.04380   0.50983   0.00000  Uiso   1.00
H306   H     0.47256   0.55680   0.53426   0.00000  Uiso   1.00
H307   H     0.24688   0.78958   0.32496   0.00000  Uiso   1.00
H308   H     0.12092   0.78872   0.38485   0.00000  Uiso   1.00
H309   H     0.30335   0.90505   0.27731   0.00000  Uiso   1.00
H310   H     0.30836   0.67410   0.28890   0.00000  Uiso   1.00
H311   H     0.99392   0.78921   0.48880   0.00000  Uiso   1.00
H312   H     0.37859   0.03448   0.26204   0.00000  Uiso   1.00
H313   H     0.38917   0.54749   0.28646   0.00000  Uiso   1.00
O314   O     0.95452   0.79352   0.65731   0.00000  Uiso   1.00
O315   O     0.45919   0.11530   0.35981   0.00000  Uiso   1.00
O316   O     0.47307   0.47638   0.39186   0.00000  Uiso   1.00
N317   N     0.07497   0.79643   0.67006   0.00000  Uiso   1.00
N318   N     0.43460   0.02576   0.45806   0.00000  Uiso   1.00
N319   N     0.44451   0.57047   0.48088   0.00000  Uiso   1.00
N320   N     0.03010   0.79142   0.53672   0.00000  Uiso   1.00
N321   N     0.38973   0.02075   0.32472   0.00000  Uiso   1.00
N322   N     0.39964   0.56545   0.34755   0.00000  Uiso   1.00
C323   C     0.17805   0.20204   0.54808   0.00000  Uiso   1.00
C324   C     0.25708   0.20369   0.54911   0.00000  Uiso   1.00
C325   C     0.29854   0.20229   0.62425   0.00000  Uiso   1.00
C326   C     0.36976   0.20419   0.61120   0.00000  Uiso   1.00
C327   C     0.48812   0.20624   0.62575   0.00000  Uiso   1.00
C328   C     0.15798   0.14048   0.49069   0.00000  Uiso   1.00
C329   C     0.11610   0.08593   0.51670   0.00000  Uiso   1.00
C330   C     0.10388   0.03463   0.45446   0.00000  Uiso   1.00
C331   C     0.06833   0.93857   0.37829   0.00000  Uiso   1.00
C332   C     0.15525   0.26596   0.49699   0.00000  Uiso   1.00
C333   C     0.11107   0.31691   0.52829   0.00000  Uiso   1.00
C334   C     0.09655   0.37125   0.47134   0.00000  Uiso   1.00
C335   C     0.05677   0.47002   0.40495   0.00000  Uiso   1.00
C336   C     0.23081   0.20793   0.39128   0.00000  Uiso   1.00
C337   C     0.28574   0.20689   0.46394   0.00000  Uiso   1.00
C338   C     0.35692   0.20881   0.45077   0.00000  Uiso   1.00
C339   C     0.39847   0.20740   0.52588   0.00000  Uiso   1.00
C340   C     0.18663   0.14368   0.40552   0.00000  Uiso   1.00
C341   C     0.17447   0.09245   0.34322   0.00000  Uiso   1.00
C342   C     0.13259   0.03784   0.36913   0.00000  Uiso   1.00
C343   C     0.18391   0.26917   0.41182   0.00000  Uiso   1.00
C344   C     0.16945   0.32343   0.35480   0.00000  Uiso   1.00
C345   C     0.12526   0.37446   0.38601   0.00000  Uiso   1.00
H346   H     0.15574   0.19954   0.61439   0.00000  Uiso   1.00
H347   H     0.27634   0.19980   0.69016   0.00000  Uiso   1.00
H348   H     0.09392   0.08347   0.58262   0.00000  Uiso   1.00
H349   H     0.08890   0.31442   0.59420   0.00000  Uiso   1.00
H350   H     0.42269   0.20148   0.73660   0.00000  Uiso   1.00
H351   H     0.03803   0.95620   0.50983   0.00000  Uiso   1.00
H352   H     0.02744   0.44320   0.53426   0.00000  Uiso   1.00
H353   H     0.25312   0.21042   0.32496   0.00000  Uiso   1.00
H354   H     0.37908   0.21128   0.38485   0.00000  Uiso   1.00
H355   H     0.19665   0.09495   0.27731   0.00000  Uiso   1.00
H356   H     0.19164   0.32590   0.28890   0.00000  Uiso   1.00
H357   H     0.50608   0.21079   0.48880   0.00000  Uiso   1.00
H358   H     0.12141   0.96552   0.26204   0.00000  Uiso   1.00
H359   H     0.11083   0.45251   0.28646   0.00000  Uiso   1.00
O360   O     0.54548   0.20648   0.65731   0.00000  Uiso   1.00
O361   O     0.04081   0.88470   0.35981   0.00000  Uiso   1.00
O362   O     0.02693   0.52362   0.39186   0.00000  Uiso   1.00
N363   N     0.42503   0.20357   0.67006   0.00000  Uiso   1.00
N364   N     0.06540   0.97424   0.45806   0.00000  Uiso   1.00
N365   N     0.05549   0.42953   0.48088   0.00000  Uiso   1.00
N366   N     0.46990   0.20858   0.53672   0.00000  Uiso   1.00
N367   N     0.11027   0.97925   0.32472   0.00000  Uiso   1.00
N368   N     0.10036   0.43455   0.34755   0.00000  Uiso   1.00
