data_job_06942
_audit_creation_date              2018-12-19
_audit_creation_method            'Materials Studio'
_symmetry_space_group_name_H-M    'P1'
_symmetry_Int_Tables_number       1
_symmetry_cell_setting            triclinic
loop_
_symmetry_equiv_pos_as_xyz
  x,y,z
_cell_length_a                    21.3382
_cell_length_b                    24.4220
_cell_length_c                    23.9058
_cell_angle_alpha                 64.6980
_cell_angle_beta                  80.3033
_cell_angle_gamma                 97.7591
loop_
_atom_site_label
_atom_site_type_symbol
_atom_site_fract_x
_atom_site_fract_y
_atom_site_fract_z
_atom_site_U_iso_or_equiv
_atom_site_adp_type
_atom_site_occupancy
C1     C     0.85869   0.16186   0.47329   0.00000  Uiso   1.00
C2     C     0.83280   0.16409   0.53557   0.00000  Uiso   1.00
C3     C     0.84594   0.21558   0.54619   0.00000  Uiso   1.00
C4     C     0.81761   0.20815   0.60646   0.00000  Uiso   1.00
C5     C     0.78353   0.22025   0.69590   0.00000  Uiso   1.00
C6     C     0.89406   0.10890   0.49041   0.00000  Uiso   1.00
C7     C     0.95870   0.11398   0.46304   0.00000  Uiso   1.00
C8     C     0.98193   0.06009   0.48528   0.00000  Uiso   1.00
C9     C     0.04294   0.98650   0.50456   0.00000  Uiso   1.00
C10    C     0.79872   0.14080   0.45430   0.00000  Uiso   1.00
C11    C     0.78321   0.17271   0.39656   0.00000  Uiso   1.00
C12    C     0.72619   0.14567   0.38840   0.00000  Uiso   1.00
C13    C     0.63918   0.12163   0.35162   0.00000  Uiso   1.00
C14    C     0.78502   0.05710   0.56145   0.00000  Uiso   1.00
C15    C     0.79279   0.10718   0.58346   0.00000  Uiso   1.00
C16    C     0.76443   0.09967   0.64373   0.00000  Uiso   1.00
C17    C     0.77752   0.15114   0.65443   0.00000  Uiso   1.00
C18    C     0.85405   0.05199   0.53829   0.00000  Uiso   1.00
C19    C     0.87719   0.99808   0.56057   0.00000  Uiso   1.00
C20    C     0.94185   0.00308   0.53325   0.00000  Uiso   1.00
C21    C     0.75871   0.08390   0.50218   0.00000  Uiso   1.00
C22    C     0.70170   0.05681   0.49410   0.00000  Uiso   1.00
C23    C     0.68610   0.08867   0.43637   0.00000  Uiso   1.00
H24    H     0.88984   0.20616   0.43601   0.00000  Uiso   1.00
H25    H     0.87691   0.25960   0.50912   0.00000  Uiso   1.00
H26    H     0.98965   0.15802   0.42598   0.00000  Uiso   1.00
H27    H     0.81419   0.21674   0.35952   0.00000  Uiso   1.00
H28    H     0.84495   0.29376   0.61131   0.00000  Uiso   1.00
H29    H     0.08265   0.07957   0.43598   0.00000  Uiso   1.00
H30    H     0.71266   0.20339   0.29583   0.00000  Uiso   1.00
H31    H     0.75386   0.01279   0.59873   0.00000  Uiso   1.00
H32    H     0.73347   0.05563   0.68077   0.00000  Uiso   1.00
H33    H     0.84621   0.95405   0.59763   0.00000  Uiso   1.00
H34    H     0.67075   0.01277   0.53117   0.00000  Uiso   1.00
H35    H     0.72853   0.12820   0.75063   0.00000  Uiso   1.00
H36    H     0.96623   0.91401   0.57529   0.00000  Uiso   1.00
H37    H     0.59624   0.03783   0.43515   0.00000  Uiso   1.00
O38    O     0.77580   0.24264   0.73201   0.00000  Uiso   1.00
O39    O     0.08765   0.96163   0.50198   0.00000  Uiso   1.00
O40    O     0.60223   0.12409   0.31811   0.00000  Uiso   1.00
N41    N     0.82034   0.24892   0.63283   0.00000  Uiso   1.00
N42    N     0.04258   0.04867   0.46892   0.00000  Uiso   1.00
N43    N     0.69668   0.16442   0.33788   0.00000  Uiso   1.00
N44    N     0.75769   0.15984   0.70780   0.00000  Uiso   1.00
N45    N     0.97993   0.95958   0.54388   0.00000  Uiso   1.00
N46    N     0.63403   0.07534   0.41285   0.00000  Uiso   1.00
C47    C     0.22004   0.58127   0.28928   0.00000  Uiso   1.00
C48    C     0.26883   0.54718   0.32146   0.00000  Uiso   1.00
C49    C     0.26726   0.52356   0.38592   0.00000  Uiso   1.00
C50    C     0.31633   0.49393   0.40600   0.00000  Uiso   1.00
C51    C     0.38468   0.44189   0.46248   0.00000  Uiso   1.00
C52    C     0.26025   0.64407   0.23565   0.00000  Uiso   1.00
C53    C     0.25145   0.70192   0.22795   0.00000  Uiso   1.00
C54    C     0.29329   0.75384   0.17579   0.00000  Uiso   1.00
C55    C     0.34829   0.85224   0.09903   0.00000  Uiso   1.00
C56    C     0.19267   0.54528   0.25662   0.00000  Uiso   1.00
C57    C     0.12706   0.52007   0.26654   0.00000  Uiso   1.00
C58    C     0.11200   0.48883   0.23201   0.00000  Uiso   1.00
C59    C     0.06207   0.43383   0.18780   0.00000  Uiso   1.00
C60    C     0.30997   0.57062   0.21032   0.00000  Uiso   1.00
C61    C     0.31768   0.54140   0.27857   0.00000  Uiso   1.00
C62    C     0.36676   0.51178   0.29856   0.00000  Uiso   1.00
C63    C     0.36526   0.48813   0.36303   0.00000  Uiso   1.00
C64    C     0.30910   0.63829   0.19276   0.00000  Uiso   1.00
C65    C     0.35096   0.69014   0.14059   0.00000  Uiso   1.00
C66    C     0.34223   0.74805   0.13282   0.00000  Uiso   1.00
C67    C     0.24152   0.53949   0.21373   0.00000  Uiso   1.00
C68    C     0.22656   0.50829   0.17918   0.00000  Uiso   1.00
C69    C     0.16094   0.48304   0.18904   0.00000  Uiso   1.00
H70    H     0.18201   0.58578   0.32267   0.00000  Uiso   1.00
H71    H     0.22945   0.52805   0.41909   0.00000  Uiso   1.00
H72    H     0.21364   0.70638   0.26115   0.00000  Uiso   1.00
H73    H     0.08927   0.52456   0.29973   0.00000  Uiso   1.00
H74    H     0.30361   0.46153   0.50708   0.00000  Uiso   1.00
H75    H     0.27026   0.83754   0.17403   0.00000  Uiso   1.00
H76    H     0.00799   0.45413   0.25539   0.00000  Uiso   1.00
H77    H     0.34801   0.56612   0.17692   0.00000  Uiso   1.00
H78    H     0.40456   0.50731   0.26535   0.00000  Uiso   1.00
H79    H     0.38875   0.68564   0.10741   0.00000  Uiso   1.00
H80    H     0.26438   0.50382   0.14599   0.00000  Uiso   1.00
H81    H     0.44573   0.44470   0.38230   0.00000  Uiso   1.00
H82    H     0.41238   0.82071   0.04925   0.00000  Uiso   1.00
H83    H     0.15012   0.43730   0.13060   0.00000  Uiso   1.00
O84    O     0.40889   0.41480   0.50549   0.00000  Uiso   1.00
O85    O     0.36513   0.90811   0.06854   0.00000  Uiso   1.00
O86    O     0.02104   0.40509   0.17527   0.00000  Uiso   1.00
N87    N     0.32929   0.46562   0.46558   0.00000  Uiso   1.00
N88    N     0.29812   0.81717   0.15421   0.00000  Uiso   1.00
N89    N     0.05292   0.45873   0.23025   0.00000  Uiso   1.00
N90    N     0.40576   0.45657   0.39844   0.00000  Uiso   1.00
N91    N     0.37459   0.80812   0.08706   0.00000  Uiso   1.00
N92    N     0.12939   0.44968   0.16311   0.00000  Uiso   1.00
C93    C     0.13893   0.12347   0.92032   0.00000  Uiso   1.00
C94    C     0.14626   0.19348   0.89499   0.00000  Uiso   1.00
C95    C     0.19452   0.23347   0.90080   0.00000  Uiso   1.00
C96    C     0.19280   0.29595   0.87440   0.00000  Uiso   1.00
C97    C     0.21151   0.40136   0.83982   0.00000  Uiso   1.00
C98    C     0.07003   0.09314   0.96389   0.00000  Uiso   1.00
C99    C     0.05420   0.04875   0.02761   0.00000  Uiso   1.00
C100   C     0.98830   0.02675   0.05921   0.00000  Uiso   1.00
C101   C     0.88866   0.97634   0.13158   0.00000  Uiso   1.00
C102   C     0.13958   0.11110   0.86290   0.00000  Uiso   1.00
C103   C     0.18221   0.08180   0.84172   0.00000  Uiso   1.00
C104   C     0.17485   0.07491   0.78830   0.00000  Uiso   1.00
C105   C     0.18320   0.05239   0.70387   0.00000  Uiso   1.00
C106   C     0.05005   0.16332   0.86313   0.00000  Uiso   1.00
C107   C     0.09798   0.21512   0.86393   0.00000  Uiso   1.00
C108   C     0.09619   0.27756   0.83751   0.00000  Uiso   1.00
C109   C     0.14444   0.31763   0.84328   0.00000  Uiso   1.00
C110   C     0.02175   0.11478   0.93282   0.00000  Uiso   1.00
C111   C     0.95586   0.09283   0.96433   0.00000  Uiso   1.00
C112   C     0.93994   0.04843   0.02809   0.00000  Uiso   1.00
C113   C     0.09130   0.13274   0.83183   0.00000  Uiso   1.00
C114   C     0.08388   0.12589   0.77844   0.00000  Uiso   1.00
C115   C     0.12649   0.09659   0.75718   0.00000  Uiso   1.00
H116   H     0.17651   0.10662   0.94451   0.00000  Uiso   1.00
H117   H     0.23187   0.21671   0.92485   0.00000  Uiso   1.00
H118   H     0.09156   0.03201   0.05164   0.00000  Uiso   1.00
H119   H     0.21956   0.06506   0.86577   0.00000  Uiso   1.00
H120   H     0.27195   0.34830   0.88936   0.00000  Uiso   1.00
H121   H     0.97610   0.95884   0.15671   0.00000  Uiso   1.00
H122   H     0.24600   0.02853   0.76477   0.00000  Uiso   1.00
H123   H     0.01246   0.18016   0.83894   0.00000  Uiso   1.00
H124   H     0.05883   0.29429   0.81348   0.00000  Uiso   1.00
H125   H     0.91852   0.10959   0.94027   0.00000  Uiso   1.00
H126   H     0.04651   0.14264   0.75441   0.00000  Uiso   1.00
H127   H     0.13150   0.41127   0.79897   0.00000  Uiso   1.00
H128   H     0.83565   0.02180   0.06632   0.00000  Uiso   1.00
H129   H     0.10555   0.09150   0.67439   0.00000  Uiso   1.00
O130   O     0.23517   0.45353   0.82934   0.00000  Uiso   1.00
O131   O     0.84704   0.94256   0.18008   0.00000  Uiso   1.00
O132   O     0.20114   0.03400   0.66588   0.00000  Uiso   1.00
N133   N     0.23254   0.34746   0.87157   0.00000  Uiso   1.00
N134   N     0.95594   0.98334   0.12153   0.00000  Uiso   1.00
N135   N     0.20826   0.04848   0.75511   0.00000  Uiso   1.00
N136   N     0.15696   0.38134   0.82293   0.00000  Uiso   1.00
N137   N     0.88037   0.01722   0.07289   0.00000  Uiso   1.00
N138   N     0.13269   0.08237   0.70647   0.00000  Uiso   1.00
C139   C     0.34327   0.76313   0.63214   0.00000  Uiso   1.00
C140   C     0.32743   0.81418   0.64893   0.00000  Uiso   1.00
C141   C     0.35952   0.83710   0.68312   0.00000  Uiso   1.00
C142   C     0.33769   0.88383   0.69348   0.00000  Uiso   1.00
C143   C     0.32104   0.95963   0.72303   0.00000  Uiso   1.00
C144   C     0.35665   0.79125   0.55956   0.00000  Uiso   1.00
C145   C     0.41331   0.79488   0.51860   0.00000  Uiso   1.00
C146   C     0.41606   0.82230   0.45373   0.00000  Uiso   1.00
C147   C     0.44475   0.86246   0.34453   0.00000  Uiso   1.00
C148   C     0.28004   0.71292   0.65888   0.00000  Uiso   1.00
C149   C     0.27229   0.65068   0.70143   0.00000  Uiso   1.00
C150   C     0.21055   0.61215   0.72017   0.00000  Uiso   1.00
C151   C     0.12030   0.53068   0.76519   0.00000  Uiso   1.00
C152   C     0.24742   0.80537   0.58977   0.00000  Uiso   1.00
C153   C     0.27537   0.83712   0.62591   0.00000  Uiso   1.00
C154   C     0.25348   0.88383   0.63623   0.00000  Uiso   1.00
C155   C     0.28553   0.90681   0.67043   0.00000  Uiso   1.00
C156   C     0.30459   0.81419   0.53654   0.00000  Uiso   1.00
C157   C     0.30726   0.84161   0.47172   0.00000  Uiso   1.00
C158   C     0.36391   0.84529   0.43067   0.00000  Uiso   1.00
C159   C     0.22798   0.73586   0.63587   0.00000  Uiso   1.00
C160   C     0.16624   0.69742   0.65455   0.00000  Uiso   1.00
C161   C     0.15839   0.63513   0.69711   0.00000  Uiso   1.00
H162   H     0.38380   0.74527   0.65006   0.00000  Uiso   1.00
H163   H     0.39982   0.81933   0.70092   0.00000  Uiso   1.00
H164   H     0.45358   0.77711   0.53643   0.00000  Uiso   1.00
H165   H     0.31259   0.63294   0.71923   0.00000  Uiso   1.00
H166   H     0.39463   0.91158   0.74713   0.00000  Uiso   1.00
H167   H     0.50799   0.82254   0.40030   0.00000  Uiso   1.00
H168   H     0.21067   0.51852   0.78577   0.00000  Uiso   1.00
H169   H     0.20689   0.82323   0.57184   0.00000  Uiso   1.00
H170   H     0.21319   0.90158   0.61842   0.00000  Uiso   1.00
H171   H     0.26696   0.85936   0.45392   0.00000  Uiso   1.00
H172   H     0.12597   0.71519   0.63673   0.00000  Uiso   1.00
H173   H     0.24316   0.97834   0.68017   0.00000  Uiso   1.00
H174   H     0.35652   0.88930   0.33334   0.00000  Uiso   1.00
H175   H     0.05920   0.58528   0.71881   0.00000  Uiso   1.00
O176   O     0.32625   0.99510   0.74568   0.00000  Uiso   1.00
O177   O     0.47497   0.87828   0.29065   0.00000  Uiso   1.00
O178   O     0.08490   0.47941   0.79638   0.00000  Uiso   1.00
N179   N     0.35810   0.91653   0.72499   0.00000  Uiso   1.00
N180   N     0.46410   0.83329   0.40072   0.00000  Uiso   1.00
N181   N     0.18613   0.54906   0.76109   0.00000  Uiso   1.00
N182   N     0.27660   0.95245   0.68896   0.00000  Uiso   1.00
N183   N     0.38259   0.86922   0.36469   0.00000  Uiso   1.00
N184   N     0.10463   0.58498   0.72506   0.00000  Uiso   1.00
C185   C     0.76775   0.58097   0.44385   0.00000  Uiso   1.00
C186   C     0.81751   0.63846   0.39095   0.00000  Uiso   1.00
C187   C     0.82505   0.69840   0.38445   0.00000  Uiso   1.00
C188   C     0.87338   0.74463   0.33281   0.00000  Uiso   1.00
C189   C     0.94468   0.83592   0.25732   0.00000  Uiso   1.00
C190   C     0.80702   0.53389   0.47542   0.00000  Uiso   1.00
C191   C     0.80573   0.50588   0.53993   0.00000  Uiso   1.00
C192   C     0.84523   0.46407   0.55939   0.00000  Uiso   1.00
C193   C     0.90021   0.39297   0.61504   0.00000  Uiso   1.00
C194   C     0.72835   0.55378   0.41025   0.00000  Uiso   1.00
C195   C     0.66092   0.54249   0.41997   0.00000  Uiso   1.00
C196   C     0.63418   0.51741   0.38458   0.00000  Uiso   1.00
C197   C     0.56702   0.47720   0.33904   0.00000  Uiso   1.00
C198   C     0.84018   0.55649   0.36370   0.00000  Uiso   1.00
C199   C     0.85685   0.62517   0.34742   0.00000  Uiso   1.00
C200   C     0.90518   0.67132   0.29578   0.00000  Uiso   1.00
C201   C     0.91279   0.73131   0.28920   0.00000  Uiso   1.00
C202   C     0.84636   0.52059   0.43189   0.00000  Uiso   1.00
C203   C     0.88586   0.47881   0.45126   0.00000  Uiso   1.00
C204   C     0.88464   0.45076   0.51578   0.00000  Uiso   1.00
C205   C     0.76769   0.54049   0.36671   0.00000  Uiso   1.00
C206   C     0.74106   0.51542   0.33130   0.00000  Uiso   1.00
C207   C     0.67359   0.50410   0.34097   0.00000  Uiso   1.00
H208   H     0.73712   0.59131   0.47774   0.00000  Uiso   1.00
H209   H     0.79459   0.70866   0.41816   0.00000  Uiso   1.00
H210   H     0.77528   0.51618   0.57361   0.00000  Uiso   1.00
H211   H     0.63049   0.55278   0.45367   0.00000  Uiso   1.00
H212   H     0.87568   0.83290   0.33291   0.00000  Uiso   1.00
H213   H     0.83493   0.42702   0.66070   0.00000  Uiso   1.00
H214   H     0.52962   0.50420   0.40778   0.00000  Uiso   1.00
H215   H     0.87081   0.54614   0.32980   0.00000  Uiso   1.00
H216   H     0.93562   0.66102   0.26210   0.00000  Uiso   1.00
H217   H     0.91630   0.46853   0.41755   0.00000  Uiso   1.00
H218   H     0.77151   0.50514   0.29761   0.00000  Uiso   1.00
H219   H     0.99014   0.79423   0.20625   0.00000  Uiso   1.00
H220   H     0.94939   0.38835   0.53404   0.00000  Uiso   1.00
H221   H     0.64408   0.46553   0.28112   0.00000  Uiso   1.00
O222   O     0.97315   0.88995   0.22772   0.00000  Uiso   1.00
O223   O     0.91967   0.35743   0.65777   0.00000  Uiso   1.00
O224   O     0.51912   0.45870   0.32594   0.00000  Uiso   1.00
N225   N     0.89371   0.80804   0.31238   0.00000  Uiso   1.00
N226   N     0.85562   0.42857   0.61885   0.00000  Uiso   1.00
N227   N     0.57018   0.50071   0.38240   0.00000  Uiso   1.00
N228   N     0.95531   0.78723   0.24423   0.00000  Uiso   1.00
N229   N     0.91721   0.40776   0.55069   0.00000  Uiso   1.00
N230   N     0.63177   0.47991   0.31424   0.00000  Uiso   1.00
C231   C     0.65063   0.32011   0.93342   0.00000  Uiso   1.00
C232   C     0.65629   0.29638   0.00220   0.00000  Uiso   1.00
C233   C     0.70885   0.31647   0.02138   0.00000  Uiso   1.00
C234   C     0.70465   0.28900   0.08654   0.00000  Uiso   1.00
C235   C     0.72175   0.25916   0.18660   0.00000  Uiso   1.00
C236   C     0.58767   0.34312   0.93155   0.00000  Uiso   1.00
C237   C     0.58255   0.40251   0.89132   0.00000  Uiso   1.00
C238   C     0.52058   0.41438   0.89700   0.00000  Uiso   1.00
C239   C     0.43116   0.45710   0.88735   0.00000  Uiso   1.00
C240   C     0.63876   0.26291   0.92243   0.00000  Uiso   1.00
C241   C     0.67657   0.25485   0.87451   0.00000  Uiso   1.00
C242   C     0.65760   0.19919   0.87249   0.00000  Uiso   1.00
C243   C     0.64749   0.11737   0.84867   0.00000  Uiso   1.00
C244   C     0.54969   0.23560   0.01503   0.00000  Uiso   1.00
C245   C     0.60146   0.25048   0.04653   0.00000  Uiso   1.00
C246   C     0.59717   0.22297   0.11167   0.00000  Uiso   1.00
C247   C     0.64972   0.24301   0.13094   0.00000  Uiso   1.00
C248   C     0.53284   0.29722   0.97588   0.00000  Uiso   1.00
C249   C     0.47087   0.30901   0.98161   0.00000  Uiso   1.00
C250   C     0.46565   0.36839   0.94141   0.00000  Uiso   1.00
C251   C     0.58393   0.21701   0.96675   0.00000  Uiso   1.00
C252   C     0.56489   0.16135   0.96480   0.00000  Uiso   1.00
C253   C     0.60267   0.15321   0.91690   0.00000  Uiso   1.00
H254   H     0.69332   0.35584   0.89891   0.00000  Uiso   1.00
H255   H     0.75128   0.35200   0.98707   0.00000  Uiso   1.00
H256   H     0.62499   0.43801   0.85702   0.00000  Uiso   1.00
H257   H     0.71900   0.29038   0.84022   0.00000  Uiso   1.00
H258   H     0.79134   0.32750   0.10435   0.00000  Uiso   1.00
H259   H     0.52506   0.50887   0.83014   0.00000  Uiso   1.00
H260   H     0.72330   0.19756   0.79469   0.00000  Uiso   1.00
H261   H     0.50700   0.19986   0.04954   0.00000  Uiso   1.00
H262   H     0.55473   0.18745   0.14596   0.00000  Uiso   1.00
H263   H     0.42845   0.27347   0.01592   0.00000  Uiso   1.00
H264   H     0.52245   0.12584   0.99911   0.00000  Uiso   1.00
H265   H     0.63182   0.19395   0.23332   0.00000  Uiso   1.00
H266   H     0.36554   0.37533   0.95910   0.00000  Uiso   1.00
H267   H     0.56377   0.06402   0.92366   0.00000  Uiso   1.00
O268   O     0.74633   0.25539   0.22955   0.00000  Uiso   1.00
O269   O     0.39698   0.49334   0.86978   0.00000  Uiso   1.00
O270   O     0.65706   0.08491   0.82328   0.00000  Uiso   1.00
N271   N     0.74725   0.29776   0.12147   0.00000  Uiso   1.00
N272   N     0.49830   0.46734   0.86510   0.00000  Uiso   1.00
N273   N     0.68362   0.17630   0.83196   0.00000  Uiso   1.00
N274   N     0.66141   0.22590   0.19087   0.00000  Uiso   1.00
N275   N     0.41246   0.39548   0.93450   0.00000  Uiso   1.00
N276   N     0.59778   0.10444   0.90135   0.00000  Uiso   1.00
C277   C     0.08779   0.61959   0.54233   0.00000  Uiso   1.00
C278   C     0.08406   0.62980   0.47555   0.00000  Uiso   1.00
C279   C     0.04484   0.58965   0.46158   0.00000  Uiso   1.00
C280   C     0.04846   0.60739   0.39744   0.00000  Uiso   1.00
C281   C     0.03635   0.61476   0.30110   0.00000  Uiso   1.00
C282   C     0.07199   0.67660   0.54743   0.00000  Uiso   1.00
C283   C     0.02262   0.67580   0.59391   0.00000  Uiso   1.00
C284   C     0.01608   0.73294   0.59029   0.00000  Uiso   1.00
C285   C     0.98525   0.81297   0.60558   0.00000  Uiso   1.00
C286   C     0.15952   0.62288   0.54299   0.00000  Uiso   1.00
C287   C     0.18375   0.57691   0.58575   0.00000  Uiso   1.00
C288   C     0.25090   0.58883   0.57841   0.00000  Uiso   1.00
C289   C     0.35598   0.58544   0.58680   0.00000  Uiso   1.00
C290   C     0.16396   0.72248   0.45328   0.00000  Uiso   1.00
C291   C     0.12544   0.68569   0.42718   0.00000  Uiso   1.00
C292   C     0.12912   0.70349   0.36305   0.00000  Uiso   1.00
C293   C     0.08991   0.66338   0.34898   0.00000  Uiso   1.00
C294   C     0.11336   0.73249   0.49906   0.00000  Uiso   1.00
C295   C     0.10689   0.78964   0.49538   0.00000  Uiso   1.00
C296   C     0.05752   0.78893   0.54183   0.00000  Uiso   1.00
C297   C     0.20089   0.67877   0.49462   0.00000  Uiso   1.00
C298   C     0.26802   0.69076   0.48722   0.00000  Uiso   1.00
C299   C     0.29235   0.64482   0.52995   0.00000  Uiso   1.00
H300   H     0.05558   0.57608   0.57999   0.00000  Uiso   1.00
H301   H     0.01283   0.54640   0.49902   0.00000  Uiso   1.00
H302   H     0.99061   0.63254   0.63134   0.00000  Uiso   1.00
H303   H     0.15172   0.53367   0.62318   0.00000  Uiso   1.00
H304   H     0.98365   0.53816   0.38792   0.00000  Uiso   1.00
H305   H     0.93683   0.71979   0.66693   0.00000  Uiso   1.00
H306   H     0.27655   0.51130   0.64972   0.00000  Uiso   1.00
H307   H     0.19617   0.76600   0.41562   0.00000  Uiso   1.00
H308   H     0.16114   0.74675   0.32563   0.00000  Uiso   1.00
H309   H     0.13892   0.83288   0.45794   0.00000  Uiso   1.00
H310   H     0.30003   0.73401   0.44978   0.00000  Uiso   1.00
H311   H     0.10403   0.70077   0.24719   0.00000  Uiso   1.00
H312   H     0.05720   0.88240   0.52620   0.00000  Uiso   1.00
H313   H     0.39692   0.67391   0.50898   0.00000  Uiso   1.00
O314   O     0.01824   0.60339   0.26132   0.00000  Uiso   1.00
O315   O     0.95681   0.84167   0.62737   0.00000  Uiso   1.00
O316   O     0.40252   0.56814   0.60479   0.00000  Uiso   1.00
N317   N     0.01680   0.57907   0.36715   0.00000  Uiso   1.00
N318   N     0.97301   0.74888   0.62800   0.00000  Uiso   1.00
N319   N     0.29062   0.55397   0.61192   0.00000  Uiso   1.00
N320   N     0.08157   0.66657   0.29142   0.00000  Uiso   1.00
N321   N     0.03779   0.83637   0.55227   0.00000  Uiso   1.00
N322   N     0.35540   0.64146   0.53619   0.00000  Uiso   1.00
C323   C     0.50587   0.16021   0.71286   0.00000  Uiso   1.00
C324   C     0.44104   0.17627   0.70135   0.00000  Uiso   1.00
C325   C     0.41842   0.18384   0.64796   0.00000  Uiso   1.00
C326   C     0.35786   0.19846   0.64646   0.00000  Uiso   1.00
C327   C     0.26276   0.22234   0.62097   0.00000  Uiso   1.00
C328   C     0.48875   0.10122   0.77662   0.00000  Uiso   1.00
C329   C     0.50623   0.04569   0.78653   0.00000  Uiso   1.00
C330   C     0.48584   0.99714   0.84840   0.00000  Uiso   1.00
C331   C     0.46483   0.90451   0.93979   0.00000  Uiso   1.00
C332   C     0.54169   0.21170   0.72386   0.00000  Uiso   1.00
C333   C     0.60370   0.24906   0.68941   0.00000  Uiso   1.00
C334   C     0.62789   0.29351   0.70687   0.00000  Uiso   1.00
C335   C     0.68908   0.37242   0.71632   0.00000  Uiso   1.00
C336   C     0.43857   0.17272   0.80513   0.00000  Uiso   1.00
C337   C     0.40449   0.18306   0.75146   0.00000  Uiso   1.00
C338   C     0.34396   0.19768   0.75004   0.00000  Uiso   1.00
C339   C     0.32124   0.20528   0.69666   0.00000  Uiso   1.00
C340   C     0.45219   0.10801   0.82674   0.00000  Uiso   1.00
C341   C     0.43178   0.05953   0.88861   0.00000  Uiso   1.00
C342   C     0.44922   0.00395   0.89861   0.00000  Uiso   1.00
C343   C     0.50514   0.21850   0.77397   0.00000  Uiso   1.00
C344   C     0.52924   0.26290   0.79148   0.00000  Uiso   1.00
C345   C     0.59127   0.30032   0.75707   0.00000  Uiso   1.00
H346   H     0.53433   0.15491   0.67385   0.00000  Uiso   1.00
H347   H     0.44672   0.17857   0.60919   0.00000  Uiso   1.00
H348   H     0.53453   0.04045   0.74774   0.00000  Uiso   1.00
H349   H     0.63197   0.24378   0.65063   0.00000  Uiso   1.00
H350   H     0.33345   0.20778   0.55962   0.00000  Uiso   1.00
H351   H     0.51862   0.91654   0.85176   0.00000  Uiso   1.00
H352   H     0.72411   0.34531   0.64699   0.00000  Uiso   1.00
H353   H     0.41011   0.17801   0.84414   0.00000  Uiso   1.00
H354   H     0.31568   0.20294   0.78883   0.00000  Uiso   1.00
H355   H     0.40349   0.06481   0.92738   0.00000  Uiso   1.00
H356   H     0.50094   0.26815   0.83027   0.00000  Uiso   1.00
H357   H     0.22710   0.22755   0.70542   0.00000  Uiso   1.00
H358   H     0.41227   0.93631   0.99756   0.00000  Uiso   1.00
H359   H     0.61776   0.36509   0.79278   0.00000  Uiso   1.00
O360   O     0.22039   0.23363   0.59306   0.00000  Uiso   1.00
O361   O     0.46334   0.85154   0.97635   0.00000  Uiso   1.00
O362   O     0.73293   0.41408   0.70768   0.00000  Uiso   1.00
N363   N     0.32139   0.20902   0.60152   0.00000  Uiso   1.00
N364   N     0.49450   0.93673   0.87465   0.00000  Uiso   1.00
N365   N     0.68662   0.33758   0.68321   0.00000  Uiso   1.00
N366   N     0.26416   0.21966   0.67997   0.00000  Uiso   1.00
N367   N     0.43727   0.94737   0.95310   0.00000  Uiso   1.00
N368   N     0.62939   0.34823   0.76167   0.00000  Uiso   1.00
C369   C     0.56887   0.28615   0.44829   0.00000  Uiso   1.00
C370   C     0.57290   0.22085   0.49407   0.00000  Uiso   1.00
C371   C     0.52521   0.16666   0.51593   0.00000  Uiso   1.00
C372   C     0.53818   0.11155   0.55759   0.00000  Uiso   1.00
C373   C     0.53554   0.01028   0.62575   0.00000  Uiso   1.00
C374   C     0.62893   0.31101   0.39217   0.00000  Uiso   1.00
C375   C     0.62835   0.33264   0.32835   0.00000  Uiso   1.00
C376   C     0.68850   0.35343   0.28422   0.00000  Uiso   1.00
C377   C     0.77285   0.39218   0.19417   0.00000  Uiso   1.00
C378   C     0.57868   0.32555   0.48267   0.00000  Uiso   1.00
C379   C     0.53586   0.35942   0.49494   0.00000  Uiso   1.00
C380   C     0.55370   0.39247   0.52700   0.00000  Uiso   1.00
C381   C     0.56004   0.45379   0.57747   0.00000  Uiso   1.00
C382   C     0.67670   0.28463   0.48340   0.00000  Uiso   1.00
C383   C     0.63147   0.22003   0.51314   0.00000  Uiso   1.00
C384   C     0.64452   0.16498   0.55478   0.00000  Uiso   1.00
C385   C     0.59686   0.11072   0.57669   0.00000  Uiso   1.00
C386   C     0.68750   0.31019   0.41124   0.00000  Uiso   1.00
C387   C     0.74766   0.33096   0.36719   0.00000  Uiso   1.00
C388   C     0.74717   0.35261   0.30332   0.00000  Uiso   1.00
C389   C     0.63725   0.32473   0.50175   0.00000  Uiso   1.00
C390   C     0.65517   0.35774   0.53379   0.00000  Uiso   1.00
C391   C     0.61238   0.39165   0.54610   0.00000  Uiso   1.00
H392   H     0.52327   0.28680   0.43343   0.00000  Uiso   1.00
H393   H     0.47989   0.16732   0.50116   0.00000  Uiso   1.00
H394   H     0.58302   0.33328   0.31360   0.00000  Uiso   1.00
H395   H     0.49054   0.36005   0.48017   0.00000  Uiso   1.00
H396   H     0.45763   0.03449   0.58463   0.00000  Uiso   1.00
H397   H     0.67509   0.38444   0.18916   0.00000  Uiso   1.00
H398   H     0.48008   0.44090   0.54040   0.00000  Uiso   1.00
H399   H     0.72231   0.28399   0.49824   0.00000  Uiso   1.00
H400   H     0.68985   0.16436   0.56953   0.00000  Uiso   1.00
H401   H     0.79298   0.33031   0.38197   0.00000  Uiso   1.00
H402   H     0.70050   0.35709   0.54854   0.00000  Uiso   1.00
H403   H     0.62805   0.03209   0.64012   0.00000  Uiso   1.00
H404   H     0.84550   0.38204   0.24464   0.00000  Uiso   1.00
H405   H     0.65049   0.43849   0.59589   0.00000  Uiso   1.00
O406   O     0.51791   0.95464   0.65808   0.00000  Uiso   1.00
O407   O     0.80320   0.41377   0.13924   0.00000  Uiso   1.00
O408   O     0.54734   0.48784   0.60006   0.00000  Uiso   1.00
N409   N     0.50219   0.05035   0.58792   0.00000  Uiso   1.00
N410   N     0.70550   0.37752   0.21818   0.00000  Uiso   1.00
N411   N     0.52319   0.43032   0.54654   0.00000  Uiso   1.00
N412   N     0.59389   0.04905   0.61777   0.00000  Uiso   1.00
N413   N     0.79719   0.37622   0.24803   0.00000  Uiso   1.00
N414   N     0.61488   0.42902   0.57640   0.00000  Uiso   1.00
C415   C     0.64297   0.85785   0.39813   0.00000  Uiso   1.00
C416   C     0.61179   0.78907   0.42332   0.00000  Uiso   1.00
C417   C     0.59268   0.76140   0.38695   0.00000  Uiso   1.00
C418   C     0.56510   0.69784   0.41895   0.00000  Uiso   1.00
C419   C     0.51790   0.59631   0.44803   0.00000  Uiso   1.00
C420   C     0.59939   0.88073   0.43683   0.00000  Uiso   1.00
C421   C     0.56986   0.93015   0.41181   0.00000  Uiso   1.00
C422   C     0.53184   0.94376   0.45518   0.00000  Uiso   1.00
C423   C     0.46543   0.98458   0.50522   0.00000  Uiso   1.00
C424   C     0.70742   0.86010   0.41751   0.00000  Uiso   1.00
C425   C     0.76873   0.89218   0.37626   0.00000  Uiso   1.00
C426   C     0.82167   0.88844   0.40336   0.00000  Uiso   1.00
C427   C     0.92299   0.89723   0.42341   0.00000  Uiso   1.00
C428   C     0.62795   0.79418   0.51963   0.00000  Uiso   1.00
C429   C     0.60363   0.75448   0.48931   0.00000  Uiso   1.00
C430   C     0.57607   0.69095   0.52137   0.00000  Uiso   1.00
C431   C     0.55693   0.66319   0.48506   0.00000  Uiso   1.00
C432   C     0.59123   0.84615   0.50282   0.00000  Uiso   1.00
C433   C     0.55325   0.85970   0.54623   0.00000  Uiso   1.00
C434   C     0.52367   0.90912   0.52129   0.00000  Uiso   1.00
C435   C     0.69927   0.82552   0.48350   0.00000  Uiso   1.00
C436   C     0.75212   0.82173   0.51068   0.00000  Uiso   1.00
C437   C     0.81349   0.85380   0.46947   0.00000  Uiso   1.00
H438   H     0.64931   0.88477   0.34676   0.00000  Uiso   1.00
H439   H     0.59900   0.78818   0.33589   0.00000  Uiso   1.00
H440   H     0.57619   0.95690   0.36075   0.00000  Uiso   1.00
H441   H     0.77502   0.91894   0.32520   0.00000  Uiso   1.00
H442   H     0.53960   0.66584   0.35294   0.00000  Uiso   1.00
H443   H     0.49151   0.02162   0.40535   0.00000  Uiso   1.00
H444   H     0.91080   0.94157   0.33039   0.00000  Uiso   1.00
H445   H     0.62160   0.76725   0.57101   0.00000  Uiso   1.00
H446   H     0.56976   0.66420   0.57244   0.00000  Uiso   1.00
H447   H     0.54695   0.83293   0.59730   0.00000  Uiso   1.00
H448   H     0.74579   0.79497   0.56175   0.00000  Uiso   1.00
H449   H     0.51587   0.56521   0.54493   0.00000  Uiso   1.00
H450   H     0.46778   0.92100   0.59734   0.00000  Uiso   1.00
H451   H     0.88707   0.84095   0.52238   0.00000  Uiso   1.00
O452   O     0.49411   0.54986   0.44584   0.00000  Uiso   1.00
O453   O     0.43104   0.01664   0.51460   0.00000  Uiso   1.00
O454   O     0.98113   0.91162   0.41624   0.00000  Uiso   1.00
N455   N     0.54114   0.65629   0.39793   0.00000  Uiso   1.00
N456   N     0.49617   0.98892   0.44693   0.00000  Uiso   1.00
N457   N     0.88817   0.91410   0.37684   0.00000  Uiso   1.00
N458   N     0.52837   0.60215   0.50124   0.00000  Uiso   1.00
N459   N     0.48340   0.93478   0.55024   0.00000  Uiso   1.00
N460   N     0.87540   0.85996   0.48016   0.00000  Uiso   1.00
C461   C     0.92251   0.01652   0.72285   0.00000  Uiso   1.00
C462   C     0.84924   0.99420   0.75386   0.00000  Uiso   1.00
C463   C     0.80470   0.95727   0.74074   0.00000  Uiso   1.00
C464   C     0.73981   0.94190   0.77417   0.00000  Uiso   1.00
C465   C     0.62900   0.90411   0.81546   0.00000  Uiso   1.00
C466   C     0.93771   0.08735   0.69379   0.00000  Uiso   1.00
C467   C     0.96757   0.12872   0.63017   0.00000  Uiso   1.00
C468   C     0.97716   0.19176   0.61305   0.00000  Uiso   1.00
C469   C     0.00375   0.29857   0.56108   0.00000  Uiso   1.00
C470   C     0.95589   0.99431   0.77759   0.00000  Uiso   1.00
C471   C     0.00105   0.95748   0.78443   0.00000  Uiso   1.00
C472   C     0.02596   0.94220   0.83785   0.00000  Uiso   1.00
C473   C     0.08078   0.90457   0.91601   0.00000  Uiso   1.00
C474   C     0.88646   0.05491   0.80557   0.00000  Uiso   1.00
C475   C     0.82966   0.01506   0.79878   0.00000  Uiso   1.00
C476   C     0.76481   0.99974   0.83225   0.00000  Uiso   1.00
C477   C     0.72019   0.96279   0.81918   0.00000  Uiso   1.00
C478   C     0.91813   0.10820   0.73871   0.00000  Uiso   1.00
C479   C     0.92768   0.17119   0.72168   0.00000  Uiso   1.00
C480   C     0.95754   0.21265   0.65805   0.00000  Uiso   1.00
C481   C     0.93631   0.01516   0.82252   0.00000  Uiso   1.00
C482   C     0.96116   0.99995   0.87594   0.00000  Uiso   1.00
C483   C     0.00634   0.96309   0.88286   0.00000  Uiso   1.00
H484   H     0.93776   0.00029   0.68787   0.00000  Uiso   1.00
H485   H     0.81987   0.94114   0.70596   0.00000  Uiso   1.00
H486   H     0.98272   0.11257   0.59542   0.00000  Uiso   1.00
H487   H     0.01619   0.94135   0.74965   0.00000  Uiso   1.00
H488   H     0.68053   0.88479   0.74581   0.00000  Uiso   1.00
H489   H     0.02393   0.24624   0.51272   0.00000  Uiso   1.00
H490   H     0.09451   0.88520   0.83796   0.00000  Uiso   1.00
H491   H     0.87122   0.07114   0.84054   0.00000  Uiso   1.00
H492   H     0.74967   0.01589   0.86701   0.00000  Uiso   1.00
H493   H     0.91252   0.18731   0.75646   0.00000  Uiso   1.00
H494   H     0.94599   0.01609   0.91070   0.00000  Uiso   1.00
H495   H     0.62356   0.94546   0.87652   0.00000  Uiso   1.00
H496   H     0.96696   0.30691   0.64343   0.00000  Uiso   1.00
H497   H     0.03753   0.94587   0.96867   0.00000  Uiso   1.00
O498   O     0.57329   0.87751   0.82581   0.00000  Uiso   1.00
O499   O     0.02382   0.35173   0.52001   0.00000  Uiso   1.00
O500   O     0.11642   0.87804   0.94671   0.00000  Uiso   1.00
N501   N     0.68381   0.90664   0.77295   0.00000  Uiso   1.00
N502   N     0.00485   0.24458   0.55502   0.00000  Uiso   1.00
N503   N     0.07085   0.90705   0.85908   0.00000  Uiso   1.00
N504   N     0.65315   0.93928   0.84329   0.00000  Uiso   1.00
N505   N     0.97419   0.27722   0.62536   0.00000  Uiso   1.00
N506   N     0.04019   0.93969   0.92942   0.00000  Uiso   1.00
C507   C     0.05924   0.54585   0.00892   0.00000  Uiso   1.00
C508   C     0.04131   0.58103   0.94599   0.00000  Uiso   1.00
C509   C     0.98008   0.57084   0.93484   0.00000  Uiso   1.00
C510   C     0.97364   0.60790   0.87403   0.00000  Uiso   1.00
C511   C     0.93776   0.65557   0.78360   0.00000  Uiso   1.00
C512   C     0.11625   0.51891   0.99330   0.00000  Uiso   1.00
C513   C     0.11804   0.45649   0.02193   0.00000  Uiso   1.00
C514   C     0.17469   0.44127   0.00095   0.00000  Uiso   1.00
C515   C     0.25517   0.39250   0.98399   0.00000  Uiso   1.00
C516   C     0.08693   0.59513   0.02704   0.00000  Uiso   1.00
C517   C     0.06407   0.59679   0.08406   0.00000  Uiso   1.00
C518   C     0.09605   0.64573   0.09150   0.00000  Uiso   1.00
C519   C     0.13101   0.71530   0.12694   0.00000  Uiso   1.00
C520   C     0.15668   0.62979   0.92075   0.00000  Uiso   1.00
C521   C     0.09423   0.62662   0.89810   0.00000  Uiso   1.00
C522   C     0.08789   0.66371   0.83729   0.00000  Uiso   1.00
C523   C     0.02666   0.65358   0.82605   0.00000  Uiso   1.00
C524   C     0.16917   0.56450   0.94541   0.00000  Uiso   1.00
C525   C     0.22584   0.54936   0.92438   0.00000  Uiso   1.00
C526   C     0.22771   0.48694   0.95297   0.00000  Uiso   1.00
C527   C     0.13985   0.64072   0.97915   0.00000  Uiso   1.00
C528   C     0.17188   0.68966   0.98650   0.00000  Uiso   1.00
C529   C     0.14907   0.69140   0.04352   0.00000  Uiso   1.00
H530   H     0.01804   0.51035   0.04620   0.00000  Uiso   1.00
H531   H     0.93914   0.53555   0.97192   0.00000  Uiso   1.00
H532   H     0.07707   0.42122   0.05899   0.00000  Uiso   1.00
H533   H     0.02312   0.56150   0.12111   0.00000  Uiso   1.00
H534   H     0.87501   0.58358   0.86843   0.00000  Uiso   1.00
H535   H     0.16586   0.34251   0.05205   0.00000  Uiso   1.00
H536   H     0.05209   0.63831   0.18304   0.00000  Uiso   1.00
H537   H     0.19788   0.66529   0.88346   0.00000  Uiso   1.00
H538   H     0.12885   0.69899   0.80024   0.00000  Uiso   1.00
H539   H     0.26679   0.58466   0.88732   0.00000  Uiso   1.00
H540   H     0.21283   0.72494   0.94943   0.00000  Uiso   1.00
H541   H     0.02899   0.71623   0.72909   0.00000  Uiso   1.00
H542   H     0.31985   0.47517   0.91271   0.00000  Uiso   1.00
H543   H     0.20607   0.77097   0.04370   0.00000  Uiso   1.00
O544   O     0.90335   0.66926   0.74694   0.00000  Uiso   1.00
O545   O     0.28494   0.35300   0.98786   0.00000  Uiso   1.00
O546   O     0.13567   0.74108   0.15971   0.00000  Uiso   1.00
N547   N     0.92072   0.61018   0.84706   0.00000  Uiso   1.00
N548   N     0.19265   0.38480   0.01873   0.00000  Uiso   1.00
N549   N     0.08629   0.66134   0.14120   0.00000  Uiso   1.00
N550   N     0.00357   0.68156   0.77208   0.00000  Uiso   1.00
N551   N     0.27550   0.45618   0.94375   0.00000  Uiso   1.00
N552   N     0.16914   0.73272   0.06622   0.00000  Uiso   1.00
